data_mof_unit_40680.cif
_audit_creation_date              2013-03-05T16:03:32-0500
_audit_creation_method            fapswitch 2.2
_symmetry_space_group_name_H-M    P1
_symmetry_Int_Tables_number       1
_space_group_crystal_system       triclinic
_cell_length_a                    8.887613
_cell_length_b                    14.939955
_cell_length_c                    22.90555
_cell_angle_alpha                 98.045704
_cell_angle_beta                  90.784419
_cell_angle_gamma                 93.81323
_cell_volume                      3003.9926124

loop_
_atom_site_label
_atom_site_type_symbol
_atom_site_description
_atom_site_fract_x
_atom_site_fract_y
_atom_site_fract_z
_atom_type_partial_charge
P1    P     P_3+3 0.074990 0.420800 0.372080 0.692010
O1    O     O_2   0.901900 0.448470 0.362340 -0.262694
O2    O     O_3   0.142240 0.449440 0.433360 -0.328877
O3    O     O_3   0.645560 0.619080 0.391970 -0.350252
O4    O     O_2   0.748129 0.551301 0.284787 -0.330048
O5    O     O_3   0.060464 0.301799 0.341369 -0.538301
O6    O     O_3   0.588546 0.695052 0.289401 -0.560947
H1    H     H_    0.822281 0.717633 0.304924 0.105736
C1    C     C_3   0.751692 0.742789 0.217267 -0.813709
H2    H     H_    0.842866 0.794015 0.209955 0.256142
H3    H     H_    0.779329 0.674166 0.196904 0.275937
P2    P     P_3+3 0.618830 0.715330 0.538180 0.518571
P3    P     P_3+3 0.091237 0.783994 0.418864 0.575310
O7    O     O_2   0.793170 0.729090 0.520590 -0.276830
O8    O     O_3   0.052800 0.667320 0.419180 -0.323466
O9    O     O_2   0.962936 0.826212 0.456041 -0.283592
O10   O     O_3   0.653733 0.743467 0.613942 -0.588582
O11   O     O_3   0.050650 0.817036 0.349484 -0.577690
C2    C     C_3   0.168963 0.807045 0.308834 0.640631
H4    H     H_    0.280249 0.808465 0.331487 0.061179
C3    C     C_3   0.171029 0.884736 0.270224 0.212272
H5    H     H_    0.054180 0.891997 0.255898 0.142284
C4    C     C_3   0.033275 0.746217 0.642717 0.977714
H6    H     H_    0.928271 0.705894 0.625624 -0.021861
C5    C     C_3   0.997133 0.810235 0.697776 -0.840295
H7    H     H_    0.096241 0.856766 0.713472 0.305249
H8    H     H_    0.902785 0.851261 0.688034 0.261358
H9    H     H_    0.963702 0.770408 0.733526 0.215358
Ba1   Ba    Ba6+2 0.846250 0.544220 0.470860 1.799635
C6    C     C_3   0.026821 0.228283 0.374453 0.827094
C7    C     C_3   0.025037 0.130511 0.332602 0.162509
H10   H     H_    0.912915 0.094678 0.332375 0.154938
H11   H     H_    0.093343 0.083086 0.352523 0.114363
C8    C     C_3   0.541933 0.704037 0.646183 0.037295
H12   H     H_    0.547819 0.629243 0.638659 0.104668
H13   H     H_    0.428644 0.722756 0.633615 0.178195
C9    C     C_3   0.576542 0.737314 0.711527 0.455222
H14   H     H_    0.697947 0.728970 0.719843 0.007164
P4    P     P_3+3 0.114710 0.579280 0.627920 0.525933
O12   O     O_2   0.287790 0.551560 0.637690 -0.353583
O13   O     O_3   0.047460 0.550640 0.566640 -0.382006
O14   O     O_3   0.544140 0.380990 0.608030 -0.429016
O15   O     O_3   0.149662 0.693852 0.655385 -0.573598
P5    P     P_3+3 0.092023 0.220131 0.591425 0.573359
O16   O     O_3   0.640350 0.387150 0.474440 -0.299859
O17   O     O_3   0.136890 0.332750 0.580830 -0.323105
O18   O     O_2   0.209772 0.166005 0.554883 -0.293971
O19   O     O_3   0.150393 0.210630 0.663755 -0.449081
Ba2   Ba    Ba6+2 0.343570 0.455860 0.529140 1.794558
P6    P     P_3+3 0.608997 0.592274 0.315705 0.570182
C10   C     C_3   0.726035 0.743172 0.283005 0.921224
H15   H     H_    0.648540 0.759427 0.194647 0.284921
O20   O     O_3   0.549340 0.612930 0.525560 -0.399731
C11   C     C_3   0.563489 0.269149 0.334525 0.779310
C12   C     C_3   0.571178 0.197505 0.275953 0.377021
H16   H     H_    0.487686 0.141012 0.280410 0.173286
P7    P     P_3+3 0.569543 0.268974 0.462274 0.705690
O21   O     O_2   0.396530 0.270940 0.479440 -0.262951
O22   O     O_3   0.589173 0.223476 0.385033 -0.522459
H17   H     H_    0.209587 0.948393 0.298416 0.132329
C13   C     C_3   0.026620 0.220186 0.700971 0.244108
H18   H     H_    0.989753 0.290493 0.705192 0.069214
H19   H     H_    0.932215 0.171514 0.683488 -0.057950
C14   C     C_3   0.067033 0.196261 0.761871 0.186378
H20   H     H_    0.962534 0.193792 0.787845 0.057106
H21   H     H_    0.111136 0.127886 0.757073 0.138578
P8    P     P_3+3 0.575800 0.414774 0.683489 0.549238
C15   C     C_3   0.614511 0.244254 0.676487 0.329873
H22   H     H_    0.732819 0.260914 0.664880 -0.095135
O23   O     O_2   0.430830 0.459594 0.704782 -0.271135
O24   O     O_3   0.565770 0.315682 0.717082 -0.447438
H23   H     H_    0.543603 0.233398 0.635469 0.122891
H24   H     H_    0.691325 0.110645 0.681232 0.074020
C16   C     C_3   0.607343 0.155164 0.702876 -0.057748
H25   H     H_    0.636991 0.168665 0.750771 0.170809
H26   H     H_    0.779833 0.379830 0.067816 0.205806
H27   H     H_    0.720865 0.375198 0.963425 0.176531
C17   C     C_R   0.319933 0.520859 0.334108 -0.266919
C18   C     C_R   0.175483 0.522899 0.930068 -0.274898
C19   C     C_R   0.122389 0.536978 0.872702 0.718271
O25   O     O_2   0.190008 0.592999 0.847144 -0.470131
N1    N     N_R   0.990051 0.492034 0.847143 -0.167352
C20   C     C_R   0.900378 0.441013 0.881801 0.635639
O26   O     O_2   0.793201 0.391942 0.859679 -0.580413
C21   C     C_R   0.933227 0.443095 0.942731 0.013500
C22   C     C_R   0.073345 0.481826 0.966490 -0.023895
C23   C     C_R   0.324203 0.551238 0.953178 0.352816
C24   C     C_R   0.360138 0.548936 0.013685 0.434382
C25   C     C_R   0.258076 0.503634 0.048533 -0.291690
C26   C     C_R   0.112671 0.476251 0.026336 -0.041878
C27   C     C_R   0.830281 0.404821 0.980174 -0.033815
C28   C     C_R   0.864314 0.407308 0.040303 -0.001413
C29   C     C_R   0.006505 0.442430 0.064165 -0.040682
C30   C     C_R   0.043686 0.446582 0.125275 0.544779
N2    N     N_R   0.192861 0.466513 0.146676 -0.175309
C31   C     C_R   0.299966 0.479511 0.104010 0.674720
C32   C     C_2   0.795562 0.496490 0.768836 -0.084172
C33   C     C_3   0.744600 0.496770 0.705154 0.135155
C34   C     C_1   0.009850 0.518043 0.681860 0.204027
C35   C     C_2   0.056924 0.511798 0.736868 -0.087096
C36   C     C_2   0.944121 0.499598 0.785284 0.037713
C37   C     C_R   0.388427 0.510351 0.231326 0.048415
C38   C     C_R   0.428316 0.530183 0.291954 0.302238
C39   C     C_R   0.178552 0.478990 0.317305 0.299440
C40   C     C_R   0.137101 0.458283 0.256523 -0.095914
C41   C     C_R   0.238560 0.477169 0.210824 0.083485
O27   O     O_2   0.941639 0.432398 0.158359 -0.525112
O28   O     O_2   0.430437 0.462487 0.111530 -0.515095
C42   C     C_2   0.874541 0.481950 0.663853 -0.480144
H28   H     H_    0.473219 0.532569 0.202599 0.192207
H29   H     H_    0.176697 0.513191 0.746078 0.243392
H30   H     H_    0.708936 0.497172 0.801425 0.239770
H31   H     H_    0.031044 0.419906 0.247332 0.230915
H32   H     H_    0.350658 0.538574 0.380388 0.129450
H33   H     H_    0.856121 0.445007 0.619746 0.156818
C43   C     C_R   0.675683 0.946469 0.544628 -0.148636
C44   C     C_R   0.510396 0.803541 0.506471 0.237794
C45   C     C_R   0.379048 0.769788 0.472945 -0.265808
C46   C     C_R   0.272027 0.828070 0.457303 0.243509
C47   C     C_R   0.298169 0.920688 0.473465 -0.160685
C48   C     C_R   0.441235 0.957330 0.494671 0.024298
C49   C     C_R   0.543643 0.901266 0.516809 -0.019864
H34   H     H_    0.354602 0.697324 0.462304 0.121774
C50   C     C_R   0.618595 0.092934 0.511186 -0.167037
C51   C     C_R   0.711752 0.041577 0.543809 0.096072
C52   C     C_R   0.659246 0.190023 0.511100 0.276400
C53   C     C_R   0.794539 0.227319 0.541414 -0.332166
C54   C     C_R   0.894445 0.173524 0.566690 0.194639
C55   C     C_R   0.847985 0.083010 0.570425 -0.261742
C56   C     C_R   0.494790 0.041722 0.479150 0.408576
H35   H     H_    0.216150 0.964947 0.460086 0.169445
H36   H     H_    0.921116 0.044553 0.593643 0.179249
H37   H     H_    0.830209 0.297642 0.540081 0.146576
H38   H     H_    0.748580 0.907770 0.567303 0.224863
N3    N     N_R   0.883117 0.236041 0.399405 0.154501
O29   O     O_R   0.838953 0.166642 0.424150 -0.505585
O30   O     O_R   0.857349 0.315306 0.426246 -0.388583
N4    N     N_R   0.128216 0.229733 0.425739 0.244654
O31   O     O_R   0.129885 0.300012 0.465886 -0.282665
O32   O     O_R   0.146818 0.153364 0.445060 -0.396791
S1    S     S_3+6 0.081927 0.115748 0.255527 0.100484
O33   O     O_2   0.239103 0.087075 0.252975 -0.216419
O34   O     O_2   0.984124 0.040070 0.221159 -0.215283
O35   O     O_3   0.074933 0.207966 0.221333 -0.438425
H39   H     H_    0.053811 0.184576 0.179183 0.400490
N5    N     N_R   0.488142 0.683028 0.748448 0.240053
O36   O     O_R   0.342375 0.685473 0.750844 -0.283459
O37   O     O_R   0.556822 0.632152 0.780074 -0.342214
S2    S     S_3+6 0.546864 0.855083 0.731680 0.073767
O38   O     O_2   0.381133 0.869164 0.732179 -0.206051
O39   O     O_2   0.612851 0.886290 0.792426 -0.190627
O40   O     O_3   0.631738 0.917215 0.684242 -0.535846
H40   H     H_    0.554593 0.919404 0.653005 0.382146
S3    S     S_3+6 0.705745 0.854703 0.317818 0.035748
O41   O     O_2   0.660376 0.849537 0.380257 -0.272586
O42   O     O_2   0.847120 0.915071 0.318183 -0.332956
O43   O     O_3   0.571734 0.898624 0.281021 -0.381696
H41   H     H_    0.619072 0.908960 0.243493 0.389364
S4    S     S_3+6 0.386838 0.301370 0.335695 -0.031598
O44   O     O_2   0.294841 0.216747 0.334012 -0.340043
O45   O     O_2   0.365530 0.364636 0.390922 -0.288953
O46   O     O_3   0.356817 0.345707 0.274887 -0.616608
H42   H     H_    0.272407 0.308402 0.254175 0.428101
N6    N     N_R   0.660283 0.351499 0.333849 0.215397
O47   O     O_R   0.729464 0.365760 0.286055 -0.311411
O48   O     O_R   0.633936 0.422285 0.371222 -0.311673
S5    S     S_3+6 0.538299 0.226312 0.201185 0.097201
O49   O     O_2   0.561988 0.325413 0.196284 -0.161138
O50   O     O_2   0.645908 0.177695 0.159771 -0.213963
O51   O     O_3   0.362792 0.191077 0.176301 -0.481175
H43   H     H_    0.371924 0.132197 0.151180 0.387803
N7    N     N_R   0.712928 0.158635 0.274353 0.215903
O52   O     O_R   0.716034 0.072502 0.255827 -0.294461
O53   O     O_R   0.827180 0.212741 0.266179 -0.335571
S6    S     S_3+6 0.202166 0.276594 0.802442 0.015350
O54   O     O_2   0.142257 0.307515 0.862335 -0.338219
O55   O     O_2   0.231271 0.357100 0.770811 -0.241681
O56   O     O_3   0.366064 0.229706 0.811088 -0.440147
H44   H     H_    0.346180 0.188485 0.840838 0.371464
N8    N     N_R   0.459078 0.106458 0.693018 0.301036
O57   O     O_R   0.408195 0.079875 0.639432 -0.376420
O58   O     O_R   0.393584 0.072611 0.736195 -0.281932
S7    S     S_3+6 0.138766 0.700857 0.264148 -0.053223
O59   O     O_2   0.293166 0.670525 0.255568 -0.326656
O60   O     O_2   0.045637 0.636263 0.295586 -0.329768
O61   O     O_3   0.061560 0.704969 0.197423 -0.514673
H45   H     H_    0.078572 0.645743 0.174008 0.377786
S8    S     S_3+6 0.514467 0.619282 0.049640 0.059279
O62   O     O_2   0.474013 0.653344 0.111892 -0.255290
O63   O     O_2   0.651010 0.565449 0.050933 -0.248374
O64   O     O_3   0.555229 0.709482 0.014822 -0.436491
H46   H     H_    0.644117 0.742169 0.036609 0.387120
S9    S     S_3+6 0.472308 0.571069 0.904350 0.094475
O65   O     O_2   0.472768 0.667494 0.892521 -0.093357
O66   O     O_2   0.624058 0.555479 0.929168 -0.280098
O67   O     O_3   0.441998 0.499816 0.841059 -0.436146
H47   H     H_    0.456830 0.438935 0.851700 0.382153
S10   S     S_3+6 0.480150 0.037064 0.401766 0.032773
O68   O     O_2   0.415544 0.947022 0.372223 -0.297103
O69   O     O_2   0.374650 0.103854 0.388695 -0.221537
O70   O     O_3   0.647287 0.054615 0.372117 -0.408446
H48   H     H_    0.715429 0.020985 0.394199 0.396931
S11   S     S_3+6 0.277951 0.874370 0.202559 0.106926
O71   O     O_2   0.374717 0.795524 0.196451 -0.191210
O72   O     O_2   0.168060 0.862649 0.151128 -0.198200
O73   O     O_3   0.391785 0.967490 0.198558 -0.460123
H49   H     H_    0.434710 0.957983 0.158661 0.374296
S12   S     S_3+6 0.109300 0.806732 0.588920 -0.025536
O74   O     O_2   0.265262 0.846510 0.607471 -0.334712
O75   O     O_2   0.116997 0.735439 0.536667 -0.315829
O76   O     O_3   0.003324 0.889287 0.574581 -0.568948
H50   H     H_    0.071953 0.930737 0.555507 0.368949

loop_
_geom_bond_atom_site_label_1
_geom_bond_atom_site_label_2
_geom_bond_distance
_ccdc_geom_bond_type
C23   C24   1.423632 A    
C10   S3    1.765446 S    
C52   C53   1.420622 A    
C6    N4    1.467590 S    
C4    S12   1.745201 S    
C8    C9    1.529954 S    
P5    C54   1.894483 S    
O70   H48   0.989071 S    
C3    S11   1.822606 S    
C2    H4    1.108150 S    
C1    C10   1.525289 S    
C44   C49   1.455662 A    
C12   S5    1.847437 S    
C48   C56   1.411694 A    
C12   H16   1.102849 S    
C54   C55   1.401984 A    
C18   C23   1.431850 A    
C32   C33   1.522083 S    
O2    Ba2   2.799087 S    
S2    O38   1.501657 D    
N3    O29   1.291035 A    
S5    O50   1.505477 D    
Ba1   Ba2   4.916178 S    
C21   C22   1.406864 A    
N8    O57   1.301261 A    
C5    H9    1.110150 S    
S11   O72   1.503445 D    
O17   Ba2   2.894587 S    
O16   P7    1.816728 S    
C29   C30   1.425717 A    
C43   C49   1.411703 A    
P3    O11   1.768313 S    
C6    N3    1.411538 S    
S8    O64   1.681388 S    
C40   H31   1.072586 S    
N6    O47   1.299306 A    
C2    C3    1.553926 S    
P1    O1    1.639577 D    
S2    O39   1.502341 D    
C6    C7    1.630165 S    
P2    Ba1   3.559115 S    
P7    O22   1.819423 S    
P8    O24   1.759228 S    
C43   H38   1.071651 S    
O51   H43   0.990246 S    
C15   C16   1.534931 S    
O12   Ba2   2.757727 S    
C47   H35   1.085002 S    
C4    O15   1.388957 S    
S8    O63   1.501972 D    
C8    H12   1.111392 S    
H24   C16   1.108669 S    
C13   H19   1.105108 S    
C45   C46   1.406909 A    
C35   C36   1.526736 S    
P8    C33   1.887480 S    
C11   S4    1.671954 S    
S1    O33   1.487651 D    
O43   H41   0.989045 S    
H27   C27   1.083380 S    
C20   O26   1.221258 D    
N8    O58   1.299704 A    
C15   H22   1.108879 S    
S9    O66   1.501414 D    
P2    O10   1.745890 S    
C4    H6    1.111907 S    
C7    H11   1.104037 S    
S10   O68   1.493000 D    
C9    N5    1.454542 S    
S5    O51   1.678549 S    
C1    H2    1.107922 S    
S3    O42   1.496368 D    
P2    O20   1.597210 S    
C20   C21   1.417559 A    
P5    O18   1.548148 D    
C55   H36   1.077553 S    
C31   O28   1.218614 D    
P6    C38   1.836250 S    
S5    O49   1.501572 D    
C33   C42   1.510951 S    
C3    H5    1.101617 S    
P7    O21   1.593500 D    
C37   C38   1.413996 A    
C1    H15   1.106390 S    
S7    O61   1.677411 S    
O13   Ba2   3.144182 S    
C39   C40   1.421256 A    
P3    C46   1.857116 S    
N7    O53   1.287627 A    
O8    Ba1   2.893682 S    
S6    O56   1.678832 S    
N5    O37   1.295694 A    
C11   O22   1.445903 S    
C21   C27   1.410266 A    
S11   O73   1.678828 S    
C30   O27   1.216542 D    
C16   H25   1.112086 S    
C17   C39   1.390374 A    
O64   H46   0.990605 S    
O56   H44   0.990522 S    
C23   S9    1.775534 S    
S3    O43   1.670563 S    
S6    O55   1.498709 D    
C22   C26   1.425102 A    
S1    O35   1.681550 S    
C2    S7    1.765724 S    
C27   C28   1.400922 A    
C32   H30   1.079235 S    
O73   H49   0.990602 S    
O67   H47   0.990548 S    
P4    O15   1.744897 S    
P5    O17   1.753994 S    
C16   N8    1.461231 S    
C5    H7    1.108295 S    
Ba2   O21   2.908134 S    
P1    O5    1.813615 S    
Ba1   O16   2.889448 S    
S8    O62   1.502238 D    
P1    O2    1.511772 S    
C14   H21   1.110060 S    
C7    S1    1.830661 S    
C13   C14   1.531517 S    
S7    O59   1.480614 D    
O76   H50   0.989538 S    
C9    H14   1.111296 S    
N2    C41   1.502961 S    
S7    O60   1.496513 D    
P4    C34   1.861879 S    
S4    O44   1.454771 D    
H1    C10   1.102101 S    
O16   Ba2   3.109898 S    
C15   H23   1.110727 S    
S9    O67   1.681249 S    
C9    S2    1.793351 S    
S10   O70   1.661981 S    
P1    Ba1   3.479788 S    
C48   C49   1.412364 A    
S4    O46   1.649717 S    
C50   C56   1.429462 A    
C30   N2    1.405555 Am   
O40   H40   0.989559 S    
C14   S6    1.792194 S    
C1    H3    1.109839 S    
P1    C39   1.845977 S    
S12   O74   1.502899 D    
S3    O41   1.502193 D    
N4    O32   1.299765 A    
C3    H17   1.103441 S    
C19   N1    1.393925 Am   
O5    C6    1.437185 S    
H26   C28   1.083411 S    
N1    C20   1.397255 Am   
C43   C51   1.438451 A    
P3    O8    1.754867 S    
O14   P8    1.744997 S    
O4    P6    1.551965 D    
S2    O40   1.680174 S    
C5    H8    1.109104 S    
O10   C8    1.394168 S    
O7    Ba1   2.907884 S    
C53   C54   1.407345 A    
C12   N7    1.420677 S    
P7    C52   1.935872 S    
N7    O52   1.299587 A    
C26   C29   1.406396 A    
C50   C52   1.471610 A    
N5    O36   1.300155 A    
N3    O30   1.291868 A    
C11   C12   1.600158 S    
C17   H32   1.082720 S    
Ba1   O13   2.798419 S    
C17   C38   1.387384 A    
C7    H10   1.098975 S    
C53   H37   1.081759 S    
O6    P6    1.745551 S    
P2    O7    1.613492 D    
C19   O25   1.218309 D    
O3    Ba1   2.905234 S    
C46   C47   1.384614 A    
P4    Ba2   3.480457 S    
C15   O24   1.409186 S    
O46   H42   0.979345 S    
C40   C41   1.436354 A    
C34   C35   1.339767 D    
O35   H39   0.990628 S    
P8    O23   1.544948 D    
C14   H20   1.111142 S    
C25   C31   1.419978 A    
S1    O34   1.501660 D    
S4    O45   1.491699 D    
O61   H45   0.990252 S    
O6    C10   1.396060 S    
S6    O54   1.501431 D    
C44   C45   1.412623 A    
O2    Ba1   3.143253 S    
O19   C13   1.403450 S    
Ba1   O20   3.110910 S    
S12   O76   1.666038 S    
Ba2   O20   2.888778 S    
N6    O48   1.300403 A    
C28   C29   1.408435 A    
N1    C36   1.490694 S    
C37   C41   1.438852 A    
C8    H13   1.107655 S    
C45   H34   1.082628 S    
C4    C5    1.524052 S    
C13   H18   1.112751 S    
C37   H28   1.073545 S    
N4    O31   1.294445 A    
C42   H33   1.086027 S    
O14   Ba2   2.904639 S    
C18   C19   1.437749 A    
P4    O12   1.639851 D    
C51   C55   1.412552 A    
C24   S8    1.788623 S    
O1    Ba1   2.757194 S    
C24   C25   1.416819 A    
P4    O13   1.511770 S    
C35   H29   1.080638 S    
S12   O75   1.492232 D    
S9    O65   1.502411 D    
P3    O9    1.547628 D    
O3    P6    1.757541 S    
N2    C31   1.397474 Am   
O11   C2    1.415519 S    
C47   C48   1.403010 A    
S10   O69   1.471360 D    
P2    C44   1.900194 S    
S11   O71   1.496231 D    
C11   N6    1.455642 S    
C25   C26   1.396197 A    
C56   S10   1.766781 S    
C18   C22   1.409437 A    
C32   C36   1.364085 D    
P5    O19   1.756747 S    
C50   C51   1.435483 A    
C34   C42   1.320983 D    
