data_mof_unit_49439.cif
_audit_creation_date              2013-03-05T15:48:12-0500
_audit_creation_method            fapswitch 2.2
_symmetry_space_group_name_H-M    P1
_symmetry_Int_Tables_number       1
_space_group_crystal_system       triclinic
_cell_length_a                    21.046735
_cell_length_b                    7.128959
_cell_length_c                    14.020539
_cell_angle_alpha                 90.007454
_cell_angle_beta                  98.609675
_cell_angle_gamma                 89.991465
_cell_volume                      2079.95411522

loop_
_atom_site_label
_atom_site_type_symbol
_atom_site_description
_atom_site_fract_x
_atom_site_fract_y
_atom_site_fract_z
_atom_type_partial_charge
O1    O     O_R   0.447130 0.507140 0.597350 -0.594252
O2    O     O_R   0.552870 0.007140 0.402650 -0.594176
O3    O     O_R   0.578910 0.181280 0.586990 -0.595781
O4    O     O_R   0.421090 0.681280 0.413010 -0.595997
C1    C     C_R   0.604482 0.344455 0.607406 0.990759
C2    C     C_R   0.395518 0.844463 0.392593 0.990992
O5    O     O_R   0.449230 0.177860 0.608640 -0.581529
O6    O     O_R   0.550770 0.677860 0.391360 -0.581797
O7    O     O_R   0.422260 0.000770 0.424450 -0.569165
O8    O     O_R   0.577740 0.500770 0.575550 -0.569288
C3    C     C_R   0.433056 0.346567 0.634387 1.039117
C4    C     C_R   0.566931 0.846525 0.365603 1.039319
O9    O     O_3   0.491310 0.336980 0.439550 -0.287385
O10   O     O_3   0.508690 0.836980 0.560450 -0.287250
V1    V     V_3+5 0.501610 0.064760 0.511210 1.235129
V2    V     V_3+5 0.498390 0.564760 0.488790 1.234861
C5    C     C_R   0.613566 0.932656 0.122509 0.344065
C6    C     C_R   0.386265 0.435128 0.877193 0.343935
H1    H     H_    0.527136 0.953440 0.186875 0.127370
H2    H     H_    0.472646 0.456227 0.812733 0.127470
H3    H     H_    0.693767 0.919574 0.991781 0.153797
H4    H     H_    0.306165 0.421361 0.008072 0.153753
C7    C     C_R   0.606565 0.858755 0.289177 -0.295570
C8    C     C_R   0.393413 0.359005 0.710809 -0.295841
C9    C     C_R   0.915185 0.868367 0.298256 -0.172237
C10   C     C_R   0.084790 0.367303 0.701718 -0.172167
C11   C     C_R   0.878531 0.885328 0.371748 -0.098618
C12   C     C_R   0.121435 0.383578 0.628180 -0.098830
C13   C     C_R   0.812080 0.888055 0.350658 -0.049951
C14   C     C_R   0.187886 0.386498 0.649252 -0.050033
C15   C     C_R   0.780033 0.864392 0.255233 0.095488
C16   C     C_R   0.219945 0.363781 0.744731 0.095696
C17   C     C_R   0.817241 0.863055 0.177743 0.047926
C18   C     C_R   0.182739 0.362947 0.822224 0.047920
C19   C     C_R   0.711529 0.857974 0.235347 -0.098488
C20   C     C_R   0.288450 0.357902 0.764642 -0.098356
C21   C     C_R   0.680736 0.898363 0.140468 0.053808
C22   C     C_R   0.319182 0.399549 0.859394 0.053864
C23   C     C_R   0.717302 0.900198 0.065155 -0.201000
C24   C     C_R   0.282636 0.401421 0.934733 -0.201060
C25   C     C_R   0.783680 0.870074 0.080992 0.198630
C26   C     C_R   0.216300 0.370562 0.918960 0.198757
C27   C     C_R   0.672412 0.815628 0.307014 0.278040
C28   C     C_R   0.327626 0.315090 0.693105 0.278108
C29   C     C_R   0.578078 0.921157 0.198724 -0.240324
C30   C     C_R   0.421775 0.423042 0.801019 -0.239793
C31   C     C_R   0.885986 0.861333 0.201946 -0.152125
C32   C     C_R   0.113997 0.361062 0.798037 -0.152124
H5    H     H_    0.967115 0.869158 0.316384 0.113485
H6    H     H_    0.032859 0.367905 0.683597 0.113491
H7    H     H_    0.786481 0.917588 0.410073 0.155251
H8    H     H_    0.213473 0.415482 0.589766 0.155230
H9    H     H_    0.901819 0.900841 0.445590 0.128473
H10   H     H_    0.098139 0.398409 0.554305 0.128464
C33   C     C_1   0.166653 0.857230 0.168129 -0.295838
C34   C     C_1   0.833348 0.357249 0.831869 -0.295778
C35   C     C_1   0.219071 0.854950 0.219194 0.069788
C36   C     C_1   0.780930 0.354960 0.780804 0.069889
C37   C     C_1   0.280798 0.853440 0.279273 0.076017
C38   C     C_1   0.719203 0.353432 0.720725 0.076188
C39   C     C_1   0.333137 0.851060 0.330567 -0.245952
C40   C     C_1   0.666863 0.351041 0.669431 -0.245907
O11   O     O_R   0.922300 0.202240 0.924350 -0.591405
O12   O     O_R   0.077700 0.702240 0.075650 -0.591461
O13   O     O_R   0.050780 0.535130 0.891350 -0.595651
O14   O     O_R   0.949220 0.035130 0.108650 -0.595689
C41   C     C_R   0.070097 0.368461 0.869246 0.950215
C42   C     C_R   0.929897 0.868508 0.130747 0.950198
O15   O     O_R   0.921100 0.531560 0.912990 -0.592220
O16   O     O_R   0.078900 0.031560 0.087010 -0.592181
O17   O     O_R   0.947120 0.708470 0.097370 -0.594351
O18   O     O_R   0.052880 0.208470 0.902630 -0.594340
C43   C     C_R   0.895866 0.363602 0.893499 0.965594
C44   C     C_R   0.104134 0.863594 0.106500 0.965653
O19   O     O_3   0.008710 0.375800 0.060400 -0.278228
O20   O     O_3   0.991290 0.875800 0.939600 -0.278195
V3    V     V_3+5 0.998380 0.648080 0.988790 1.164328
V4    V     V_3+5 0.001620 0.148080 0.011210 1.164344
C45   C     C_3   0.578869 0.985685 0.023956 -1.024938
H11   H     H_    0.582497 0.869654 0.972198 0.247083
H12   H     H_    0.526969 0.012880 0.024823 0.258006
H13   H     H_    0.600211 0.115375 0.998380 0.251929
C46   C     C_3   0.420812 0.490459 0.975482 -1.024984
H14   H     H_    0.398889 0.619575 0.000653 0.251842
H15   H     H_    0.417778 0.374875 0.027679 0.247351
H16   H     H_    0.472550 0.519700 0.974351 0.258084
N1    N     N_R   0.697120 0.708607 0.391614 0.219022
O21   O     O_R   0.686818 0.761608 0.476825 -0.425534
O22   O     O_R   0.729981 0.556369 0.383280 -0.400037
N2    N     N_R   0.303042 0.207076 0.608794 0.219096
O23   O     O_R   0.313256 0.259366 0.523440 -0.425615
O24   O     O_R   0.270316 0.054774 0.617527 -0.400049
C47   C     C_3   0.814846 0.846822 0.991548 -0.937792
H17   H     H_    0.779375 0.844721 0.924351 0.235579
H18   H     H_    0.847561 0.965120 0.983976 0.259118
H19   H     H_    0.839827 0.710178 0.994330 0.259971
C48   C     C_3   0.185180 0.347160 0.008433 -0.937912
H20   H     H_    0.220681 0.345199 0.075599 0.235602
H21   H     H_    0.152403 0.465315 0.016032 0.259221
H22   H     H_    0.160268 0.210415 0.005672 0.259877

loop_
_geom_bond_atom_site_label_1
_geom_bond_atom_site_label_2
_geom_bond_distance
_ccdc_geom_bond_type
O14   C42   1.307789 A    
N1    O21   1.301729 A    
C47   H17   1.111122 S    
C7    C29   1.392149 A    
C11   C13   1.385628 A    
O12   V3    1.952055 S    
O15   V3    1.986850 S    
O1    C3    1.309223 A    
O2    C4    1.309275 A    
C2    O7    1.297208 A    
C48   H20   1.111129 S    
O3    V1    1.987043 S    
C23   C25   1.397923 A    
O5    C3    1.315008 A    
C4    C7    1.455780 S    
C16   C20   1.427566 A    
C2    C39   1.462996 S    
C19   C21   1.419301 A    
C5    C29   1.394789 A    
C10   H6    1.084439 S    
C35   C37   1.438673 S    
O16   V4    1.986761 S    
C36   C38   1.438679 S    
C3    C8    1.455925 S    
C5    C45   1.511100 S    
C7    C27   1.404933 A    
C38   C40   1.222203 T    
C41   O18   1.304736 A    
O18   V4    2.039332 S    
C33   C44   1.462744 S    
C25   C47   1.508841 S    
O13   C41   1.307889 A    
C18   C26   1.433376 A    
O16   C44   1.321743 A    
C15   C17   1.431237 A    
O15   C43   1.321767 A    
C19   C27   1.423514 A    
C9    C31   1.398236 A    
C10   C32   1.398222 A    
C24   C26   1.397917 A    
C47   H18   1.103934 S    
C22   C24   1.396703 A    
C13   C15   1.415347 A    
C6    C30   1.394832 A    
C48   H21   1.103883 S    
O14   V4    2.045164 S    
C37   C39   1.222203 T    
O13   V3    2.044894 S    
O20   V3    1.761468 S    
O4    C2    1.295648 A    
C26   C48   1.508837 S    
C45   H12   1.111223 S    
C12   H10   1.082755 S    
O5    V1    2.044944 S    
O11   C43   1.322041 A    
C16   C18   1.431244 A    
O4    V2    1.986956 S    
N2    O24   1.301446 A    
C46   H14   1.110500 S    
H3    C23   1.081758 S    
O6    C4    1.314878 A    
H4    C24   1.081794 S    
C11   H9    1.082769 S    
C6    C46   1.511053 S    
O1    V2    2.035020 S    
C5    C21   1.419546 A    
O2    V1    2.034873 S    
O19   V3    2.181305 S    
C46   H15   1.110308 S    
C47   H19   1.104815 S    
C33   C35   1.222086 T    
C17   C31   1.435870 A    
C15   C19   1.427667 A    
C20   C28   1.423517 A    
C18   C32   1.435781 A    
C31   C42   1.459263 S    
O17   V3    2.039183 S    
C48   H22   1.104897 S    
C28   N2    1.440400 S    
C13   H7    1.078363 S    
C14   H8    1.078362 S    
C34   C43   1.462748 S    
O20   V4    2.181131 S    
O3    C1    1.295672 A    
C45   H13   1.110667 S    
H1    C29   1.084767 S    
C9    C11   1.381820 A    
C10   C12   1.381852 A    
C27   N1    1.440444 S    
C12   C14   1.385641 A    
C6    C22   1.419368 A    
C17   C25   1.433409 A    
C8    C30   1.392243 A    
C1    O8    1.297211 A    
C21   C23   1.396675 A    
O8    V2    1.966864 S    
C14   C16   1.415319 A    
N2    O23   1.301723 A    
C42   O17   1.304830 A    
C8    C28   1.404973 A    
C20   C22   1.419172 A    
C34   C36   1.222088 T    
C1    C40   1.463002 S    
C32   C41   1.459249 S    
O7    V1    1.966906 S    
O19   V4    1.761343 S    
C9    H5    1.084449 S    
C45   H11   1.110439 S    
C46   H16   1.111177 S    
O6    V2    2.045213 S    
O9    V2    1.761998 S    
N1    O22   1.301462 A    
O12   C44   1.322037 A    
O10   V1    1.762123 S    
H2    C30   1.084756 S    
O11   V4    1.952018 S    
