data_mof_unit_11457.cif
_audit_creation_date              2013-03-05T15:39:55-0500
_audit_creation_method            fapswitch 2.2
_symmetry_space_group_name_H-M    P1
_symmetry_Int_Tables_number       1
_space_group_crystal_system       monoclinic
_cell_length_a                    12.067302
_cell_length_b                    12.585372
_cell_length_c                    7.864978
_cell_angle_alpha                 90.0
_cell_angle_beta                  94.052122
_cell_angle_gamma                 90.0
_cell_volume                      1191.47993633

loop_
_atom_site_label
_atom_site_type_symbol
_atom_site_description
_atom_site_fract_x
_atom_site_fract_y
_atom_site_fract_z
_atom_type_partial_charge
O1    O     O_R   0.375700 0.885870 0.609240 -0.602453
O2    O     O_R   0.624300 0.114130 0.390760 -0.602453
O3    O     O_R   0.624300 0.885870 0.390760 -0.602453
O4    O     O_R   0.375700 0.114130 0.609240 -0.602453
O5    O     O_R   0.875700 0.385870 0.609240 -0.602453
O6    O     O_R   0.124300 0.614130 0.390760 -0.602453
O7    O     O_R   0.124300 0.385870 0.390760 -0.602453
O8    O     O_R   0.875700 0.614130 0.609240 -0.602453
O9    O     O_R   0.402280 0.885870 0.324040 -0.586660
O10   O     O_R   0.597720 0.114130 0.675960 -0.586660
O11   O     O_R   0.597720 0.885870 0.675960 -0.586660
O12   O     O_R   0.402280 0.114130 0.324040 -0.586660
O13   O     O_R   0.902280 0.385870 0.324040 -0.586660
O14   O     O_R   0.097720 0.614130 0.675960 -0.586660
O15   O     O_R   0.097720 0.385870 0.675960 -0.586660
O16   O     O_R   0.902280 0.614130 0.324040 -0.586660
C1    C     C_R   0.355608 0.851116 0.456836 0.862099
C2    C     C_R   0.644392 0.148884 0.543164 0.862099
C3    C     C_R   0.644392 0.851116 0.543164 0.862099
C4    C     C_R   0.355608 0.148884 0.456836 0.862099
C5    C     C_R   0.855608 0.351116 0.456836 0.862099
C6    C     C_R   0.144392 0.648884 0.543164 0.862099
C7    C     C_R   0.144392 0.351116 0.543164 0.862098
C8    C     C_R   0.855608 0.648884 0.456836 0.862099
Zn1   Zn    Zn3+2 0.482250 0.000000 0.690430 1.145780
Zn2   Zn    Zn3+2 0.517750 1.000000 0.309570 1.145780
Zn3   Zn    Zn3+2 0.982250 0.500000 0.690430 1.145780
Zn4   Zn    Zn3+2 0.017750 0.500000 0.309570 1.145780
C9    C     C_2   0.279095 0.233215 0.434072 -0.003162
C10   C     C_2   0.720905 0.766784 0.565928 -0.003162
C11   C     C_2   0.720905 0.233215 0.565928 -0.003162
C12   C     C_2   0.279095 0.766784 0.434072 -0.003162
C13   C     C_2   0.779095 0.733215 0.434072 -0.003162
C14   C     C_2   0.220905 0.266785 0.565928 -0.003162
C15   C     C_2   0.220905 0.733215 0.565928 -0.003162
C16   C     C_2   0.779095 0.266785 0.434072 -0.003162
N1    N     N_2   0.541470 1.000000 0.055820 0.028451
N2    N     N_2   0.458530 1.000000 0.944180 0.028451
N3    N     N_2   0.041470 0.500000 0.055820 0.028451
N4    N     N_2   0.958530 0.500000 0.944180 0.028451
N5    N     N_R   0.768942 0.779120 0.266457 0.228135
O17   O     O_R   0.854429 0.826990 0.209523 -0.297561
O18   O     O_R   0.688988 0.747279 0.158753 -0.279762
N6    N     N_R   0.231058 0.220880 0.733543 0.228135
O19   O     O_R   0.145571 0.173010 0.790477 -0.297561
O20   O     O_R   0.311012 0.252721 0.841246 -0.279762
N7    N     N_R   0.231058 0.779120 0.733543 0.228135
O21   O     O_R   0.145571 0.826990 0.790477 -0.297561
O22   O     O_R   0.311012 0.747279 0.841246 -0.279762
N8    N     N_R   0.768942 0.220880 0.266457 0.228135
O23   O     O_R   0.854429 0.173010 0.209523 -0.297561
O24   O     O_R   0.688988 0.252721 0.158753 -0.279762
N9    N     N_R   0.268942 0.279120 0.266457 0.228135
O25   O     O_R   0.354429 0.326990 0.209523 -0.297561
O26   O     O_R   0.188988 0.247279 0.158753 -0.279762
N10   N     N_R   0.731058 0.720880 0.733543 0.228135
O27   O     O_R   0.645571 0.673010 0.790477 -0.297561
O28   O     O_R   0.811012 0.752721 0.841246 -0.279762
N11   N     N_R   0.731058 0.279120 0.733543 0.228135
O29   O     O_R   0.645571 0.326990 0.790477 -0.297561
O30   O     O_R   0.811012 0.247279 0.841246 -0.279762
N12   N     N_R   0.268942 0.720880 0.266457 0.228135
O31   O     O_R   0.354429 0.673010 0.209523 -0.297561
O32   O     O_R   0.188988 0.752721 0.158753 -0.279762
I1    I     I_    0.703064 0.000000 0.984010 0.184497
I2    I     I_    0.296936 0.000000 0.015990 0.184496
I3    I     I_    0.203064 0.500000 0.984010 0.184497
I4    I     I_    0.796936 0.500000 0.015990 0.184496

loop_
_geom_bond_atom_site_label_1
_geom_bond_atom_site_label_2
_geom_bond_distance
_ccdc_geom_bond_type
O16   Zn4   2.010003 S    
N8    O24   1.301352 A    
O13   Zn4   2.010004 S    
O3    C3    1.282888 A    
N12   O31   1.301133 A    
O14   Zn3   2.010003 S    
O2    C2    1.282888 A    
N3    I3    2.068124 S    
N5    O17   1.301133 A    
O16   C8    1.297107 A    
O1    C1    1.282887 A    
N7    O21   1.301133 A    
Zn4   N3    2.036083 S    
Zn3   N4    2.036084 S    
C7    C14   1.409832 S    
C13   N5    1.436604 S    
O12   C4    1.297107 A    
O15   C7    1.297108 A    
N8    O23   1.301133 A    
O13   C5    1.297107 A    
N11   O29   1.301133 A    
O2    Zn2   2.002019 S    
Zn2   N1    2.036083 S    
N9    O25   1.301133 A    
N10   O27   1.301133 A    
O1    Zn1   2.002020 S    
C6    C15   1.409832 S    
N5    O18   1.301353 A    
O14   C6    1.297108 A    
N1    N2    1.283936 D    
C9    N9    1.436604 S    
O10   C2    1.297108 A    
O7    C7    1.282888 A    
O10   Zn1   2.010003 S    
O9    C1    1.297107 A    
O8    C8    1.282887 A    
N10   O28   1.301353 A    
O9    Zn2   2.010004 S    
O4    Zn1   2.002019 S    
C4    C9    1.409832 S    
N9    O26   1.301353 A    
O12   Zn2   2.010003 S    
O15   Zn3   2.010004 S    
Zn1   N2    2.036084 S    
N1    I1    2.068124 S    
N11   O30   1.301352 A    
C1    C12   1.409832 S    
O11   Zn1   2.010004 S    
C12   N12   1.436604 S    
O6    C6    1.282888 A    
C12   C15   1.360132 D    
N2    I2    2.068122 S    
C14   N6    1.436604 S    
N6    O19   1.301133 A    
N7    O22   1.301352 A    
N4    I4    2.068122 S    
C11   N11   1.436604 S    
N3    N4    1.283936 D    
C5    C16   1.409832 S    
O8    Zn3   2.002019 S    
C11   C16   1.360132 D    
O11   C3    1.297108 A    
N12   O32   1.301352 A    
C2    C11   1.409832 S    
C10   C13   1.360132 D    
C15   N7    1.436604 S    
O5    Zn3   2.002020 S    
C3    C10   1.409832 S    
C10   N10   1.436604 S    
C9    C14   1.360132 D    
O3    Zn2   2.002020 S    
O6    Zn4   2.002019 S    
O7    Zn4   2.002020 S    
C8    C13   1.409832 S    
C16   N8    1.436604 S    
N6    O20   1.301353 A    
O5    C5    1.282887 A    
O4    C4    1.282887 A    
