data_mof_unit_46702.cif
_audit_creation_date              2012-12-10T20:30:10-0500
_audit_creation_method            fapswitch 2.2
_symmetry_space_group_name_H-M    P1
_symmetry_Int_Tables_number       1
_space_group_crystal_system       triclinic
_cell_length_a                    9.848848
_cell_length_b                    10.683582
_cell_length_c                    13.017211
_cell_angle_alpha                 89.762016
_cell_angle_beta                  72.168102
_cell_angle_gamma                 89.493603
_cell_volume                      1303.83030945

loop_
_atom_site_label
_atom_site_type_symbol
_atom_type_description
_atom_site_fract_x
_atom_site_fract_y
_atom_site_fract_z
_atom_type_partial_charge
C1    C     C_R   0.500037 0.740104 0.498724 0.872099
C2    C     C_R   0.447636 0.387918 0.974457 0.064103
C3    C     C_R   0.488575 0.389029 0.860942 0.056598
C4    C     C_R   0.554575 0.410667 0.024393 0.073414
C5    C     C_R   0.698928 0.421407 0.960108 0.120587
C6    C     C_R   0.738182 0.384207 0.852729 -0.342288
C7    C     C_R   0.633003 0.360398 0.804016 0.205786
C8    C     C_R   0.520976 0.434621 0.134335 -0.307327
C9    C     C_R   0.762264 0.506869 0.111725 0.206457
C10   C     C_R   0.384326 0.422380 0.810280 -0.125891
C11   C     C_R   0.374389 0.938694 0.514220 0.056583
C12   C     C_R   0.424911 0.476089 0.700564 0.891383
C13   C     C_R   0.502549 0.872094 0.488024 -0.088729
C14   C     C_R   0.632622 0.934040 0.443161 -0.210260
C15   C     C_R   0.633849 0.063734 0.439934 -0.248954
C16   C     C_R   0.504977 0.129042 0.481802 -0.073505
C17   C     C_R   0.376060 0.066058 0.509478 0.078784
C18   C     C_3   0.249594 0.080934 0.607265 -0.465981
C19   C     C_3   0.246762 0.938791 0.613961 0.009083
C20   C     C_R   0.909876 0.597902 0.544025 0.215474
C21   C     C_R   0.949718 0.408840 0.448612 -0.182697
C22   C     C_R   0.094045 0.409405 0.447839 -0.138619
C23   C     C_R   0.502042 0.260298 0.495573 0.880436
C24   C     C_R   0.051687 0.596100 0.546351 0.223783
C25   C     C_3   0.006556 0.631329 0.662760 -0.532480
C26   C     C_3   0.854910 0.640456 0.658129 -0.505769
C27   C     C_R   0.577638 0.500280 0.295507 0.895414
C28   C     C_R   0.801041 0.470605 0.003416 -0.260857
C29   C     C_R   0.622805 0.481675 0.178732 -0.098951
C30   C     C_R   0.239638 0.409153 0.868259 -0.209945
C31   C     C_R   0.199669 0.375775 0.976649 -0.160838
C32   C     C_R   0.301296 0.371964 0.031384 -0.182519
H1    H     H_    0.734687 0.112215 0.411368 0.156679
H2    H     H_    0.276982 0.129037 0.673857 0.203747
H3    H     H_    0.912152 0.334144 0.408711 0.148412
H4    H     H_    0.165647 0.335316 0.407050 0.148328
H5    H     H_    0.022838 0.553961 0.715286 0.207149
H6    H     H_    0.049463 0.722243 0.677351 0.200908
H7    H     H_    0.781498 0.572984 0.711308 0.232580
H8    H     H_    0.813455 0.738166 0.664152 0.200256
H9    H     H_    0.908694 0.487407 0.951750 0.138561
H10   H     H_    0.413819 0.421169 0.186476 0.168887
H11   H     H_    0.157524 0.424768 0.830056 0.146144
H12   H     H_    0.088428 0.360230 0.019729 0.154042
N1    N     N_R   0.856940 0.500860 0.500710 -0.108264
N2    N     N_R   0.142580 0.500820 0.500710 -0.103444
O1    O     O_R   0.385310 0.683210 0.499990 -0.618618
O2    O     O_R   0.614650 0.683240 0.500000 -0.613777
O3    O     O_R   0.328390 0.499940 0.653610 -0.623110
O4    O     O_R   0.557730 0.499980 0.653620 -0.599649
O5    O     O_R   0.385350 0.316760 0.500000 -0.628156
O6    O     O_R   0.614690 0.316790 0.500010 -0.614400
O7    O     O_R   0.442270 0.500020 0.346380 -0.624965
O8    O     O_R   0.671610 0.500060 0.346390 -0.592165
Zn1   Zn    Zn3+2 0.346870 0.499980 0.499990 0.930540
Zn2   Zn    Zn3+2 0.653130 0.500020 0.500010 0.939247
N3    N     N_2   0.855651 0.583948 0.147979 -0.304700
H13   H     H_    0.903554 0.653729 0.094419 0.219922
C33   C     C_3   0.953082 0.521549 0.195420 -0.748453
H14   H     H_    0.930908 0.419714 0.207362 0.232499
H15   H     H_    0.064608 0.535040 0.143758 0.220884
H16   H     H_    0.943136 0.565183 0.274508 0.261088
H17   H     H_    0.156410 0.121459 0.587250 0.174428
N4    N     N_2   0.279288 0.890642 0.708523 -0.276441
H18   H     H_    0.314249 0.798920 0.700065 0.234417
C34   C     C_3   0.169671 0.911290 0.810482 -0.785140
H19   H     H_    0.206417 0.873388 0.877121 0.238183
H20   H     H_    0.069764 0.863165 0.811606 0.227774
H21   H     H_    0.147542 0.012809 0.825190 0.251748
H22   H     H_    0.151055 0.897220 0.600083 0.132862
H23   H     H_    0.849908 0.374039 0.806762 0.143754
H24   H     H_    0.262790 0.355135 0.117152 0.124207
N5    N     N_2   0.670914 0.294023 0.704591 -0.260885
H25   H     H_    0.777360 0.300203 0.660585 0.231335
C35   C     C_3   0.621107 0.166145 0.715314 -0.766672
H26   H     H_    0.663542 0.117188 0.637043 0.244201
H27   H     H_    0.659495 0.115026 0.775822 0.233069
H28   H     H_    0.502715 0.164152 0.739923 0.243117
H29   H     H_    0.732803 0.883074 0.415470 0.165501

loop_
_geom_bond_atom_site_label_1
_geom_bond_atom_site_label_2
_ccdc_geom_bond_type
C34   H20   S    
C27   C29   S    
N5    H25   S    
C4    C8    A    
C12   O3    A    
C23   O6    A    
C27   O8    A    
C7    N5    S    
C11   C19   S    
C8    C29   A    
C8    H10   S    
C3    C7    A    
C5    C6    A    
C18   H17   S    
N3    C33   S    
C34   H21   S    
C15   C16   A    
C28   H9    S    
C2    C32   A    
C18   C19   S    
C25   H5    S    
C20   C24   A    
N1    Zn2   S    
C16   C17   A    
N2    Zn1   S    
C9    N3    S    
C20   N1    A    
C9    C29   A    
C34   H19   S    
C33   H14   S    
C13   C14   A    
N5    C35   S    
C21   N1    A    
O7    Zn1   S    
C6    H23   S    
O8    Zn2   S    
C33   H15   S    
C31   H12   S    
C24   C25   S    
C32   H24   S    
C1    O1    A    
C25   C26   S    
O3    Zn1   S    
O4    Zn2   S    
N4    C34   S    
C2    C4    A    
C35   H26   S    
C25   H6    S    
C5    C28   A    
C18   H2    S    
C10   C30   A    
C23   O5    A    
C31   C32   A    
C19   N4    S    
C17   C18   S    
C14   H29   S    
C35   H27   S    
C10   C12   S    
C22   N2    A    
C16   C23   S    
C30   H11   S    
C1    C13   S    
O1    Zn1   S    
O2    Zn2   S    
C11   C17   A    
C33   H16   S    
C4    C5    A    
C12   O4    A    
C27   O7    A    
C1    O2    A    
C6    C7    A    
C21   H3    S    
C22   H4    S    
C24   N2    A    
N4    H18   S    
C2    C3    A    
C3    C10   A    
C11   C13   A    
C26   H8    S    
N3    H13   S    
C30   C31   A    
C20   C26   S    
O5    Zn1   S    
C26   H7    S    
C35   H28   S    
C14   C15   A    
C19   H22   S    
C21   C22   A    
C15   H1    S    
O6    Zn2   S    
C9    C28   A    
