data_mof_unit_62350.cif
_audit_creation_date              2012-12-10T20:08:41-0500
_audit_creation_method            fapswitch 2.2
_symmetry_space_group_name_H-M    P1
_symmetry_Int_Tables_number       1
_space_group_crystal_system       triclinic
_cell_length_a                    19.331252
_cell_length_b                    18.409853
_cell_length_c                    14.950347
_cell_angle_alpha                 89.826924
_cell_angle_beta                  90.105675
_cell_angle_gamma                 90.056875
_cell_volume                      5320.57591462

loop_
_atom_site_label
_atom_site_type_symbol
_atom_type_description
_atom_site_fract_x
_atom_site_fract_y
_atom_site_fract_z
_atom_type_partial_charge
C1    C     C_R   0.365618 0.499968 0.499762 0.883404
C2    C     C_R   0.634382 0.500032 0.500241 0.883396
C3    C     C_R   0.395678 0.576486 0.041177 -0.163602
C4    C     C_R   0.604322 0.423512 0.958823 -0.163606
C5    C     C_R   0.745569 0.434078 0.502767 -0.155202
C6    C     C_R   0.254432 0.565926 0.497307 -0.155216
C7    C     C_R   0.254389 0.433850 0.499122 -0.173123
C8    C     C_R   0.745608 0.566154 0.500908 -0.173128
C9    C     C_R   0.817204 0.434171 0.503294 -0.158503
C10   C     C_R   0.182798 0.565837 0.496819 -0.158531
C11   C     C_R   0.182754 0.433845 0.498713 -0.159456
C12   C     C_R   0.817241 0.566163 0.501355 -0.159468
C13   C     C_R   0.853145 0.500194 0.502282 0.104520
C14   C     C_R   0.146854 0.499816 0.497826 0.104515
C15   C     C_R   0.709468 0.500090 0.501265 -0.035470
C16   C     C_R   0.290531 0.499912 0.498766 -0.035463
C17   C     C_R   0.963636 0.544355 0.440161 -0.173809
C18   C     C_R   0.036364 0.455660 0.559959 -0.173809
C19   C     C_R   0.035269 0.544135 0.438878 -0.165244
C20   C     C_R   0.964731 0.455881 0.561243 -0.165248
C21   C     C_R   0.071745 0.499781 0.498769 0.100240
C22   C     C_R   0.928255 0.500234 0.501351 0.100245
C23   C     C_R   0.548481 0.725984 0.548356 -0.029561
C24   C     C_R   0.451482 0.274014 0.451705 -0.029563
C25   C     C_R   0.451479 0.726153 0.451775 -0.019602
C26   C     C_R   0.548558 0.273848 0.548165 -0.019597
C27   C     C_R   0.549673 0.802296 0.549494 0.070574
C28   C     C_R   0.450290 0.197703 0.450570 0.070587
C29   C     C_R   0.450331 0.802443 0.450557 0.071148
C30   C     C_R   0.549707 0.197558 0.549381 0.071160
C31   C     C_R   0.500016 0.841765 0.499998 -0.026850
C32   C     C_R   0.499985 0.158236 0.500004 -0.026864
C33   C     C_R   0.497849 0.500114 0.326802 0.934464
C34   C     C_R   0.502151 0.499886 0.673198 0.934460
C35   C     C_R   0.522722 0.962053 0.424668 -0.114223
C36   C     C_R   0.477281 0.037949 0.575334 -0.114212
C37   C     C_R   0.477284 0.961629 0.575328 -0.116529
C38   C     C_R   0.522717 0.038373 0.424673 -0.116524
C39   C     C_R   0.499994 0.077095 0.500005 0.156556
C40   C     C_R   0.500007 0.922906 0.499997 0.156549
C41   C     C_R   0.556357 0.462077 0.814863 0.080865
C42   C     C_R   0.443641 0.537920 0.185137 0.080853
C43   C     C_R   0.504229 0.499737 0.768516 -0.105664
C44   C     C_R   0.495771 0.500262 0.231484 -0.105663
C45   C     C_R   0.452667 0.538104 0.812453 -0.279507
C46   C     C_R   0.547334 0.461896 0.187547 -0.279504
C47   C     C_R   0.450661 0.538415 0.904636 0.126364
C48   C     C_R   0.549339 0.461585 0.095364 0.126364
C49   C     C_R   0.501301 0.499894 0.953268 0.041544
C50   C     C_R   0.498699 0.500105 0.046732 0.041544
C51   C     C_R   0.554566 0.461435 0.908544 0.076272
C52   C     C_R   0.445433 0.538563 0.091456 0.076275
C53   C     C_R   0.398375 0.576376 0.948552 -0.201860
C54   C     C_R   0.601625 0.423623 0.051448 -0.201862
H1    H     H_    0.540538 0.933410 0.365900 0.155609
H2    H     H_    0.459466 0.066592 0.634103 0.155600
H3    H     H_    0.459471 0.932655 0.634093 0.154591
H4    H     H_    0.540528 0.067348 0.365908 0.154579
H5    H     H_    0.413410 0.566907 0.774303 0.155773
H6    H     H_    0.586591 0.433094 0.225697 0.155771
H7    H     H_    0.359426 0.606049 0.911152 0.156115
H8    H     H_    0.640574 0.393950 0.088848 0.156115
H9    H     H_    0.354494 0.606891 0.072134 0.189888
H10   H     H_    0.645505 0.393107 0.927866 0.189886
H11   H     H_    0.718606 0.382466 0.503231 0.169595
H12   H     H_    0.281398 0.617538 0.496848 0.169601
H13   H     H_    0.281315 0.382273 0.499789 0.165658
H14   H     H_    0.718679 0.617730 0.500208 0.165669
H15   H     H_    0.844571 0.382842 0.503225 0.143932
H16   H     H_    0.155433 0.617168 0.496918 0.143934
H17   H     H_    0.155339 0.382485 0.498488 0.144665
H18   H     H_    0.844653 0.617524 0.501575 0.144659
H19   H     H_    0.935824 0.578133 0.392796 0.142511
H20   H     H_    0.064177 0.421880 0.607321 0.142516
H21   H     H_    0.062206 0.577813 0.390635 0.147398
H22   H     H_    0.937794 0.422202 0.609485 0.147392
H23   H     H_    0.586575 0.695639 0.586098 0.159723
H24   H     H_    0.413360 0.304358 0.414010 0.159709
H25   H     H_    0.413247 0.695980 0.414309 0.178725
H26   H     H_    0.586818 0.304021 0.585584 0.178697
N1    N     N_R   0.500000 0.689440 0.500000 -0.123649
N2    N     N_R   0.500000 0.310560 0.500000 -0.123636
O1    O     O_R   0.398180 0.560840 0.499980 -0.622611
O2    O     O_R   0.601820 0.439160 0.500020 -0.622633
O3    O     O_R   0.601820 0.560840 0.500020 -0.629231
O4    O     O_R   0.398180 0.439160 0.499980 -0.629250
O5    O     O_R   0.499980 0.560820 0.367840 -0.596529
O6    O     O_R   0.500020 0.439180 0.632160 -0.596504
O7    O     O_R   0.500020 0.560820 0.632160 -0.620553
O8    O     O_R   0.499980 0.439180 0.367840 -0.620529
Zn1   Zn    Zn3+2 0.500000 0.581210 0.500000 0.973226
Zn2   Zn    Zn3+2 0.500000 0.418790 0.500000 0.973236
I1    I     I_    0.639419 0.411894 0.742309 -0.381621
I2    I     I_    0.360575 0.588095 0.257691 -0.381621
I3    I     I_    0.628607 0.854183 0.624574 -0.324664
I4    I     I_    0.371306 0.145809 0.375583 -0.324658
I5    I     I_    0.371394 0.854436 0.375387 -0.306256
I6    I     I_    0.628694 0.145562 0.624460 -0.306265

loop_
_geom_bond_atom_site_label_1
_geom_bond_atom_site_label_2
_ccdc_geom_bond_type
C17   H19   S    
O5    Zn1   S    
C18   C21   A    
C27   I3    S    
O3    Zn1   S    
C47   C49   A    
C48   C54   A    
C14   C21   S    
C36   C37   A    
C19   C21   A    
C9    H15   S    
C37   C40   A    
C38   C39   A    
C11   C14   A    
C11   H17   S    
N2    Zn2   S    
C31   C40   S    
C20   H22   S    
C2    O3    A    
C32   C39   S    
C9    C13   A    
C24   N2    A    
C38   H4    S    
C2    O2    A    
C41   I1    S    
O6    Zn2   S    
C49   C51   A    
C50   C52   A    
C23   C27   A    
O7    Zn1   S    
C6    C16   A    
C47   C53   A    
C46   H6    S    
C48   C50   A    
C12   H18   S    
C26   N2    A    
C25   H25   S    
C25   N1    A    
C41   C43   A    
C42   C44   A    
C44   C46   A    
C45   C47   A    
C25   C29   A    
C46   C48   A    
C4    C51   A    
C27   C31   A    
C28   C32   A    
C35   C38   A    
C5    H11   S    
C10   C14   A    
C54   H8    S    
C35   H1    S    
C26   H26   S    
C7    C11   A    
C5    C9    A    
C36   H2    S    
O8    Zn2   S    
C8    C12   A    
C1    C16   S    
C34   O6    A    
C23   H23   S    
C2    C15   S    
C43   C45   A    
C10   H16   S    
C24   H24   S    
C7    C16   A    
C20   C22   A    
C8    H14   S    
C8    C15   A    
C53   H7    S    
C1    O4    A    
C4    H10   S    
C45   H5    S    
C23   N1    A    
C4    C54   A    
C42   I2    S    
C33   C44   S    
C36   C39   A    
C34   C43   S    
C24   C28   A    
C6    C10   A    
C3    C52   A    
C26   C30   A    
C3    H9    S    
C1    O1    A    
O1    Zn1   S    
C30   I6    S    
C17   C22   A    
C29   I5    S    
C28   I4    S    
C19   H21   S    
C35   C40   A    
C33   O5    A    
C34   O7    A    
C29   C31   A    
O4    Zn2   S    
C33   O8    A    
C30   C32   A    
C3    C53   A    
C17   C19   A    
C13   C22   S    
C18   C20   A    
C5    C15   A    
C7    H13   S    
N1    Zn1   S    
C6    H12   S    
C12   C13   A    
C18   H20   S    
C49   C50   A    
O2    Zn2   S    
C41   C51   A    
C37   H3    S    
C42   C52   A    
