data_mof_unit_18663.cif
_audit_creation_date              2012-10-26T20:42:31-0400
_audit_creation_method            fapswitch 2.2
_symmetry_space_group_name_H-M    P1
_symmetry_Int_Tables_number       1
_space_group_crystal_system       triclinic
_cell_length_a                    10.837876
_cell_length_b                    9.659572
_cell_length_c                    10.914006
_cell_angle_alpha                 89.999218
_cell_angle_beta                  93.734701
_cell_angle_gamma                 90.00117
_cell_volume                      1140.15259563

loop_
_atom_site_label
_atom_site_type_symbol
_atom_type_description
_atom_site_fract_x
_atom_site_fract_y
_atom_site_fract_z
_atom_type_partial_charge
C1    C     C_R   0.262577 0.499728 0.501683 0.513589
C2    C     C_R   0.936009 0.372848 0.499380 -0.146228
C3    C     C_R   0.871460 0.498750 0.497486 0.018116
C4    C     C_R   0.128540 0.498749 0.502512 0.018111
C5    C     C_R   0.936250 0.623871 0.496553 -0.143622
C6    C     C_R   0.063754 0.623870 0.503422 -0.143616
C7    C     C_R   0.448248 0.073821 0.401081 0.330116
C8    C     C_R   0.551752 0.073821 0.598919 0.330121
C9    C     C_R   0.445635 0.925606 0.402663 0.333009
C10   C     C_R   0.554369 0.925608 0.597335 0.333002
C11   C     C_3   0.292408 0.184029 0.281748 0.026905
C12   C     C_R   0.737423 0.499730 0.498318 0.513601
C13   C     C_3   0.239370 0.169613 0.149236 -0.401829
C14   C     C_3   0.707582 0.184049 0.718256 0.026944
C15   C     C_3   0.760634 0.169605 0.850763 -0.401794
C16   C     C_3   0.270180 0.836867 0.301998 0.022166
C17   C     C_3   0.227597 0.713176 0.223502 -0.352824
C18   C     C_3   0.729835 0.836863 0.697958 0.022159
C19   C     C_3   0.772435 0.713224 0.776510 -0.352834
C20   C     C_R   0.499410 0.500058 0.265609 0.535877
C21   C     C_R   0.500591 0.500056 0.734391 0.535878
C22   C     C_2   0.494887 0.387069 0.932842 -0.180479
C23   C     C_2   0.505094 0.387068 0.067159 -0.180471
C24   C     C_2   0.507603 0.502490 0.866982 -0.131998
C25   C     C_2   0.492399 0.502493 0.133018 -0.132000
C26   C     C_R   0.063987 0.372847 0.500634 -0.146234
Cu1   Cu    Cu3+1 0.500000 0.640660 0.500000 1.004363
Cu2   Cu    Cu3+1 0.500000 0.359340 0.500000 0.975909
H1    H     H_    0.479708 0.287807 0.887717 0.201130
H2    H     H_    0.232473 0.129950 0.345728 0.070884
H3    H     H_    0.137047 0.178454 0.145749 0.091242
H4    H     H_    0.275767 0.253078 0.091750 0.146609
H5    H     H_    0.265175 0.068915 0.109217 0.177966
H6    H     H_    0.712571 0.295532 0.698116 0.179543
H7    H     H_    0.767519 0.130008 0.654258 0.070892
H8    H     H_    0.734974 0.068826 0.890721 0.177898
H9    H     H_    0.862951 0.178641 0.854267 0.091227
H10   H     H_    0.724116 0.252949 0.908299 0.146683
H11   H     H_    0.220048 0.925930 0.261363 0.112438
H12   H     H_    0.520253 0.287805 0.112285 0.201149
H13   H     H_    0.239964 0.824948 0.396245 0.117862
H14   H     H_    0.264596 0.615185 0.263163 0.158863
H15   H     H_    0.125061 0.706887 0.218578 0.086350
H16   H     H_    0.258438 0.725024 0.129002 0.146148
H17   H     H_    0.779990 0.925952 0.738510 0.112363
H18   H     H_    0.760013 0.824878 0.603708 0.117942
H19   H     H_    0.874969 0.706938 0.781413 0.086362
H20   H     H_    0.741616 0.725135 0.871013 0.146168
H21   H     H_    0.735423 0.615208 0.736909 0.158829
H22   H     H_    0.527433 0.602018 0.909376 0.123962
H23   H     H_    0.472588 0.602024 0.090622 0.123958
H24   H     H_    0.111971 0.274518 0.500738 0.116531
H25   H     H_    0.888023 0.274519 0.499290 0.116527
H26   H     H_    0.889344 0.722201 0.490352 0.110583
H27   H     H_    0.110664 0.722201 0.509605 0.110603
H28   H     H_    0.287402 0.295503 0.301914 0.179552
N1    N     N_R   0.500000 0.852070 0.500000 -0.275341
N2    N     N_R   0.500000 0.147940 0.500000 -0.276243
O1    O     O_R   0.319640 0.618740 0.499990 -0.512429
O2    O     O_3   0.582747 0.139391 0.709709 -0.523016
O3    O     O_3   0.399510 0.855728 0.298550 -0.504306
O4    O     O_3   0.600510 0.855732 0.701441 -0.504304
O5    O     O_R   0.680360 0.618740 0.500010 -0.512447
O6    O     O_R   0.319620 0.381170 0.499990 -0.529160
O7    O     O_R   0.680380 0.381170 0.500010 -0.529159
O8    O     O_R   0.500000 0.618750 0.321940 -0.445130
O9    O     O_R   0.500000 0.618750 0.678060 -0.445128
O10   O     O_R   0.499970 0.381180 0.321940 -0.463245
O11   O     O_R   0.500030 0.381180 0.678060 -0.463261
O12   O     O_3   0.417248 0.139395 0.290294 -0.523033

loop_
_geom_bond_atom_site_label_1
_geom_bond_atom_site_label_2
_ccdc_geom_bond_type
C14   H6    S    
C4    C26   A    
C25   H23   S    
C15   H10   S    
C13   H5    S    
C22   H1    S    
C26   H24   S    
C14   O2    S    
C12   O7    A    
C19   H21   S    
C7    N2    A    
C9    N1    A    
Cu2   O11   S    
C6    H27   S    
C1    C4    S    
C7    O12   S    
C1    O1    A    
C2    C3    A    
C11   O12   S    
C18   H17   S    
C2    C26   A    
Cu1   O8    S    
Cu1   O1    S    
C21   O9    A    
Cu1   N1    S    
C11   C13   S    
C17   H14   S    
C10   O4    S    
Cu1   O5    S    
C9    O3    S    
Cu2   O6    S    
C8    C10   A    
Cu2   O10   S    
C20   O10   A    
Cu2   O7    S    
Cu2   N2    S    
C23   C25   D    
C24   H22   S    
C5    C6    A    
C22   C24   D    
C17   H16   S    
C8    O2    S    
Cu1   O9    S    
C16   O3    S    
C21   C24   S    
C16   H11   S    
C23   H12   S    
C1    O6    A    
C18   H18   S    
C5    H26   S    
C14   H7    S    
C10   N1    A    
C17   H15   S    
C4    C6    A    
C18   C19   S    
C20   C25   S    
C19   H19   S    
C20   O8    A    
Cu1   Cu2   S    
C7    C9    A    
C12   O5    A    
C14   C15   S    
C15   H9    S    
C3    C12   S    
C13   H4    S    
C8    N2    A    
C15   H8    S    
C19   H20   S    
C16   H13   S    
C13   H3    S    
C22   C23   S    
C18   O4    S    
C11   H28   S    
C11   H2    S    
C21   O11   A    
C16   C17   S    
C3    C5    A    
C2    H25   S    
