data_mof_unit_51694.cif
_audit_creation_date              2013-03-05T15:42:39-0500
_audit_creation_method            fapswitch 2.2
_symmetry_space_group_name_H-M    P1
_symmetry_Int_Tables_number       1
_space_group_crystal_system       triclinic
_cell_length_a                    8.640891
_cell_length_b                    15.598353
_cell_length_c                    18.81862
_cell_angle_alpha                 98.013132
_cell_angle_beta                  92.833994
_cell_angle_gamma                 99.957019
_cell_volume                      2466.80221799

loop_
_atom_site_label
_atom_site_type_symbol
_atom_site_description
_atom_site_fract_x
_atom_site_fract_y
_atom_site_fract_z
_atom_type_partial_charge
P1    P     P_3+3 0.032340 0.422550 0.338860 0.605204
O1    O     O_2   0.864880 0.449170 0.328210 -0.313050
O2    O     O_3   0.117570 0.450680 0.415600 -0.401018
O3    O     O_3   0.658480 0.614010 0.372860 -0.348495
O4    O     O_2   0.666560 0.512019 0.251052 -0.254626
O5    O     O_3   0.980797 0.309191 0.311877 -0.440364
O6    O     O_3   0.733722 0.680677 0.244394 -0.528262
C1    C     C_3   0.687113 0.772247 0.156129 0.043204
H1    H     H_    0.814859 0.784692 0.148797 0.206911
H2    H     H_    0.632886 0.713409 0.117032 0.055875
P2    P     P_3+3 0.682000 0.708060 0.557320 0.663816
P3    P     P_3+3 0.150435 0.772119 0.409652 0.614326
O7    O     O_2   0.856970 0.721200 0.536350 -0.332349
O8    O     O_3   0.083060 0.660780 0.408640 -0.390877
O9    O     O_2   0.047045 0.820151 0.460742 -0.213300
O10   O     O_3   0.700286 0.737713 0.651066 -0.509528
O11   O     O_3   0.099796 0.793982 0.323716 -0.433194
C2    C     C_3   0.194354 0.752942 0.276175 0.142356
H3    H     H_    0.185325 0.682938 0.282857 -0.011736
H4    H     H_    0.318469 0.787706 0.286439 0.025389
C3    C     C_3   0.140681 0.754308 0.198054 1.306220
C4    C     C_3   0.316731 0.732434 0.724055 0.952683
H5    H     H_    0.379095 0.685657 0.747796 0.135523
C5    C     C_3   0.241111 0.783729 0.783721 0.051418
H6    H     H_    0.143389 0.738790 0.802618 0.065702
H7    H     H_    0.194110 0.837926 0.762626 0.172369
Ba1   Ba    Ba6+2 0.852920 0.542430 0.466290 1.839519
C6    C     C_3   0.885126 0.273689 0.361216 0.326870
H8    H     H_    0.774937 0.299875 0.361698 0.097559
H9    H     H_    0.950177 0.296120 0.412764 0.128651
C7    C     C_3   0.849270 0.172339 0.346279 0.553211
H10   H     H_    0.726384 0.147289 0.356691 0.013724
H11   H     H_    0.923591 0.143262 0.382256 0.071044
C8    C     C_3   0.757406 0.673976 0.684894 0.928167
H12   H     H_    0.861670 0.654404 0.659341 -0.166224
C9    C     C_3   0.804894 0.712164 0.763499 1.212787
H13   H     H_    0.873757 0.669102 0.788570 -0.160303
P4    P     P_3+3 0.157370 0.577530 0.661150 0.553848
O12   O     O_2   0.324830 0.550860 0.671840 -0.285409
O13   O     O_3   0.072140 0.549400 0.584410 -0.297822
O14   O     O_3   0.531230 0.386060 0.627150 -0.239682
O15   O     O_3   0.201046 0.693101 0.667790 -0.644294
P5    P     P_3+3 0.037231 0.222496 0.566227 0.616056
O16   O     O_3   0.606300 0.390910 0.463140 -0.242686
O17   O     O_3   0.106650 0.339290 0.591370 -0.316359
O18   O     O_2   0.066311 0.229340 0.488155 -0.325320
O19   O     O_3   0.179323 0.156036 0.572430 -0.522763
Ba2   Ba    Ba6+2 0.336920 0.457650 0.533720 1.806211
P6    P     P_3+3 0.608970 0.597897 0.280014 0.575487
C10   C     C_3   0.658955 0.752312 0.232921 0.907373
H14   H     H_    0.530236 0.738472 0.237150 -0.257893
O20   O     O_3   0.583420 0.609160 0.536870 -0.344331
C11   C     C_3   0.442583 0.269962 0.286610 1.067966
C12   C     C_3   0.545549 0.259960 0.219630 0.859511
P7    P     P_3+3 0.502168 0.276316 0.436244 0.680307
O21   O     O_2   0.332740 0.278830 0.463690 -0.268164
O22   O     O_3   0.501191 0.230110 0.342970 -0.648209
H15   H     H_    0.232317 0.735680 0.162775 -0.098143
C13   C     C_3   0.225766 0.149468 0.643834 0.692904
H16   H     H_    0.252428 0.215351 0.677679 -0.020404
C14   C     C_3   0.376378 0.109959 0.639484 0.373042
H17   H     H_    0.357589 0.051358 0.597103 0.146043
H18   H     H_    0.473931 0.158959 0.624783 -0.027705
P8    P     P_3+3 0.567413 0.410018 0.723766 0.618008
C15   C     C_3   0.609345 0.269178 0.776500 0.037782
H19   H     H_    0.721417 0.311364 0.799960 0.095829
O23   O     O_2   0.460341 0.474675 0.751913 -0.265044
O24   O     O_3   0.489795 0.316452 0.761408 -0.537217
H20   H     H_    0.634333 0.229843 0.726091 0.124137
H21   H     H_    0.626208 0.154131 0.827010 0.143572
C16   C     C_3   0.553684 0.206601 0.829619 0.218841
H22   H     H_    0.428489 0.175522 0.815768 0.199770
N1    N     N_R   0.184574 0.560699 0.960614 0.019774
N2    N     N_R   0.232336 0.562746 0.029631 -0.055415
C17   C     C_2   0.295412 0.516807 0.297239 -0.170471
C18   C     C_3   0.389258 0.585443 0.259428 0.039237
C19   C     C_2   0.334565 0.576221 0.180356 -0.293043
C20   C     C_2   0.189552 0.530383 0.154603 0.052561
C21   C     C_2   0.090711 0.482333 0.206179 -0.101791
C22   C     C_1   0.148711 0.479769 0.273106 0.249278
N3    N     N_R   0.982817 0.491276 0.050832 -0.012063
N4    N     N_R   0.934905 0.489546 0.981736 -0.027324
C23   C     C_R   0.034442 0.524074 0.934627 0.276939
C24   C     C_R   0.133218 0.527780 0.076592 0.186138
C25   C     C_R   0.087097 0.544924 0.803765 0.597069
C26   C     C_R   0.038192 0.528645 0.729190 -0.166001
C27   C     C_R   0.777253 0.461918 0.756489 0.128281
C28   C     C_R   0.823542 0.482040 0.830675 -0.379176
C29   C     C_R   0.981764 0.517653 0.855605 -0.103815
C30   C     C_R   0.890552 0.478514 0.706275 0.070888
H23   H     H_    0.409724 0.611836 0.145705 0.139783
H24   H     H_    0.973699 0.446005 0.187452 0.188043
H25   H     H_    0.737116 0.465796 0.868606 0.202867
H26   H     H_    0.345415 0.505820 0.348529 0.151366
C31   C     C_R   0.729723 0.214943 0.508764 0.339565
C32   C     C_R   0.827876 0.164225 0.534355 -0.057931
C33   C     C_R   0.778050 0.072278 0.518886 0.690674
C34   C     C_R   0.619672 0.033499 0.490433 -0.298905
C35   C     C_R   0.516889 0.093966 0.470378 0.216754
C36   C     C_R   0.578954 0.187052 0.480249 -0.053170
C37   C     C_R   0.446962 0.885915 0.431347 -0.151463
C38   C     C_R   0.362276 0.804118 0.439696 0.106849
C39   C     C_R   0.582104 0.784301 0.513980 0.125440
C40   C     C_R   0.636412 0.876936 0.525412 0.768184
C41   C     C_R   0.568999 0.931905 0.482155 0.029387
C42   C     C_R   0.436522 0.750165 0.476494 -0.465267
H27   H     H_    0.410222 0.912440 0.386259 0.240371
H28   H     H_    0.379170 0.682996 0.477636 0.174545
S1    S     S_3+6 0.739149 0.846000 0.299249 0.048325
O25   O     O_2   0.626621 0.909455 0.305107 -0.275871
O26   O     O_2   0.763361 0.816147 0.370773 -0.289863
O27   O     O_3   0.911222 0.898728 0.276186 -0.411811
H29   H     H_    0.933672 0.955221 0.309466 0.400774
S2    S     S_3+6 0.378059 0.829193 0.859360 0.136970
O28   O     O_2   0.520044 0.885142 0.835518 -0.132951
O29   O     O_2   0.300417 0.885041 0.913157 -0.151541
O30   O     O_3   0.432639 0.746833 0.897735 -0.431838
H30   H     H_    0.541000 0.770251 0.919477 0.418118
F1    F     F_    0.875044 0.140807 0.276549 -0.521187
F2    F     F_    0.639107 0.601979 0.682789 -0.679374
F3    F     F_    0.894184 0.795637 0.768504 -0.692286
F4    F     F_    0.672356 0.717480 0.800713 -0.637834
S3    S     S_3+6 0.609455 0.865013 0.132807 0.097736
O31   O     O_2   0.731439 0.947130 0.153781 -0.084429
O32   O     O_2   0.570925 0.851626 0.052900 -0.220892
O33   O     O_3   0.445726 0.876567 0.174697 -0.501910
H31   H     H_    0.409935 0.927262 0.156950 0.442904
S4    S     S_3+6 0.245974 0.214403 0.262087 0.093563
O34   O     O_2   0.236362 0.121491 0.225696 -0.195020
O35   O     O_2   0.171497 0.210778 0.331369 -0.235935
O36   O     O_3   0.152787 0.270064 0.208395 -0.482477
H32   H     H_    0.064551 0.226159 0.182286 0.432114
F5    F     F_    0.443559 0.358181 0.309909 -0.698862
S5    S     S_3+6 0.568115 0.148014 0.185831 0.131464
O37   O     O_2   0.558641 0.091904 0.244611 -0.181561
O38   O     O_2   0.444317 0.104227 0.126893 -0.183265
O39   O     O_3   0.744425 0.151055 0.151241 -0.370911
H33   H     H_    0.735582 0.178400 0.107008 0.388073
S6    S     S_3+6 0.481149 0.307755 0.144003 0.094249
O40   O     O_2   0.618797 0.326941 0.099232 -0.213727
O41   O     O_2   0.348617 0.247038 0.097920 -0.173714
O42   O     O_3   0.420507 0.401893 0.171192 -0.500849
H34   H     H_    0.426759 0.431756 0.128063 0.373389
F6    F     F_    0.694311 0.306668 0.240990 -0.669632
S7    S     S_3+6 0.079440 0.077297 0.683338 0.091868
O43   O     O_2   0.131869 0.078893 0.760966 -0.224456
O44   O     O_2   0.922534 0.106200 0.679948 -0.294664
O45   O     O_3   0.061928 0.974105 0.639378 -0.389121
H35   H     H_    0.013211 0.935558 0.672900 0.415394
F7    F     F_    0.420081 0.082823 0.702978 -0.660400
S8    S     S_3+6 0.569612 0.261510 0.920096 0.073487
O46   O     O_2   0.525526 0.193725 0.968502 -0.125495
O47   O     O_2   0.736116 0.308089 0.941323 -0.283423
O48   O     O_3   0.446145 0.334056 0.929211 -0.443741
H36   H     H_    0.496097 0.384435 0.906568 0.352331
F8    F     F_    0.237216 0.585058 0.825251 -0.661889
S9    S     S_3+6 0.834728 0.429705 0.616399 0.082928
O49   O     O_2   0.724801 0.485328 0.590797 -0.181775
O50   O     O_2   0.932471 0.418307 0.554604 -0.121420
O51   O     O_3   0.761559 0.325971 0.628892 -0.568287
H37   H     H_    0.841175 0.309120 0.661351 0.280847
F9    F     F_    0.890754 0.022096 0.521703 -0.542680
F10   F     F_    0.744264 0.911215 0.581230 -0.585462
S10   S     S_3+6 0.320589 0.055823 0.428992 0.030050
O52   O     O_2   0.233930 0.984097 0.465203 -0.262500
O53   O     O_2   0.221592 0.123979 0.433299 -0.160532
O54   O     O_3   0.328612 0.022655 0.340395 -0.450478
H38   H     H_    0.222441 0.988490 0.323762 0.402835
F11   F     F_    0.793771 0.292814 0.497078 -0.663978
F12   F     F_    0.004095 0.693498 0.178054 -0.729369
F13   F     F_    0.116861 0.837275 0.188041 -0.622703
F14   F     F_    0.428462 0.790761 0.696323 -0.619911

loop_
_geom_bond_atom_site_label_1
_geom_bond_atom_site_label_2
_geom_bond_distance
_ccdc_geom_bond_type
Ba1   Ba2   4.765021 S    
C37   H27   1.052907 S    
C12   F6    1.374088 S    
P7    O21   1.581337 D    
C5    S2    1.786376 S    
O33   H31   0.990177 S    
C2    C3    1.523672 S    
S6    O41   1.502750 D    
N1    N2    1.337580 A    
C31   C32   1.369297 A    
C27   C28   1.409521 A    
S4    O34   1.500782 D    
N3    C24   1.361250 A    
S5    O39   1.681854 S    
S7    O43   1.503490 D    
S3    O31   1.502831 D    
C19   C20   1.360046 D    
S10   O53   1.471685 D    
C37   C38   1.390122 A    
C34   C41   1.552981 S    
P4    C26   1.847279 S    
P8    O24   1.754532 S    
C6    H8    1.098997 S    
C5    H7    1.110662 S    
C8    H12   1.110466 S    
Ba2   O20   2.886730 S    
S1    O26   1.500958 D    
P4    O12   1.584319 D    
S6    O42   1.666030 S    
S3    O32   1.501536 D    
C3    F12   1.379755 S    
C12   S5    1.819903 S    
O2    Ba2   2.826681 S    
C33   F9    1.354244 S    
Ba2   O21   2.907554 S    
P1    O1    1.583891 D    
S8    O48   1.682145 S    
C14   H18   1.109276 S    
O27   H29   0.990651 S    
P2    O20   1.612818 S    
O10   C8    1.397276 S    
Ba1   O16   2.887458 S    
S9    O49   1.497817 D    
O5    C6    1.383145 S    
C7    H10   1.103181 S    
C11   C12   1.583914 S    
C1    H1    1.106167 S    
P7    C36   1.910845 S    
S8    O46   1.502139 D    
C7    H11   1.104462 S    
C38   C42   1.380087 A    
H21   C16   1.110946 S    
O8    Ba1   2.835790 S    
C14   F7    1.378818 S    
P8    C27   1.888189 S    
P4    Ba2   3.431523 S    
C13   H16   1.111744 S    
S9    O50   1.479422 D    
C8    F2    1.376331 S    
O4    P6    1.546896 D    
C40   F10   1.353550 S    
C12   S6    1.803315 S    
C40   C41   1.434419 A    
S7    O44   1.502131 D    
C33   C34   1.440983 A    
S10   O54   1.683914 S    
C37   C41   1.410054 A    
C23   C29   1.518023 S    
C16   S8    1.783548 S    
C13   C14   1.534282 S    
O42   H34   0.989780 S    
P1    O5    1.742913 S    
P8    O23   1.541407 D    
C11   F5    1.383221 S    
C5    H6    1.106953 S    
O6    P6    1.763536 S    
C26   C30   1.389797 A    
S1    O27   1.678101 S    
O54   H38   0.989771 S    
C25   C29   1.425021 A    
C31   C36   1.358038 A    
C2    H3    1.106353 S    
S3    O33   1.677595 S    
S5    O38   1.503265 D    
C10   H14   1.104780 S    
C25   C26   1.420394 A    
C10   S1    1.797091 S    
N3    N4    1.340159 A    
C21   C22   1.340743 D    
P1    O2    1.557838 S    
C25   F8    1.354531 S    
P3    O11   1.748857 S    
C9    F4    1.380171 S    
C17   C18   1.509732 S    
P3    C38   1.850006 S    
S10   O52   1.500044 D    
C11   S4    1.775384 S    
P5    C32   1.905395 S    
P2    O10   1.752382 S    
C35   C36   1.440843 A    
P3    O9    1.548994 D    
P2    Ba1   3.482292 S    
Ba1   O13   2.825978 S    
C15   O24   1.408669 S    
C32   C33   1.408815 A    
O11   C2    1.404033 S    
C21   H24   1.085610 S    
P6    C18   1.889684 S    
C18   C19   1.518398 S    
C31   F11   1.297729 S    
C7    F1    1.378500 S    
O48   H36   0.989772 S    
O1    Ba1   2.811332 S    
C13   S7    1.803526 S    
C1    H2    1.110015 S    
P3    O8    1.730746 S    
C34   C35   1.475337 A    
S9    O51   1.685267 S    
P7    O22   1.801177 S    
C4    C5    1.526688 S    
C15   H19   1.105469 S    
O36   H32   0.990109 S    
S4    O36   1.681976 S    
C1    C10   1.542138 S    
S7    O45   1.682354 S    
Ba1   O20   3.004858 S    
C17   C22   1.327996 D    
O17   Ba2   2.836566 S    
O13   Ba2   3.026604 S    
C28   H25   1.081268 S    
C19   H23   1.083381 S    
C11   O22   1.416816 S    
C20   C21   1.515479 S    
C6    C7    1.540253 S    
O6    C10   1.419750 S    
N2    C24   1.363711 A    
S4    O35   1.485980 D    
S2    O29   1.502447 D    
S6    O40   1.503461 D    
C1    S3    1.794542 S    
S2    O28   1.503823 D    
S5    O37   1.500122 D    
O39   H33   0.992291 S    
O3    P6    1.750842 S    
O51   H37   0.990581 S    
C30   S9    1.762457 S    
O2    Ba1   3.025644 S    
C9    F3    1.382272 S    
C3    H15   1.109023 S    
P5    O17   1.804530 S    
C15   C16   1.529888 S    
O30   H30   0.989817 S    
P4    O13   1.557840 S    
P2    O7    1.567787 D    
O16   P7    1.845912 S    
C4    O15   1.413829 S    
C42   H28   1.082383 S    
C15   H20   1.107599 S    
C6    H9    1.078345 S    
O14   Ba2   2.839240 S    
O3    Ba1   2.839855 S    
C39   C42   1.392663 A    
C2    H4    1.109385 S    
O45   H35   0.990543 S    
S8    O47   1.502733 D    
C14   H17   1.109331 S    
P5    O18   1.517927 D    
S2    O30   1.681926 S    
O19   C13   1.405843 S    
C35   S10   1.796907 S    
P4    O15   1.762130 S    
C20   C24   1.516457 S    
C16   H22   1.108506 S    
C28   C29   1.413912 A    
C8    C9    1.523532 S    
C9    H13   1.107537 S    
N4    C23   1.365312 A    
C3    F13   1.381639 S    
C27   C30   1.410827 A    
C39   C40   1.422411 A    
P1    Ba1   3.430871 S    
P1    C22   1.859966 S    
C4    H5    1.106977 S    
O7    Ba1   2.907233 S    
P2    C39   1.838582 S    
O14   P8    1.804753 S    
S1    O25   1.500088 D    
P5    O19   1.748005 S    
N1    C23   1.360708 A    
C4    F14   1.382276 S    
O16   Ba2   3.004035 S    
C17   H26   1.085432 S    
O12   Ba2   2.811859 S    
