data_mof_unit_40808.cif
_audit_creation_date              2012-12-10T18:15:16-0500
_audit_creation_method            fapswitch 2.2
_symmetry_space_group_name_H-M    P1
_symmetry_Int_Tables_number       1
_space_group_crystal_system       triclinic
_cell_length_a                    12.553694
_cell_length_b                    13.035138
_cell_length_c                    23.431163
_cell_angle_alpha                 90.781895
_cell_angle_beta                  102.338433
_cell_angle_gamma                 82.115755
_cell_volume                      3709.79989588

loop_
_atom_site_label
_atom_site_type_symbol
_atom_type_description
_atom_site_fract_x
_atom_site_fract_y
_atom_site_fract_z
_atom_type_partial_charge
C1    C     C_R   0.438302 0.691991 0.489615 0.870282
C2    C     C_R   0.529030 0.694951 0.036184 0.163058
C3    C     C_R   0.524733 0.697810 0.975488 0.156235
C4    C     C_R   0.515076 0.606222 0.942622 -0.093913
C5    C     C_R   0.502283 0.513974 0.970027 -0.068093
C6    C     C_R   0.488949 0.423494 0.937086 -0.020310
C7    C     C_R   0.476808 0.331883 0.963760 -0.234855
C8    C     C_R   0.478837 0.327435 0.023260 0.217337
C9    C     C_R   0.519754 0.602726 0.882926 0.570984
C10   C     C_R   0.488086 0.426157 0.877595 0.496107
C11   C     C_R   0.588904 0.452448 0.771962 -0.163621
C12   C     C_R   0.500744 0.500073 0.610240 0.881546
C13   C     C_R   0.589503 0.445645 0.712721 0.186997
C14   C     C_R   0.502421 0.502041 0.672286 -0.122856
C15   C     C_R   0.418081 0.565464 0.691467 -0.350401
C16   C     C_R   0.417360 0.571740 0.750875 0.282109
C17   C     C_R   0.503427 0.514014 0.791106 0.236321
C18   C     C_R   0.595082 0.512678 0.249038 -0.111538
C19   C     C_R   0.595781 0.510528 0.308266 -0.230413
C20   C     C_R   0.498699 0.500489 0.327133 -0.038000
C21   C     C_R   0.401089 0.492379 0.285961 -0.215718
C22   C     C_R   0.400584 0.495017 0.226654 -0.096142
C23   C     C_R   0.561559 0.307630 0.505675 0.867192
C24   C     C_R   0.497539 0.505265 0.208275 0.316801
C25   C     C_R   0.731106 0.038408 0.510830 0.173084
C26   C     C_R   0.598078 0.196649 0.500225 -0.176587
C27   C     C_R   0.290124 0.847958 0.478381 0.206668
C28   C     C_R   0.262159 0.955232 0.472421 -0.139810
C29   C     C_R   0.340426 0.017823 0.467343 -0.230204
C30   C     C_R   0.448194 0.974397 0.463554 0.114551
C31   C     C_R   0.472972 0.866350 0.460986 -0.010913
C32   C     C_R   0.535948 0.033919 0.469527 0.007975
C33   C     C_R   0.646035 0.984896 0.478794 0.080048
C34   C     C_R   0.499542 0.499772 0.389489 0.851668
C35   C     C_R   0.662889 0.883286 0.457370 0.180093
C36   C     C_R   0.574476 0.826075 0.446953 -0.184447
C37   C     C_R   0.517095 0.140265 0.471441 -0.280510
C38   C     C_R   0.705695 0.145357 0.522940 0.201695
C39   C     C_R   0.398262 0.802380 0.474401 -0.134898
C40   C     C_R   0.098229 0.329642 0.424639 0.128137
C41   C     C_R   0.802698 0.623618 0.572817 -0.027580
C42   C     C_R   0.911885 0.634929 0.595352 -0.336221
C43   C     C_R   0.995079 0.576991 0.572468 0.234587
C44   C     C_R   0.965783 0.517134 0.521380 -0.014843
C45   C     C_R   0.487539 0.418963 0.116650 0.503076
C46   C     C_R   0.854910 0.501498 0.504029 0.134698
C47   C     C_R   0.042264 0.467771 0.489290 -0.099048
C48   C     C_R   0.012895 0.388297 0.448117 0.121435
C49   C     C_R   0.900406 0.372991 0.432745 0.134500
C50   C     C_R   0.825590 0.428589 0.461640 -0.223160
C51   C     C_R   0.146593 0.498563 0.495262 -0.031164
C52   C     C_R   0.202012 0.361662 0.436335 -0.018660
C53   C     C_R   0.508838 0.598393 0.122624 0.522650
C54   C     C_R   0.514345 0.602587 0.063288 -0.077191
C55   C     C_R   0.502130 0.511684 0.030141 -0.105225
C56   C     C_R   0.489677 0.418092 0.056986 -0.033100
H1    H     H_    0.672230 0.516687 0.339117 0.171193
H2    H     H_    0.325212 0.484781 0.299470 0.163267
H3    H     H_    0.325097 0.489361 0.194927 0.139804
H4    H     H_    0.436965 0.179778 0.451239 0.171055
H5    H     H_    0.315293 0.099966 0.469653 0.145692
H6    H     H_    0.180816 0.991886 0.475640 0.141039
H7    H     H_    0.586608 0.749293 0.429180 0.186099
H8    H     H_    0.268720 0.319778 0.419270 0.139000
H9    H     H_    0.169617 0.565925 0.519323 0.170262
H10   H     H_    0.738711 0.663985 0.592479 0.158391
H11   H     H_    0.932024 0.682634 0.633289 0.154706
H12   H     H_    0.744270 0.409686 0.451913 0.232752
H13   H     H_    0.467557 0.261965 0.938663 0.189919
H14   H     H_    0.654006 0.407912 0.803490 0.163345
H15   H     H_    0.353053 0.610607 0.660114 0.160394
H16   H     H_    0.670164 0.520131 0.234663 0.132841
N1    N     N_R   0.497463 0.507704 0.147488 -0.365970
N2    N     N_R   0.503455 0.514670 0.852017 -0.346591
N3    N     N_R   0.222200 0.444670 0.469780 -0.127442
N4    N     N_R   0.776960 0.554790 0.529910 -0.118371
O1    O     O_R   0.366740 0.627150 0.485570 -0.606376
O2    O     O_2   0.512363 0.684164 0.155499 -0.528262
O3    O     O_2   0.542495 0.685177 0.855829 -0.526984
O4    O     O_2   0.471258 0.341100 0.845138 -0.566278
O5    O     O_R   0.544830 0.662520 0.504870 -0.615953
O6    O     O_R   0.410930 0.482340 0.574190 -0.598131
O7    O     O_R   0.589010 0.517710 0.593490 -0.614275
O8    O     O_R   0.455170 0.337480 0.495130 -0.613728
O9    O     O_R   0.633260 0.372850 0.514430 -0.628009
O10   O     O_R   0.410990 0.482290 0.406510 -0.616532
O11   O     O_R   0.589070 0.517660 0.425810 -0.649818
O12   O     O_2   0.475281 0.332470 0.144180 -0.531356
Zn1   Zn    Zn3+2 0.381090 0.476380 0.487110 0.938316
Zn2   Zn    Zn3+2 0.618910 0.523620 0.512890 0.920245
N5    N     N_2   0.548080 0.785184 0.069906 -0.251605
H17   H     H_    0.506380 0.854122 0.050941 0.221923
C57   C     C_3   0.662757 0.790647 0.095526 -0.707210
H18   H     H_    0.709557 0.797849 0.060895 0.204890
H19   H     H_    0.699994 0.720275 0.122628 0.256007
H20   H     H_    0.669282 0.859270 0.124013 0.239779
N6    N     N_2   0.783341 0.196081 0.563123 -0.301456
H21   H     H_    0.753206 0.253212 0.588557 0.232345
C58   C     C_3   0.885576 0.209944 0.546943 -0.745981
H22   H     H_    0.899054 0.292105 0.552113 0.239812
H23   H     H_    0.885715 0.186815 0.501132 0.245809
H24   H     H_    0.955080 0.162719 0.576684 0.237383
C59   C     C_3   0.767678 0.836777 0.439761 -0.912459
H25   H     H_    0.747804 0.804473 0.395226 0.245107
H26   H     H_    0.822921 0.895409 0.437717 0.251384
H27   H     H_    0.811076 0.772957 0.470532 0.248161
C60   C     C_3   0.839531 0.979297 0.542784 -0.897961
H28   H     H_    0.834817 0.895715 0.547610 0.247870
H29   H     H_    0.906022 0.989569 0.519740 0.235713
H30   H     H_    0.861954 0.006802 0.588249 0.258846
C61   C     C_3   0.204092 0.786504 0.491274 -0.891315
H31   H     H_    0.126782 0.836932 0.494517 0.222747
H32   H     H_    0.182309 0.731307 0.455570 0.255929
H33   H     H_    0.235125 0.744517 0.533763 0.239380
N7    N     N_2   0.528468 0.793281 0.947388 -0.254366
H34   H     H_    0.583374 0.839116 0.969996 0.222509
C62   C     C_3   0.421498 0.850519 0.922974 -0.697722
H35   H     H_    0.377770 0.876440 0.958241 0.203056
H36   H     H_    0.370681 0.801770 0.892117 0.263086
H37   H     H_    0.431876 0.919685 0.898650 0.241771
C63   C     C_3   0.852028 0.307021 0.382737 -0.898282
H38   H     H_    0.760601 0.317191 0.373784 0.232732
H39   H     H_    0.873247 0.330986 0.341793 0.248351
H40   H     H_    0.878440 0.223564 0.392771 0.247350
C64   C     C_3   0.088843 0.228453 0.392909 -0.933803
H41   H     H_    0.057898 0.173519 0.419089 0.243472
H42   H     H_    0.037264 0.240776 0.348331 0.259051
H43   H     H_    0.170122 0.189621 0.386947 0.228610
N8    N     N_2   0.104858 0.567285 0.606274 -0.330582
H44   H     H_    0.121724 0.628638 0.633455 0.218804
C65   C     C_3   0.142344 0.467986 0.635986 -0.765875
H45   H     H_    0.230054 0.464170 0.658349 0.255470
H46   H     H_    0.135694 0.403493 0.604551 0.253494
H47   H     H_    0.092697 0.457398 0.668925 0.234326
N9    N     N_2   0.469660 0.230990 0.048309 -0.249802
H48   H     H_    0.411928 0.191251 0.022571 0.216417
C66   C     C_3   0.573907 0.165696 0.067627 -0.693136
H49   H     H_    0.610980 0.141658 0.029651 0.209685
H50   H     H_    0.560649 0.095244 0.089813 0.237127
H51   H     H_    0.631776 0.207368 0.099101 0.257886
N10   N     N_2   0.673987 0.376888 0.694563 -0.298398
H52   H     H_    0.652057 0.346155 0.653672 0.215906
C67   C     C_3   0.780515 0.412629 0.705304 -0.742907
H53   H     H_    0.841462 0.352415 0.691810 0.233333
H54   H     H_    0.809197 0.427292 0.752534 0.239169
H55   H     H_    0.776122 0.484827 0.679733 0.251423
N11   N     N_2   0.333521 0.639709 0.770093 -0.288297
H56   H     H_    0.299964 0.701838 0.742160 0.225845
C68   C     C_3   0.249653 0.589832 0.788035 -0.793839
H57   H     H_    0.191957 0.648916 0.804813 0.238019
H58   H     H_    0.286296 0.532012 0.823449 0.258459
H59   H     H_    0.202448 0.551240 0.750399 0.241906

loop_
_geom_bond_atom_site_label_1
_geom_bond_atom_site_label_2
_ccdc_geom_bond_type
C9    N2    A    
C67   H55   S    
C55   C56   A    
C57   H18   S    
C1    O1    A    
C41   C42   A    
C61   H31   S    
C52   N3    A    
C8    C56   A    
C62   H36   S    
C46   N4    A    
N6    H21   S    
C11   H14   S    
C68   H57   S    
C7    C8    A    
C53   C54   A    
C19   H1    S    
C66   H50   S    
O1    Zn1   S    
O6    Zn1   S    
C16   N11   S    
C18   C24   A    
C28   C29   A    
N11   C68   S    
C51   N3    A    
C35   C59   S    
C68   H58   S    
C51   H9    S    
C5    C6    A    
C24   N1    S    
C42   H11   S    
C1    O5    A    
C15   C16   A    
C67   H54   S    
C11   C13   A    
C45   N1    A    
C18   C19   A    
C9    O3    S    
C23   C26   S    
C40   C48   A    
C63   H40   S    
N11   H56   S    
C19   C20   A    
C45   C56   A    
C27   C39   A    
C16   C17   A    
N7    C62   S    
C64   H43   S    
C60   H28   S    
C13   N10   S    
C61   H33   S    
C36   H7    S    
C44   C47   A    
C20   C34   S    
C65   H47   S    
C27   C61   S    
C57   H19   S    
C21   C22   A    
C8    N9    S    
C60   H29   S    
C38   N6    S    
N6    C58   S    
C44   C46   A    
C18   H16   S    
C66   H51   S    
C29   H5    S    
C23   O8    A    
N9    H48   S    
C45   O12   S    
C59   H26   S    
C52   H8    S    
C68   H59   S    
N5    H17   S    
C10   O4    S    
C26   C38   A    
C47   C51   A    
C40   C52   A    
C3    C4    A    
C12   O7    A    
C35   C36   A    
C43   C44   A    
C6    C10   A    
C29   C30   A    
C25   C38   A    
N5    C57   S    
C1    C39   S    
C47   C48   A    
C43   N8    S    
C49   C63   S    
C12   O6    A    
C61   H32   S    
C32   C37   A    
C63   H38   S    
C6    C7    A    
O5    Zn2   S    
C48   C49   A    
C58   H23   S    
C12   C14   S    
C57   H20   S    
C2    C54   A    
C64   H41   S    
C60   H30   S    
C22   C24   A    
C62   H37   S    
C42   C43   A    
C65   H45   S    
C22   H3    S    
C25   C60   S    
N8    H44   S    
N9    C66   S    
O7    Zn2   S    
C54   C55   A    
C11   C17   A    
C17   N2    S    
C14   C15   A    
C5    C55   A    
C53   N1    A    
C4    C5    A    
C65   H46   S    
O10   Zn1   S    
C7    H13   S    
O9    Zn2   S    
C26   C37   A    
C41   H10   S    
C15   H15   S    
C66   H49   S    
C46   C50   A    
C62   H35   S    
C58   H22   S    
C34   O10   A    
C32   C33   A    
N10   C67   S    
C53   O2    S    
C23   O9    A    
C21   H2    S    
C3    N7    S    
N10   H52   S    
C41   N4    A    
C30   C32   A    
C10   N2    A    
N7    H34   S    
C30   C31   A    
C40   C64   S    
C33   C35   A    
C31   C39   A    
C2    C3    A    
C59   H27   S    
C34   O11   A    
C2    N5    S    
C63   H39   S    
C37   H4    S    
N3    Zn1   S    
C58   H24   S    
C20   C21   A    
C49   C50   A    
O8    Zn1   S    
O11   Zn2   S    
N4    Zn2   S    
C59   H25   S    
C64   H42   S    
C31   C36   A    
N8    C65   S    
C4    C9    A    
C13   C14   A    
C50   H12   S    
C67   H53   S    
C25   C33   A    
C27   C28   A    
C28   H6    S    
