data_mof_unit_64524.cif
_audit_creation_date              2012-12-10T20:40:38-0500
_audit_creation_method            fapswitch 2.2
_symmetry_space_group_name_H-M    P1
_symmetry_Int_Tables_number       1
_space_group_crystal_system       triclinic
_cell_length_a                    21.594764
_cell_length_b                    21.616684
_cell_length_c                    47.071464
_cell_angle_alpha                 90.001158
_cell_angle_beta                  90.001353
_cell_angle_gamma                 89.985963
_cell_volume                      21973.2971427

loop_
_atom_site_label
_atom_site_type_symbol
_atom_type_description
_atom_site_fract_x
_atom_site_fract_y
_atom_site_fract_z
_atom_type_partial_charge
C1    C     C_R   0.998827 0.879736 0.999993 0.896707
C2    C     C_R   0.837919 0.858804 0.081288 0.116480
C3    C     C_R   0.435185 0.856363 0.407437 -0.106164
C4    C     C_R   0.676107 0.969033 0.928625 -0.185199
C5    C     C_R   0.033697 0.672536 0.929858 -0.179379
C6    C     C_R   0.323811 0.030972 0.928614 -0.185394
C7    C     C_R   0.966123 0.327361 0.929878 -0.180540
C8    C     C_R   0.176156 0.469046 0.428611 -0.185180
C9    C     C_R   0.533735 0.172533 0.429863 -0.179336
C10   C     C_R   0.823729 0.530949 0.428591 -0.185379
C11   C     C_R   0.466084 0.827355 0.429880 -0.180505
C12   C     C_R   0.687163 0.936796 0.954005 0.087562
C13   C     C_R   0.139330 0.844079 0.083136 0.120734
C14   C     C_R   0.065812 0.687430 0.954856 0.091951
C15   C     C_R   0.312824 0.063209 0.954001 0.087575
C16   C     C_R   0.934097 0.312558 0.954910 0.092357
C17   C     C_R   0.187162 0.436817 0.453997 0.087499
C18   C     C_R   0.565835 0.187431 0.454864 0.091957
C19   C     C_R   0.812823 0.563176 0.453988 0.087476
C20   C     C_R   0.434074 0.812557 0.454917 0.092356
C21   C     C_R   0.462420 0.040633 0.810020 0.560271
C22   C     C_R   0.016929 0.552468 0.809773 0.560392
C23   C     C_R   0.537220 0.959210 0.810027 0.560479
C24   C     C_R   0.162325 0.141016 0.081184 0.116206
C25   C     C_R   0.984187 0.446819 0.809756 0.561755
C26   C     C_R   0.962536 0.540773 0.310018 0.560263
C27   C     C_R   0.516967 0.052453 0.309772 0.560329
C28   C     C_R   0.037009 0.459055 0.310023 0.560474
C29   C     C_R   0.484137 0.946832 0.309756 0.561815
C30   C     C_R   0.470978 0.951551 0.869313 0.165825
C31   C     C_R   0.054715 0.485903 0.868923 0.155344
C32   C     C_R   0.528774 0.048397 0.869287 0.165850
C33   C     C_R   0.945495 0.513775 0.868856 0.167279
C34   C     C_R   0.970837 0.451618 0.369317 0.165762
C35   C     C_R   0.360797 0.655600 0.583237 0.121101
C36   C     C_R   0.554715 0.985916 0.368922 0.155367
C37   C     C_R   0.028862 0.548328 0.369286 0.165915
C38   C     C_R   0.445489 0.013763 0.368856 0.167278
C39   C     C_R   0.472042 0.951288 0.898857 -0.272333
C40   C     C_R   0.054456 0.485952 0.898488 -0.267893
C41   C     C_R   0.527803 0.048685 0.898832 -0.272669
C42   C     C_R   0.945643 0.513860 0.898430 -0.274432
C43   C     C_R   0.971919 0.451351 0.398860 -0.272185
C44   C     C_R   0.554457 0.985964 0.398488 -0.267859
C45   C     C_R   0.027896 0.548621 0.398831 -0.272626
C46   C     C_R   0.337876 0.358773 0.581279 0.116470
C47   C     C_R   0.445638 0.013849 0.398430 -0.274393
C48   C     C_R   0.499856 0.999965 0.854382 0.224213
C49   C     C_R   0.000136 0.499784 0.854019 0.234971
C50   C     C_R   0.999823 0.499964 0.354382 0.224162
C51   C     C_R   0.500132 0.999784 0.354019 0.234975
C52   C     C_R   0.948195 0.476515 0.130955 0.184982
C53   C     C_R   0.446777 0.018571 0.130465 0.177995
C54   C     C_R   0.051714 0.523305 0.130983 0.184851
C55   C     C_R   0.554327 0.981619 0.130289 0.177820
C56   C     C_R   0.448244 0.976410 0.630953 0.185018
C57   C     C_R   0.639321 0.344177 0.583168 0.120798
C58   C     C_R   0.946756 0.518519 0.630464 0.178001
C59   C     C_R   0.551673 0.023406 0.630980 0.184876
C60   C     C_R   0.054333 0.481643 0.630289 0.177840
C61   C     C_R   0.948561 0.477610 0.101277 -0.216256
C62   C     C_R   0.447581 0.019224 0.100767 -0.221849
C63   C     C_R   0.051399 0.522262 0.101304 -0.216282
C64   C     C_R   0.553044 0.980898 0.100598 -0.221426
C65   C     C_R   0.448603 0.977515 0.601275 -0.216260
C66   C     C_R   0.947565 0.519185 0.600766 -0.221795
C67   C     C_R   0.551359 0.022355 0.601301 -0.216305
C68   C     C_R   0.662379 0.641056 0.581173 0.116191
C69   C     C_R   0.053052 0.480924 0.600598 -0.221392
C70   C     C_R   0.999989 0.499956 0.086439 -0.113213
C71   C     C_R   0.500187 0.000017 0.086019 -0.086277
C72   C     C_R   0.499990 0.999955 0.586437 -0.113202
C73   C     C_R   0.000185 0.500015 0.586019 -0.086284
C74   C     C_R   0.499993 0.999999 0.944608 0.906961
C75   C     C_R   0.000000 0.499995 0.944511 0.910088
C76   C     C_R   0.999992 0.499999 0.444609 0.906899
C77   C     C_R   0.500000 0.999995 0.444511 0.910088
C78   C     C_R   0.029216 0.453166 0.190433 0.501320
C79   C     C_R   0.716217 0.034163 0.019970 -0.179365
C80   C     C_R   0.483543 0.947575 0.189843 0.503663
C81   C     C_R   0.970521 0.546616 0.190419 0.501355
C82   C     C_R   0.518749 0.052016 0.189913 0.503815
C83   C     C_R   0.529426 0.953285 0.690430 0.501307
C84   C     C_R   0.983637 0.447531 0.689844 0.503663
C85   C     C_R   0.470343 0.046492 0.690419 0.501333
C86   C     C_R   0.018642 0.552039 0.689910 0.503802
C87   C     C_R   0.999938 0.499904 0.145898 0.258912
C88   C     C_R   0.500663 0.000079 0.145320 0.255987
C89   C     C_R   0.499944 0.999900 0.645896 0.258823
C90   C     C_R   0.963963 0.716430 0.019364 -0.168216
C91   C     C_R   0.000654 0.500062 0.645319 0.255925
C92   C     C_R   0.968897 0.546835 0.220181 -0.044425
C93   C     C_R   0.519604 0.052715 0.219712 -0.040783
C94   C     C_R   0.030726 0.452918 0.220195 -0.044539
C95   C     C_R   0.483613 0.946377 0.219639 -0.041174
C96   C     C_R   0.468723 0.046701 0.720180 -0.044407
C97   C     C_R   0.019483 0.552748 0.719709 -0.040808
C98   C     C_R   0.530967 0.953063 0.720193 -0.044503
C99   C     C_R   0.983728 0.446331 0.719641 -0.041162
C100  C     C_R   0.999790 0.499875 0.235254 -0.016760
C101  C     C_R   0.283783 0.965807 0.019953 -0.179185
C102  C     C_R   0.501684 0.999468 0.234793 -0.016452
C103  C     C_R   0.499831 0.999883 0.735253 -0.016704
C104  C     C_R   0.001685 0.499464 0.734793 -0.016433
C105  C     C_R   0.499983 0.000003 0.055230 0.885182
C106  C     C_R   0.999999 0.499992 0.055382 0.901841
C107  C     C_R   0.999983 0.500003 0.555230 0.885189
C108  C     C_R   0.499999 0.999992 0.555381 0.901813
C109  C     C_R   0.937484 0.593239 0.234900 -0.175504
C110  C     C_R   0.538606 0.105359 0.234408 -0.181224
C111  C     C_R   0.062035 0.406467 0.234931 -0.175316
C112  C     C_R   0.120297 0.998893 0.999997 0.896236
C113  C     C_R   0.036109 0.283561 0.019363 -0.168087
C114  C     C_R   0.466392 0.893042 0.234263 -0.179783
C115  C     C_R   0.437094 0.092955 0.734900 -0.175530
C116  C     C_R   0.038337 0.605448 0.734403 -0.181160
C117  C     C_R   0.562533 0.906786 0.734925 -0.175360
C118  C     C_R   0.966664 0.392948 0.734266 -0.179823
C119  C     C_R   0.499949 0.999991 0.913675 -0.091042
C120  C     C_R   0.000023 0.499936 0.913410 -0.106471
C121  C     C_R   0.999939 0.499990 0.413676 -0.090890
C122  C     C_R   0.500022 0.999936 0.413410 -0.106502
C123  C     C_R   0.434773 0.093614 0.764589 0.154901
C124  C     C_R   0.216215 0.534146 0.519975 -0.179373
C125  C     C_R   0.039583 0.607171 0.764103 0.158019
C126  C     C_R   0.564790 0.906127 0.764615 0.154692
C127  C     C_R   0.966616 0.390631 0.763960 0.156716
C128  C     C_R   0.935169 0.593910 0.264590 0.154924
C129  C     C_R   0.539880 0.107063 0.264108 0.158059
C130  C     C_R   0.064240 0.405775 0.264621 0.154782
C131  C     C_R   0.466302 0.890734 0.263957 0.156666
C132  C     C_R   0.465175 0.045611 0.780177 -0.039895
C133  C     C_R   0.019865 0.553869 0.779807 -0.033276
C134  C     C_R   0.534424 0.954172 0.780188 -0.039887
C135  C     C_R   0.463953 0.216430 0.519361 -0.168231
C136  C     C_R   0.983976 0.444630 0.779756 -0.035782
C137  C     C_R   0.965332 0.545756 0.280176 -0.039916
C138  C     C_R   0.519977 0.053826 0.279808 -0.033138
C139  C     C_R   0.034141 0.453992 0.280188 -0.039977
C140  C     C_R   0.483847 0.944669 0.279755 -0.035896
C141  C     C_R   0.620021 0.000039 0.999419 0.877536
C142  C     C_R   0.999917 0.620082 0.999445 0.884845
C143  C     C_R   0.379978 0.999961 0.999414 0.877587
C144  C     C_R   0.000084 0.379915 0.999460 0.884822
C145  C     C_R   0.120020 0.500038 0.499418 0.877534
C146  C     C_R   0.783785 0.465830 0.519959 -0.179201
C147  C     C_R   0.499918 0.120082 0.499446 0.884829
C148  C     C_R   0.879979 0.499962 0.499412 0.877583
C149  C     C_R   0.500084 0.879915 0.499461 0.884811
C150  C     C_R   0.848959 0.092989 0.089287 0.167097
C151  C     C_R   0.900853 0.849313 0.087833 0.173345
C152  C     C_R   0.151079 0.906776 0.089238 0.167120
C153  C     C_R   0.099399 0.150468 0.087758 0.173073
C154  C     C_R   0.348953 0.592905 0.589303 0.167106
C155  C     C_R   0.400807 0.349283 0.587830 0.173347
C156  C     C_R   0.651094 0.406874 0.589259 0.167139
C157  C     C_R   0.536120 0.783560 0.519359 -0.168104
C158  C     C_R   0.599456 0.650506 0.587754 0.173083
C159  C     C_R   0.823540 0.054635 0.068520 -0.230643
C160  C     C_R   0.940769 0.824835 0.067437 -0.214694
C161  C     C_R   0.176442 0.945200 0.068486 -0.230387
C162  C     C_R   0.059439 0.175026 0.067398 -0.214388
C163  C     C_R   0.323526 0.554574 0.568531 -0.230696
C164  C     C_R   0.440736 0.324821 0.567434 -0.214737
C165  C     C_R   0.676463 0.445273 0.568499 -0.230467
C166  C     C_R   0.559480 0.675044 0.567394 -0.214437
C167  C     C_R   0.810325 0.077379 0.041413 -0.013207
C168  C     C_R   0.685923 0.000182 0.999024 -0.059084
C169  C     C_R   0.919423 0.810599 0.040195 -0.021669
C170  C     C_R   0.189679 0.922525 0.041369 -0.013300
C171  C     C_R   0.080728 0.189373 0.040159 -0.021843
C172  C     C_R   0.310322 0.577341 0.541426 -0.013173
C173  C     C_R   0.419404 0.310599 0.540189 -0.021677
C174  C     C_R   0.689684 0.422572 0.541385 -0.013251
C175  C     C_R   0.580751 0.689374 0.540151 -0.021857
C176  C     C_R   0.822726 0.139744 0.034808 0.114522
C177  C     C_R   0.857031 0.821596 0.032992 0.111270
C178  C     C_R   0.177333 0.860163 0.034736 0.114495
C179  C     C_R   0.999582 0.686045 0.998995 -0.065742
C180  C     C_R   0.143118 0.178443 0.032930 0.111204
C181  C     C_R   0.322742 0.639707 0.534831 0.114552
C182  C     C_R   0.357014 0.321595 0.532981 0.111263
C183  C     C_R   0.677317 0.360208 0.534763 0.114529
C184  C     C_R   0.643138 0.678443 0.532915 0.111199
C185  C     C_R   0.847913 0.179169 0.055799 0.124278
C186  C     C_R   0.815982 0.845511 0.053651 0.127921
C187  C     C_R   0.152201 0.820667 0.055710 0.124275
C188  C     C_R   0.184214 0.154469 0.053556 0.127975
C189  C     C_R   0.347939 0.679109 0.555827 0.124285
C190  C     C_R   0.314075 0.999816 0.999017 -0.059154
C191  C     C_R   0.315954 0.345494 0.553639 0.127905
C192  C     C_R   0.652175 0.320738 0.555745 0.124276
C193  C     C_R   0.684249 0.654490 0.553540 0.127958
C194  C     C_3   0.402252 0.148684 0.777962 -0.344270
C195  C     C_3   0.333561 0.135371 0.782732 -0.750866
C196  C     C_3   0.064452 0.666446 0.777288 -0.357252
C197  C     C_3   0.130597 0.657832 0.788202 -0.731394
C198  C     C_3   0.597165 0.850992 0.778006 -0.345748
C199  C     C_3   0.665908 0.864098 0.782739 -0.747378
C200  C     C_3   0.948434 0.328882 0.777010 -0.347744
C201  C     C_R   0.000425 0.313947 0.999015 -0.065822
C202  C     C_3   0.005443 0.292257 0.786413 -0.743105
C203  C     C_3   0.902958 0.649163 0.277967 -0.344346
C204  C     C_3   0.834178 0.636267 0.282708 -0.750802
C205  C     C_3   0.565036 0.166212 0.277299 -0.357302
C206  C     C_3   0.631090 0.157235 0.288268 -0.731556
C207  C     C_3   0.096169 0.350385 0.278020 -0.345929
C208  C     C_3   0.165046 0.362878 0.282697 -0.747335
C209  C     C_3   0.447806 0.829078 0.277005 -0.347725
C210  C     C_3   0.504633 0.792094 0.286339 -0.743032
C211  C     C_3   0.892254 0.449869 0.145990 -0.432141
C212  C     C_R   0.185922 0.500180 0.499023 -0.059067
C213  C     C_3   0.889882 0.379721 0.142687 -0.741683
C214  C     C_3   0.388046 0.037654 0.145656 -0.400449
C215  C     C_3   0.338238 0.987885 0.142900 -0.741263
C216  C     C_3   0.107635 0.549908 0.146051 -0.431957
C217  C     C_3   0.110045 0.620058 0.142768 -0.741252
C218  C     C_3   0.613337 0.962654 0.145284 -0.400060
C219  C     C_3   0.663003 0.012518 0.142347 -0.742318
C220  C     C_3   0.392357 0.949648 0.645987 -0.432024
C221  C     C_3   0.390086 0.879505 0.642654 -0.741781
C222  C     C_3   0.888009 0.537557 0.645655 -0.400333
C223  C     C_R   0.001197 0.120261 0.999995 0.896668
C224  C     C_R   0.499583 0.186046 0.498996 -0.065752
C225  C     C_3   0.838206 0.487792 0.642863 -0.741393
C226  C     C_3   0.607537 0.050136 0.646045 -0.431882
C227  C     C_3   0.609809 0.120287 0.642747 -0.741327
C228  C     C_3   0.113357 0.462719 0.645284 -0.399987
C229  C     C_3   0.163000 0.512602 0.642333 -0.742448
C230  C     C_R   0.814076 0.499818 0.499016 -0.059128
C231  C     C_R   0.500425 0.813946 0.499015 -0.065833
C232  C     C_R   0.718629 0.968094 0.977885 0.013293
C233  C     C_R   0.033176 0.718765 0.978367 0.013090
C234  C     C_R   0.281365 0.031926 0.977886 0.013381
C235  C     C_R   0.966794 0.281224 0.978400 0.013152
C236  C     C_R   0.218628 0.468106 0.477880 0.013280
C237  C     C_R   0.533185 0.218766 0.478371 0.013083
C238  C     C_R   0.781366 0.531909 0.477878 0.013372
C239  C     C_R   0.879702 0.001111 0.999997 0.896369
C240  C     C_R   0.466784 0.781223 0.478404 0.013148
C241  C     C_R   0.782633 0.969200 0.978607 -0.183898
C242  C     C_R   0.032146 0.782726 0.979101 -0.182672
C243  C     C_R   0.217361 0.030833 0.978613 -0.184105
C244  C     C_R   0.967842 0.217267 0.979125 -0.182914
C245  C     C_R   0.282632 0.469215 0.478601 -0.183882
C246  C     C_R   0.532153 0.282727 0.479104 -0.182650
C247  C     C_R   0.717361 0.530812 0.478605 -0.184079
C248  C     C_R   0.467835 0.717266 0.479128 -0.182895
C249  C     C_R   0.813326 0.002084 0.999981 -0.071655
C250  C     C_R   0.498825 0.379737 0.499993 0.896717
C251  C     C_R   0.997765 0.813433 0.999959 -0.069984
C252  C     C_R   0.186672 0.997922 0.999979 -0.071662
C253  C     C_R   0.002273 0.186560 0.999965 -0.069925
C254  C     C_R   0.313325 0.502083 0.499980 -0.071674
C255  C     C_R   0.497763 0.313433 0.499959 -0.069944
C256  C     C_R   0.686673 0.497923 0.499978 -0.071687
C257  C     C_R   0.502276 0.686559 0.499964 -0.069889
C258  C     C_R   0.780178 0.035962 0.020550 0.079616
C259  C     C_R   0.962220 0.780381 0.019933 0.079206
C260  C     C_R   0.219821 0.964003 0.020531 0.079528
C261  C     C_R   0.620297 0.498894 0.499997 0.896236
C262  C     C_R   0.037867 0.219606 0.019925 0.079278
C263  C     C_R   0.280176 0.535944 0.520555 0.079615
C264  C     C_R   0.462209 0.280382 0.519930 0.079219
C265  C     C_R   0.719824 0.464025 0.520537 0.079525
C266  C     C_R   0.537880 0.719605 0.519920 0.079287
C267  C     C_R   0.668173 0.874968 0.956480 -0.059550
C268  C     C_R   0.128891 0.672828 0.957219 -0.065782
C269  C     C_R   0.331861 0.125023 0.956473 -0.059539
C270  C     C_R   0.871059 0.327285 0.957333 -0.065518
C271  C     C_R   0.168123 0.375005 0.456476 -0.059483
C272  C     C_R   0.501198 0.620260 0.499995 0.896676
C273  C     C_R   0.628913 0.172830 0.457235 -0.065780
C274  C     C_R   0.831937 0.624966 0.456465 -0.059449
C275  C     C_R   0.371039 0.827293 0.457350 -0.065497
C276  C     C_R   0.637778 0.845956 0.933874 -0.134951
C277  C     C_R   0.159459 0.643372 0.934782 -0.131488
C278  C     C_R   0.362239 0.154019 0.933859 -0.135044
C279  C     C_R   0.840446 0.356795 0.934924 -0.132045
C280  C     C_R   0.137723 0.346004 0.433868 -0.134921
C281  C     C_R   0.659495 0.143373 0.434802 -0.131479
C282  C     C_R   0.862316 0.653945 0.433846 -0.135020
C283  C     C_R   0.379702 0.501110 0.499997 0.896367
C284  C     C_R   0.340415 0.856807 0.434946 -0.132038
C285  C     C_R   0.626780 0.878299 0.908646 -0.079696
C286  C     C_R   0.127330 0.628832 0.909868 -0.092941
C287  C     C_R   0.373168 0.121677 0.908624 -0.079981
C288  C     C_R   0.872490 0.371259 0.909979 -0.090541
C289  C     C_R   0.126772 0.378339 0.408634 -0.079704
C290  C     C_R   0.627380 0.128828 0.409885 -0.092990
C291  C     C_R   0.873168 0.621611 0.408602 -0.079987
C292  C     C_R   0.372442 0.871267 0.409996 -0.090598
C293  C     C_R   0.499808 0.999888 0.765255 -0.076126
C294  C     C_R   0.860782 0.155684 0.083212 0.121044
C295  C     C_R   0.001853 0.499313 0.764851 -0.076668
C296  C     C_R   0.999752 0.499874 0.265255 -0.076124
C297  C     C_R   0.501847 0.999313 0.264851 -0.076676
C298  C     C_R   0.646260 0.939669 0.905972 -0.107691
C299  C     C_R   0.064539 0.643586 0.907381 -0.106172
C300  C     C_R   0.353638 0.060321 0.905952 -0.107960
C301  C     C_R   0.935236 0.356364 0.907429 -0.106165
C302  C     C_R   0.146305 0.439692 0.405955 -0.107735
C303  C     C_R   0.564590 0.143580 0.407390 -0.106161
C304  C     C_R   0.853557 0.560283 0.405925 -0.107995
H1    H     H_    0.603211 0.855838 0.891168 0.169477
H2    H     H_    0.039687 0.632249 0.888103 0.187449
H3    H     H_    0.672765 0.906082 0.795921 0.289912
H4    H     H_    0.687704 0.824107 0.793656 0.250326
H5    H     H_    0.574055 0.835667 0.797805 0.256307
H6    H     H_    0.593495 0.810041 0.763788 0.193344
H7    H     H_    0.034818 0.319259 0.801231 0.291153
H8    H     H_    0.990574 0.249058 0.797191 0.245720
H9    H     H_    0.033776 0.279699 0.767575 0.242813
H10   H     H_    0.914338 0.334552 0.794394 0.254846
H11   H     H_    0.923394 0.299779 0.761268 0.184706
H12   H     H_    0.810630 0.629314 0.261970 0.243037
H13   H     H_    0.361923 0.035424 0.886370 0.178461
H14   H     H_    0.827201 0.594324 0.295903 0.290060
H15   H     H_    0.812504 0.676339 0.293613 0.249744
H16   H     H_    0.926122 0.664452 0.297759 0.256302
H17   H     H_    0.906734 0.690085 0.263737 0.193124
H18   H     H_    0.647077 0.200321 0.298804 0.246575
H19   H     H_    0.634085 0.118659 0.303735 0.289577
H20   H     H_    0.662618 0.146957 0.270225 0.247214
H21   H     H_    0.566840 0.204082 0.261324 0.184389
H22   H     H_    0.533705 0.184656 0.293889 0.254793
H23   H     H_    0.188558 0.369631 0.261936 0.243342
H24   H     H_    0.960024 0.367639 0.888126 0.187066
H25   H     H_    0.172318 0.404810 0.295866 0.289924
H26   H     H_    0.186521 0.322706 0.293607 0.250352
H27   H     H_    0.073006 0.335322 0.297848 0.256322
H28   H     H_    0.092068 0.309433 0.263826 0.193441
H29   H     H_    0.534238 0.818899 0.301138 0.291192
H30   H     H_    0.489550 0.748970 0.297118 0.245744
H31   H     H_    0.532803 0.779396 0.267471 0.242773
H32   H     H_    0.413822 0.834926 0.294423 0.254801
H33   H     H_    0.422512 0.800162 0.261275 0.184739
H34   H     H_    0.885501 0.366824 0.119939 0.275809
H35   H     H_    0.138005 0.464583 0.386373 0.178406
H36   H     H_    0.932511 0.358450 0.151597 0.291356
H37   H     H_    0.849184 0.361164 0.154309 0.259258
H38   H     H_    0.892148 0.460709 0.169004 0.219906
H39   H     H_    0.849431 0.470568 0.136968 0.223996
H40   H     H_    0.325411 0.980914 0.120271 0.260374
H41   H     H_    0.355065 0.943457 0.151886 0.283357
H42   H     H_    0.296224 0.002296 0.154778 0.276178
H43   H     H_    0.396188 0.046437 0.168570 0.215191
H44   H     H_    0.370704 0.081727 0.136458 0.242219
H45   H     H_    0.150722 0.638584 0.154418 0.259505
H46   H     H_    0.539748 0.132239 0.388109 0.187439
H47   H     H_    0.114491 0.632977 0.120026 0.275666
H48   H     H_    0.067403 0.641338 0.151660 0.291328
H49   H     H_    0.107688 0.539040 0.169062 0.220113
H50   H     H_    0.150467 0.529201 0.137043 0.224087
H51   H     H_    0.705190 0.998268 0.154138 0.276348
H52   H     H_    0.675540 0.019390 0.119677 0.260263
H53   H     H_    0.646196 0.056960 0.151326 0.283418
H54   H     H_    0.605603 0.953882 0.168228 0.214714
H55   H     H_    0.630598 0.918599 0.136039 0.242496
H56   H     H_    0.385679 0.866650 0.619902 0.275821
H57   H     H_    0.861780 0.535394 0.386335 0.178400
H58   H     H_    0.432764 0.858280 0.651537 0.291283
H59   H     H_    0.349437 0.860860 0.654283 0.259373
H60   H     H_    0.392254 0.960431 0.669006 0.219941
H61   H     H_    0.349494 0.970303 0.636983 0.224052
H62   H     H_    0.825378 0.480898 0.620229 0.260339
H63   H     H_    0.855037 0.443336 0.651819 0.283276
H64   H     H_    0.796190 0.502162 0.654751 0.276219
H65   H     H_    0.896128 0.546276 0.668575 0.215196
H66   H     H_    0.870676 0.581653 0.636478 0.242252
H67   H     H_    0.650444 0.138907 0.654397 0.259618
H68   H     H_    0.459960 0.867634 0.388130 0.187071
H69   H     H_    0.614241 0.133190 0.620003 0.275706
H70   H     H_    0.567120 0.141491 0.651630 0.291233
H71   H     H_    0.607608 0.039298 0.669058 0.220130
H72   H     H_    0.650413 0.029505 0.637043 0.224136
H73   H     H_    0.205198 0.498380 0.654123 0.276376
H74   H     H_    0.175526 0.519459 0.619661 0.260241
H75   H     H_    0.146175 0.557045 0.651305 0.283348
H76   H     H_    0.105636 0.453969 0.668230 0.214726
H77   H     H_    0.130633 0.418663 0.636046 0.242530
H78   H     H_    0.690534 0.016781 0.926431 0.157230
H79   H     H_    0.984957 0.683486 0.927789 0.154822
H80   H     H_    0.309345 0.983236 0.926420 0.157150
H81   H     H_    0.151020 0.606038 0.892515 0.163870
H82   H     H_    0.014833 0.316314 0.927763 0.154565
H83   H     H_    0.190623 0.516781 0.426412 0.157253
H84   H     H_    0.484995 0.183481 0.427788 0.154824
H85   H     H_    0.809201 0.483234 0.426393 0.157194
H86   H     H_    0.514790 0.816301 0.427758 0.154574
H87   H     H_    0.914256 0.629667 0.223182 0.198174
H88   H     H_    0.553613 0.145641 0.222552 0.192369
H89   H     H_    0.085238 0.370001 0.223227 0.198377
H90   H     H_    0.453344 0.852131 0.222368 0.192929
H91   H     H_    0.413685 0.129264 0.723180 0.198142
H92   H     H_    0.396722 0.144125 0.891139 0.169447
H93   H     H_    0.053227 0.645772 0.722547 0.192394
H94   H     H_    0.585930 0.870451 0.723217 0.198318
H95   H     H_    0.953734 0.351999 0.722371 0.192895
H96   H     H_    0.449709 0.913885 0.910232 0.189996
H97   H     H_    0.096800 0.474989 0.909737 0.196134
H98   H     H_    0.550168 0.086098 0.910188 0.189999
H99   H     H_    0.903269 0.524893 0.909639 0.195292
H100  H     H_    0.949504 0.414001 0.410238 0.189926
H101  H     H_    0.596804 0.975010 0.409735 0.196136
H102  H     H_    0.050351 0.585981 0.410185 0.189921
H103  H     H_    0.848767 0.394105 0.892650 0.165367
H104  H     H_    0.403263 0.024874 0.409640 0.195293
H105  H     H_    0.908846 0.460033 0.089734 0.181427
H106  H     H_    0.406828 0.033882 0.089093 0.167213
H107  H     H_    0.091134 0.539854 0.089781 0.181424
H108  H     H_    0.593625 0.966253 0.088796 0.167151
H109  H     H_    0.408921 0.959868 0.589731 0.181416
H110  H     H_    0.906806 0.533823 0.589091 0.167188
H111  H     H_    0.591058 0.040021 0.589776 0.181417
H112  H     H_    0.093643 0.466306 0.588795 0.167124
H113  H     H_    0.813775 0.006723 0.073513 0.197761
H114  H     H_    0.103200 0.355887 0.391155 0.169505
H115  H     H_    0.988783 0.816434 0.072855 0.200048
H116  H     H_    0.186156 0.993112 0.073499 0.197701
H117  H     H_    0.011430 0.183383 0.072839 0.200116
H118  H     H_    0.313748 0.506660 0.573516 0.197751
H119  H     H_    0.488748 0.316418 0.572857 0.200071
H120  H     H_    0.686193 0.493186 0.573503 0.197687
H121  H     H_    0.511475 0.683404 0.572841 0.200141
H122  H     H_    0.689892 0.059770 0.035712 0.156628
H123  H     H_    0.937148 0.690198 0.034701 0.162663
H124  H     H_    0.310109 0.940173 0.035686 0.156764
H125  H     H_    0.651080 0.106032 0.392536 0.163821
H126  H     H_    0.062961 0.309792 0.034686 0.162707
H127  H     H_    0.189890 0.559741 0.535721 0.156606
H128  H     H_    0.437131 0.190198 0.534695 0.162668
H129  H     H_    0.810112 0.440212 0.535696 0.156737
H130  H     H_    0.562980 0.809792 0.534680 0.162713
H131  H     H_    0.808532 0.944324 0.962496 0.179838
H132  H     H_    0.058125 0.808603 0.963358 0.179138
H133  H     H_    0.191458 0.055729 0.962510 0.179699
H134  H     H_    0.941830 0.191391 0.963392 0.179145
H135  H     H_    0.308531 0.444350 0.462486 0.179853
H136  H     H_    0.896722 0.644047 0.391114 0.169514
H137  H     H_    0.558138 0.308604 0.463364 0.179133
H138  H     H_    0.691458 0.555693 0.462497 0.179717
H139  H     H_    0.441817 0.691390 0.463398 0.179140
H140  H     H_    0.676462 0.849531 0.975921 0.178004
H141  H     H_    0.154135 0.683875 0.976430 0.178436
H142  H     H_    0.323622 0.150464 0.975918 0.178061
H143  H     H_    0.845885 0.316305 0.976571 0.178386
H144  H     H_    0.176375 0.349572 0.475922 0.177989
H145  H     H_    0.654146 0.183880 0.476449 0.178416
H146  H     H_    0.823756 0.650401 0.475916 0.178036
H147  H     H_    0.348710 0.894116 0.392671 0.165325
H148  H     H_    0.345879 0.816317 0.476592 0.178366
H149  H     H_    0.622781 0.798396 0.935906 0.148580
H150  H     H_    0.208062 0.631883 0.936693 0.149887
H151  H     H_    0.377272 0.201569 0.935889 0.148604
H152  H     H_    0.791878 0.368391 0.936882 0.150092
H153  H     H_    0.122687 0.298456 0.435904 0.148552
H154  H     H_    0.708096 0.131884 0.436719 0.149867
H155  H     H_    0.877409 0.701475 0.435880 0.148574
H156  H     H_    0.291850 0.868410 0.436912 0.150070
H157  H     H_    0.310022 0.128261 0.762002 0.242991
H158  H     H_    0.637921 0.964567 0.886394 0.178474
H159  H     H_    0.326860 0.093392 0.795933 0.290077
H160  H     H_    0.311664 0.175317 0.793640 0.249710
H161  H     H_    0.425363 0.164139 0.797740 0.256282
H162  H     H_    0.405751 0.189610 0.763721 0.193071
H163  H     H_    0.146351 0.700970 0.798766 0.246550
H164  H     H_    0.133885 0.619204 0.803629 0.289596
H165  H     H_    0.162126 0.647832 0.770127 0.247109
H166  H     H_    0.065973 0.704344 0.761320 0.184333
H167  H     H_    0.033077 0.684697 0.793906 0.254734
H168  H     H_    0.689427 0.871090 0.761997 0.243270
I1    I     I_    0.895790 0.214691 0.115840 -0.276844
I2    I     I_    0.138345 0.464619 0.847545 -0.364606
I3    I     I_    0.576402 0.120794 0.848217 -0.346090
I4    I     I_    0.862003 0.535113 0.847394 -0.333239
I5    I     I_    0.922935 0.379326 0.348297 -0.350260
I6    I     I_    0.638349 0.964651 0.347544 -0.364705
I7    I     I_    0.076680 0.620601 0.348216 -0.346224
I8    I     I_    0.361992 0.035089 0.347395 -0.333340
I9    I     I_    0.867077 0.052680 0.129543 -0.203088
I10   I     I_    0.939280 0.869595 0.128267 -0.160692
I11   I     I_    0.132955 0.946982 0.129515 -0.200627
I12   I     I_    0.776089 0.890288 0.113593 -0.300315
I13   I     I_    0.061043 0.130002 0.128184 -0.160521
I14   I     I_    0.367056 0.552564 0.629554 -0.203053
I15   I     I_    0.439210 0.369536 0.628271 -0.160681
I16   I     I_    0.632993 0.447117 0.629530 -0.200625
I17   I     I_    0.561130 0.630076 0.628190 -0.160484
I18   I     I_    0.801032 0.173392 0.993255 -0.378949
I19   I     I_    0.825829 0.800022 0.991018 -0.372818
I20   I     I_    0.199029 0.826631 0.993163 -0.379500
I21   I     I_    0.174237 0.200167 0.990959 -0.373253
I22   I     I_    0.301055 0.673392 0.493283 -0.378955
I23   I     I_    0.104445 0.784957 0.115746 -0.276198
I24   I     I_    0.325833 0.300041 0.491001 -0.372738
I25   I     I_    0.698999 0.326634 0.493196 -0.379513
I26   I     I_    0.674231 0.700141 0.490938 -0.373134
I27   I     I_    0.864600 0.274486 0.046422 -0.341411
I28   I     I_    0.720551 0.859568 0.043459 -0.328533
I29   I     I_    0.135613 0.725352 0.046291 -0.341054
I30   I     I_    0.279652 0.140582 0.043334 -0.328057
I31   I     I_    0.364667 0.774425 0.546464 -0.341538
I32   I     I_    0.220526 0.359545 0.543440 -0.328501
I33   I     I_    0.635539 0.225424 0.546341 -0.341175
I34   I     I_    0.224216 0.109291 0.113427 -0.299048
I35   I     I_    0.779683 0.640610 0.543309 -0.328015
I36   I     I_    0.395819 0.714569 0.615875 -0.276971
I37   I     I_    0.276026 0.390229 0.613583 -0.300249
I38   I     I_    0.604428 0.285097 0.615790 -0.276318
I39   I     I_    0.724295 0.609368 0.613414 -0.298996
I40   I     I_    0.423283 0.879135 0.848284 -0.349900
N1    N     N_R   0.499830 0.999936 0.823972 -0.329481
N2    N     N_R   0.000316 0.499714 0.823612 -0.328949
N3    N     N_R   0.999788 0.499931 0.323971 -0.329494
N4    N     N_R   0.500310 0.999714 0.323612 -0.328952
N5    N     N_R   0.999898 0.499900 0.176296 -0.357845
N6    N     N_R   0.500875 0.999931 0.175736 -0.358737
N7    N     N_R   0.499908 0.999894 0.676294 -0.357833
N8    N     N_R   0.000867 0.499917 0.675735 -0.358758
O1    O     O_R   0.000020 0.908410 0.023640 -0.617313
O2    O     O_R   0.091560 0.000040 0.976310 -0.618537
O3    O     O_R   0.999960 0.091560 0.976310 -0.618081
O4    O     O_R   0.908440 0.999960 0.976310 -0.618428
O5    O     O_R   0.500040 0.408440 0.476310 -0.617904
O6    O     O_R   0.591560 0.500040 0.476310 -0.618541
O7    O     O_R   0.499960 0.591560 0.476310 -0.618076
O8    O     O_R   0.408440 0.499960 0.476310 -0.618430
O9    O     O_R   0.591640 0.051770 0.999960 -0.617924
O10   O     O_R   0.948230 0.591640 0.999960 -0.618099
O11   O     O_R   0.408360 0.948230 0.999960 -0.617989
O12   O     O_R   0.091590 0.000020 0.023640 -0.616489
O13   O     O_R   0.051770 0.408360 0.999960 -0.618051
O14   O     O_R   0.091640 0.551770 0.499960 -0.617919
O15   O     O_R   0.448230 0.091640 0.499960 -0.618091
O16   O     O_R   0.908360 0.448230 0.499960 -0.617980
O17   O     O_R   0.551770 0.908360 0.499960 -0.618043
O18   O     O_R   0.591650 0.948320 0.999970 -0.607470
O19   O     O_R   0.051680 0.591650 0.999970 -0.605402
O20   O     O_R   0.408350 0.051680 0.999970 -0.607429
O21   O     O_R   0.948320 0.408350 0.999970 -0.605596
O22   O     O_R   0.091650 0.448320 0.499970 -0.607500
O23   O     O_R   0.999980 0.091590 0.023640 -0.617324
O24   O     O_R   0.551680 0.091650 0.499970 -0.605428
O25   O     O_R   0.908350 0.551680 0.499970 -0.607479
O26   O     O_R   0.448320 0.908350 0.499970 -0.605626
O27   O     O_2   0.057146 0.407487 0.175655 -0.548516
O28   O     O_2   0.466581 0.896880 0.175018 -0.558079
O29   O     O_2   0.942638 0.592305 0.175629 -0.548639
O30   O     O_2   0.535420 0.102901 0.175158 -0.558181
O31   O     O_2   0.557529 0.907712 0.675653 -0.548510
O32   O     O_2   0.966757 0.396806 0.675021 -0.557990
O33   O     O_2   0.442271 0.092067 0.675630 -0.548664
O34   O     O_R   0.908410 0.999980 0.023640 -0.616399
O35   O     O_2   0.035222 0.602950 0.675153 -0.558131
O36   O     O_2   0.422641 0.075151 0.825341 -0.581006
O37   O     O_2   0.029753 0.602994 0.825429 -0.583022
O38   O     O_2   0.577041 0.924740 0.825348 -0.580742
O39   O     O_2   0.968234 0.397242 0.825441 -0.583180
O40   O     O_2   0.922868 0.575427 0.325335 -0.580943
O41   O     O_2   0.529749 0.102996 0.325424 -0.582974
O42   O     O_2   0.076752 0.424474 0.325333 -0.580620
O43   O     O_2   0.468238 0.897238 0.325440 -0.583179
O44   O     O_R   0.500040 0.051770 0.958040 -0.620070
O45   O     O_R   0.500020 0.408410 0.523640 -0.617302
O46   O     O_R   0.948230 0.500040 0.958040 -0.621110
O47   O     O_R   0.499960 0.948230 0.958040 -0.620130
O48   O     O_R   0.051770 0.499960 0.958040 -0.621275
O49   O     O_R   0.000040 0.551770 0.458040 -0.620059
O50   O     O_R   0.448230 0.000040 0.458040 -0.621108
O51   O     O_R   0.999960 0.448230 0.458040 -0.620117
O52   O     O_R   0.551770 0.999960 0.458040 -0.621269
O53   O     O_R   0.500000 0.051760 0.041880 -0.603487
O54   O     O_R   0.948240 0.500000 0.041880 -0.615868
O55   O     O_R   0.500000 0.948240 0.041880 -0.603488
O56   O     O_R   0.591590 0.500020 0.523640 -0.616484
O57   O     O_R   0.051760 0.500000 0.041880 -0.615798
O58   O     O_R   1.000000 0.551760 0.541880 -0.603473
O59   O     O_R   0.448240 0.000000 0.541880 -0.615849
O60   O     O_R   0.000000 0.448240 0.541880 -0.603476
O61   O     O_R   0.551760 0.000000 0.541880 -0.615780
O62   O     O_R   0.499980 0.591590 0.523640 -0.617313
O63   O     O_R   0.408410 0.499980 0.523640 -0.616398
O64   O     O_R   0.000040 0.908440 0.976310 -0.617908
Zn1   Zn    Zn3+2 0.000000 0.000000 0.031580 1.015769
Zn2   Zn    Zn3+2 0.430890 0.000020 0.499960 1.005491
Zn3   Zn    Zn3+2 0.999980 0.430890 0.499960 1.010842
Zn4   Zn    Zn3+2 0.569110 0.999980 0.499960 1.005775
Zn5   Zn    Zn3+2 0.500000 0.500000 0.531580 1.015786
Zn6   Zn    Zn3+2 0.000000 0.000000 0.968370 0.999913
Zn7   Zn    Zn3+2 0.500000 0.500000 0.468370 0.999942
Zn8   Zn    Zn3+2 0.500020 0.069110 0.999960 1.010966
Zn9   Zn    Zn3+2 0.930890 0.500020 0.999960 1.005505
Zn10  Zn    Zn3+2 0.499980 0.930890 0.999960 1.010858
Zn11  Zn    Zn3+2 0.069110 0.499980 0.999960 1.005783
Zn12  Zn    Zn3+2 0.000020 0.569110 0.499960 1.010936

loop_
_geom_bond_atom_site_label_1
_geom_bond_atom_site_label_2
_ccdc_geom_bond_type
C209  H33   S    
C271  H144  S    
O5    Zn7   S    
C53   C214  S    
C194  H162  S    
C152  I11   S    
C196  H166  S    
C274  C282  A    
C35   C154  A    
C277  H150  S    
C179  C233  A    
C28   N3    A    
C127  C200  S    
C217  H48   S    
C206  H20   S    
C221  H59   S    
C227  H70   S    
C54   C216  S    
C46   C155  A    
C170  C178  A    
C242  C251  A    
C180  I21   S    
C246  H137  S    
C9    C303  A    
C52   C61   A    
C10   C304  A    
C85   C96   A    
C30   I40   S    
C92   C109  A    
C239  C249  S    
C54   C63   A    
C184  C193  A    
C112  O2    A    
C94   C111  A    
C2    C151  A    
C74   O44   A    
C114  C131  A    
C9    H84   S    
C155  I15   S    
C55   C88   A    
C77   O52   A    
C131  C140  A    
C212  C236  A    
C28   O42   S    
C164  H119  S    
C162  C171  A    
C141  C168  S    
C238  C247  A    
C112  C252  S    
C68   C193  A    
C84   O32   S    
C113  C201  A    
C4    C12   A    
O11   Zn10  S    
C117  C126  A    
C44   H101  S    
C18   C237  S    
C4    H78   S    
C93   C110  A    
C145  C212  S    
C135  H128  S    
C283  O8    A    
C6    H80   S    
C187  I29   S    
C197  H164  S    
C289  C302  A    
C76   O51   A    
C4    C298  A    
C102  C297  A    
C68   C158  A    
C291  C304  A    
C228  C229  S    
C239  O4    A    
C55   C218  S    
C276  C285  A    
C114  H90   S    
C11   C20   A    
C27   C138  A    
C115  C123  A    
C150  C159  A    
C232  C241  A    
C150  C294  A    
C248  H139  S    
C220  H61   S    
C241  C249  A    
C127  C136  A    
C23   N1    A    
C57   C192  A    
C19   C238  S    
C77   O50   A    
C285  H1    S    
C22   C133  A    
C45   C121  A    
C291  H136  S    
C268  C277  A    
O52   Zn4   S    
C177  C186  A    
C113  H126  S    
C128  C203  S    
C270  C279  A    
C174  C183  A    
C51   N4    S    
C21   C132  A    
C219  H52   S    
C168  C232  A    
C21   O36   S    
C223  C253  S    
C111  C130  A    
C208  H25   S    
C141  O9    A    
O49   Zn12  S    
C182  I24   S    
C164  C173  A    
O59   Zn2   S    
C22   N2    A    
C163  C172  A    
O26   Zn2   S    
C270  H143  S    
C203  H17   S    
C222  H65   S    
C173  C182  A    
C36   C44   A    
C202  H8    S    
C50   N3    S    
C195  H160  S    
C37   C45   A    
C56   C220  S    
C252  C260  A    
O48   Zn11  S    
C206  H18   S    
C38   I8    S    
O34   Zn1   S    
C198  H6    S    
C85   O33   S    
C280  C289  A    
C196  C197  S    
C228  H76   S    
C188  I30   S    
C105  O55   A    
C8    C17   A    
C250  O5    A    
C202  H9    S    
O8    Zn7   S    
O19   Zn11  S    
C203  H16   S    
C290  H125  S    
C75   O48   A    
C108  O59   A    
O22   Zn3   S    
C288  H103  S    
C78   C94   A    
C159  C167  A    
O12   Zn1   S    
C298  H158  S    
C3    C11   A    
C199  H168  S    
C126  C134  A    
C65   H109  S    
C82   O30   S    
C204  H15   S    
C290  C303  A    
C95   C114  A    
O44   Zn8   S    
O46   Zn9   S    
C147  C224  S    
C27   O41   S    
C261  O56   A    
C181  I22   S    
C143  O11   A    
C226  H72   S    
C37   C50   A    
C105  O53   A    
C285  C298  A    
C288  C301  A    
C273  H145  S    
C229  H74   S    
C46   C191  A    
C17   C271  A    
C26   C137  A    
C5    H79   S    
O2    Zn6   S    
C197  H165  S    
C31   C40   A    
C104  C295  A    
C157  C266  A    
C147  O24   A    
C30   C48   A    
C165  H120  S    
C217  H45   S    
C139  C296  A    
C215  H42   S    
C36   I6    S    
C210  H30   S    
C161  H116  S    
C110  C129  A    
C67   C72   A    
C59   C89   A    
C33   I4    S    
C86   C97   A    
O64   Zn6   S    
C59   C67   A    
C81   C92   A    
C172  C181  A    
O7    Zn7   S    
C72   C108  S    
C83   C98   A    
O4    Zn6   S    
C147  O15   A    
C215  H40   S    
C63   C70   A    
C123  C194  S    
C77   C122  S    
C25   O39   S    
C152  C161  A    
C204  H12   S    
C219  H51   S    
C247  C256  A    
C126  C198  S    
C135  C264  A    
C301  H24   S    
C21   N1    A    
C28   C139  A    
O1    Zn1   S    
C3    C292  A    
C175  C266  S    
C169  C177  A    
C220  C221  S    
C241  H131  S    
C242  H132  S    
C214  H43   S    
C107  O58   A    
C225  H63   S    
C57   C156  A    
O55   Zn10  S    
C62   H106  S    
C116  H93   S    
C284  H156  S    
C278  H151  S    
C151  I10   S    
C195  H159  S    
C166  H121  S    
C281  H154  S    
C108  O61   A    
C218  H54   S    
C38   C51   A    
C16   C235  S    
C165  C174  A    
C20   C240  S    
C208  H23   S    
C205  H21   S    
C220  H60   S    
O9    Zn8   S    
C231  C240  A    
C60   C228  S    
C199  H4    S    
C146  C265  A    
C245  H135  S    
C200  H11   S    
C27   N4    A    
O3    Zn6   S    
C189  I31   S    
C304  H57   S    
C94   C100  A    
C133  C295  A    
C213  H34   S    
C209  C210  S    
C143  O20   A    
C2    I12   S    
C78   O27   S    
C185  I27   S    
O47   Zn10  S    
C284  C292  A    
C219  H53   S    
C174  C265  S    
C7    C301  A    
C200  C202  S    
C56   C89   A    
C116  C125  A    
C158  I17   S    
C286  C299  A    
C11   H86   S    
C148  C230  S    
C118  C127  A    
C86   O35   S    
O51   Zn3   S    
C69   H112  S    
O50   Zn2   S    
C58   C91   A    
C17   C236  S    
C29   C140  A    
C81   O29   S    
C23   C134  A    
C75   O46   A    
C83   O31   S    
C250  O45   A    
C176  I18   S    
C75   C120  S    
C217  H47   S    
C16   C270  A    
C95   C102  A    
C140  C297  A    
C89   N7    S    
C80   C95   A    
C221  H58   S    
C227  H69   S    
C65   C72   A    
C142  O10   A    
C235  C244  A    
C18   C273  A    
C292  H147  S    
C154  I14   S    
C42   C120  A    
C60   C69   A    
C39   C119  A    
C42   H99   S    
C15   C234  S    
C44   C122  A    
C62   C71   A    
C99   C104  A    
C113  C262  A    
C29   N4    A    
C204  H14   S    
O58   Zn12  S    
C144  C201  S    
C9    C18   A    
C22   O37   S    
C80   N6    A    
C35   C189  A    
C207  H28   S    
C25   N2    A    
C80   O28   S    
C14   C233  S    
C192  I33   S    
C146  H129  S    
O23   Zn1   S    
C61   C70   A    
C256  C265  A    
C197  H163  S    
C213  H37   S    
C49   N2    S    
C195  H157  S    
C145  O14   A    
C100  C296  A    
C183  C192  A    
C272  O7    A    
C268  H141  S    
C176  C185  A    
C249  C258  A    
C222  C225  S    
O60   Zn3   S    
C157  C231  A    
C166  C175  A    
C13   C187  A    
C243  H133  S    
C123  C132  A    
C73   C107  S    
C19   C274  A    
C130  C139  A    
O53   Zn8   S    
C33   C49   A    
C98   C103  A    
C213  H36   S    
C66   H110  S    
C132  C293  A    
C111  H89   S    
C74   C119  S    
C64   C71   A    
C43   C121  A    
C173  C264  S    
C287  C300  A    
C180  C188  A    
C251  C259  A    
C144  O21   A    
C181  C189  A    
C208  H26   S    
O13   Zn11  S    
C131  C209  S    
C211  H39   S    
C160  C169  A    
C69   C73   A    
C43   H100  S    
C64   H108  S    
C281  C290  A    
C117  H94   S    
C222  H66   S    
C63   H107  S    
O18   Zn10  S    
C82   C93   A    
C256  C261  S    
C194  H161  S    
C186  I28   S    
C32   C48   A    
C31   C49   A    
C90   C259  A    
C35   I36   S    
C74   O47   A    
C103  C293  A    
C206  H19   S    
C193  I35   S    
C227  H67   S    
C141  O18   A    
C267  C276  A    
C32   I3    S    
C26   N3    A    
C289  H114  S    
C207  C208  S    
C1    O64   A    
C101  C190  A    
C278  C287  A    
C149  O17   A    
C246  C255  A    
C84   N8    A    
C67   H111  S    
C124  C212  A    
C124  C263  A    
C279  H152  S    
C269  H142  S    
C149  C231  S    
O45   Zn5   S    
O21   Zn9   S    
C225  H62   S    
C109  H87   S    
C129  C205  S    
C109  C128  A    
C110  H88   S    
C10   C19   A    
C1    C251  S    
C247  H138  S    
C177  I19   S    
C124  H127  S    
C39   H96   S    
C97   C116  A    
C200  H10   S    
C5    C14   A    
C40   H97   S    
C209  H32   S    
C178  C187  A    
C271  C280  A    
C40   C120  A    
O54   Zn9   S    
C244  C253  A    
C71   C105  S    
C70   C106  S    
C155  C164  A    
C182  C191  A    
C33   C42   A    
C286  H81   S    
C24   C153  A    
C158  C166  A    
C101  H124  S    
C29   O43   S    
C205  H22   S    
C57   I38   S    
C84   C99   A    
C236  C245  A    
C137  C296  A    
C229  H73   S    
C257  C266  A    
C13   C152  A    
C93   C102  A    
C82   N6    A    
C159  H113  S    
O16   Zn3   S    
C106  O57   A    
C245  C254  A    
C87   N5    S    
C223  O3    A    
C153  C162  A    
C24   C188  A    
C239  O34   A    
C273  C281  A    
C172  C263  S    
C282  H155  S    
C5    C299  A    
C20   C275  A    
C150  I9    S    
C6    C300  A    
C279  C288  A    
C194  C195  S    
C156  C165  A    
C210  H31   S    
C142  O19   A    
C237  C246  A    
C303  H46   S    
O25   Zn12  S    
C48   N1    S    
C12   C267  A    
C97   C104  A    
O57   Zn11  S    
C160  H115  S    
C282  C291  A    
C255  C264  A    
C118  H95   S    
C96   C103  A    
C240  C248  A    
C196  H167  S    
C202  H7    S    
C287  H92   S    
C175  C184  A    
C253  C262  A    
C203  C204  S    
C274  H146  S    
C162  H117  S    
C156  I16   S    
C198  H5    S    
C216  H49   S    
C211  H38   S    
C8    H83   S    
C58   C222  S    
C214  H44   S    
C205  C206  S    
C135  C224  A    
C261  O6    A    
O61   Zn4   S    
C223  O23   A    
C76   C121  S    
O17   Zn4   S    
C115  H91   S    
O56   Zn5   S    
C54   C87   A    
C78   N5    A    
C218  H55   S    
C201  C235  A    
C199  H3    S    
C56   C65   A    
C101  C260  A    
C283  O63   A    
C86   N8    A    
C59   C226  S    
C25   C136  A    
C130  C207  S    
C6    C15   A    
C58   C66   A    
C129  C138  A    
C112  O12   A    
C30   C39   A    
C52   C211  S    
C96   C115  A    
C198  C199  S    
C149  O26   A    
C167  C258  S    
C79   C168  A    
C224  C237  A    
C26   O40   S    
C234  C243  A    
C254  C283  S    
C24   I34   S    
C226  H71   S    
C23   O38   S    
O62   Zn5   S    
C178  I20   S    
C68   I39   S    
C229  H75   S    
C148  O25   A    
C14   C268  A    
C12   C232  S    
C157  H130  S    
C8    C302  A    
C280  H153  S    
C34   C50   A    
C106  O54   A    
C267  H140  S    
C154  C163  A    
C1    O1    A    
C216  C217  S    
C294  I1    S    
C257  C272  S    
C184  I26   S    
C214  C215  S    
C47   C122  A    
C183  I25   S    
C125  C196  S    
C66   C73   A    
C210  H29   S    
C41   C119  A    
C91   N8    S    
C302  H35   S    
C61   H105  S    
O14   Zn12  S    
C171  C262  S    
C128  C137  A    
C2    C186  A    
C81   N5    A    
C136  C295  A    
C53   C62   A    
C233  C242  A    
C83   N7    A    
C142  C179  S    
C10   H85   S    
C32   C41   A    
C55   C64   A    
C88   N6    S    
C13   I23   S    
O6    Zn7   S    
C138  C297  A    
C275  C284  A    
C38   C47   A    
C36   C51   A    
C190  C234  A    
C161  C170  A    
C79   H122  S    
C107  O60   A    
C211  C213  S    
C254  C263  A    
C226  C227  S    
C207  H27   S    
C47   H104  S    
C171  C180  A    
C230  C238  A    
O15   Zn2   S    
C228  H77   S    
O63   Zn5   S    
C92   C100  A    
C98   C117  A    
C45   H102  S    
C146  C230  A    
C60   C91   A    
C125  C133  A    
C250  C255  S    
C225  H64   S    
C90   C179  A    
C7    C16   A    
C7    H82   S    
C243  C252  A    
C79   C258  A    
C52   C87   A    
C41   H98   S    
C90   H123  S    
O24   Zn4   S    
C299  H2    S    
C144  O13   A    
C216  H50   S    
C300  H13   S    
C277  C286  A    
C46   I37   S    
C34   I5    S    
C3    H68   S    
C31   I2    S    
C151  C160  A    
C134  C293  A    
O10   Zn9   S    
C99   C118  A    
C191  I32   S    
C153  I13   S    
C218  C219  S    
C85   N7    A    
C143  C190  S    
C145  O22   A    
C269  C278  A    
C53   C88   A    
C215  H41   S    
O20   Zn8   S    
C276  H149  S    
C76   O49   A    
C248  C257  A    
C148  O16   A    
C275  H148  S    
C163  H118  S    
C272  O62   A    
C37   I7    S    
C169  C259  S    
C221  H56   S    
C170  C260  S    
C185  C294  A    
C15   C269  A    
C34   C43   A    
C167  C176  A    
C244  H134  S    
