data_mof_unit_18450.cif
_audit_creation_date              2013-03-05T16:06:47-0500
_audit_creation_method            fapswitch 2.2
_symmetry_space_group_name_H-M    P1
_symmetry_Int_Tables_number       1
_space_group_crystal_system       triclinic
_cell_length_a                    10.821284
_cell_length_b                    9.629459
_cell_length_c                    19.41852
_cell_angle_alpha                 89.989455
_cell_angle_beta                  92.926307
_cell_angle_gamma                 89.991648
_cell_volume                      2020.8315691

loop_
_atom_site_label
_atom_site_type_symbol
_atom_site_description
_atom_site_fract_x
_atom_site_fract_y
_atom_site_fract_z
_atom_type_partial_charge
O1    O     O_R   0.319640 0.618740 0.500000 -0.597359
O2    O     O_R   0.680360 0.381260 0.500000 -0.597222
O3    O     O_R   0.680360 0.618740 0.500000 -0.608254
O4    O     O_R   0.319640 0.381260 0.500000 -0.608293
C1    C     C_R   0.871612 0.500023 0.500004 -0.045170
C2    C     C_R   0.128386 0.499982 0.499979 -0.045140
C3    C     C_R   0.262395 0.500005 0.499904 0.792609
C4    C     C_R   0.737604 0.499995 0.500091 0.792626
O5    O     O_R   0.500020 0.618830 0.400190 -0.605814
O6    O     O_R   0.499980 0.381170 0.599810 -0.606135
O7    O     O_R   0.499980 0.618830 0.599810 -0.594683
O8    O     O_R   0.500020 0.381170 0.400190 -0.594426
C5    C     C_R   0.499812 0.500022 0.367811 0.798411
C6    C     C_R   0.500159 0.499971 0.632194 0.798224
Cu1   Cu    Cu3+1 0.500000 0.640660 0.500000 0.945338
Cu2   Cu    Cu3+1 0.500000 0.359340 0.500000 0.945286
C7    C     C_R   0.063094 0.375163 0.490822 -0.145755
C8    C     C_R   0.936904 0.624845 0.509158 -0.145612
C9    C     C_R   0.935236 0.375236 0.490739 -0.116462
C10   C     C_R   0.064762 0.624774 0.509235 -0.116512
H1    H     H_    0.110442 0.277611 0.483383 0.164355
H2    H     H_    0.889555 0.722396 0.516599 0.164427
H3    H     H_    0.886481 0.277858 0.482974 0.190515
H4    H     H_    0.113517 0.722156 0.516989 0.190322
C11   C     C_R   0.514566 0.374781 0.744725 -0.163519
C12   C     C_R   0.483079 0.624769 0.255208 -0.164190
C13   C     C_R   0.516848 0.375579 0.256157 -0.138480
C14   C     C_R   0.485232 0.624677 0.743951 -0.138758
H5    H     H_    0.526299 0.277010 0.718289 0.164783
H6    H     H_    0.469566 0.722264 0.281579 0.165240
H7    H     H_    0.531060 0.278224 0.283311 0.190531
H8    H     H_    0.472760 0.722352 0.716877 0.190651
C15   C     C_R   0.514735 0.374830 0.816442 -0.033814
C16   C     C_R   0.482782 0.624626 0.183488 -0.032760
C17   C     C_R   0.516929 0.375727 0.184460 -0.038581
C18   C     C_R   0.485222 0.624493 0.815650 -0.039212
H9    H     H_    0.526700 0.277811 0.844244 0.168951
H10   H     H_    0.468853 0.721295 0.155616 0.174058
H11   H     H_    0.530981 0.279093 0.157391 0.173582
H12   H     H_    0.473096 0.721433 0.842796 0.168828
C19   C     C_R   0.500066 0.499641 0.852111 0.198074
C20   C     C_R   0.499772 0.500168 0.147915 0.188343
C21   C     C_R   0.423172 0.074246 0.454609 0.063889
C22   C     C_R   0.576849 0.925764 0.545389 0.064572
C23   C     C_R   0.581350 0.074204 0.542872 0.066395
C24   C     C_R   0.418643 0.925810 0.457128 0.066757
C25   C     C_R   0.500055 0.499823 0.707857 -0.060346
C26   C     C_R   0.499851 0.500118 0.292158 -0.061105
C27   C     C_R   0.593444 0.571828 0.966543 0.227649
C28   C     C_R   0.406915 0.427469 0.033560 0.234903
C29   C     C_R   0.592810 0.572522 0.038825 0.236607
C30   C     C_R   0.406577 0.427669 0.961250 0.229248
N1    N     N_R   0.500000 0.852070 0.500000 -0.261500
N2    N     N_R   0.500000 0.147930 0.500000 -0.261662
C31   C     C_R   0.499789 0.500127 0.072199 -0.248285
C32   C     C_R   0.500072 0.499635 0.927845 -0.247142
C33   C     C_2   0.353015 0.146684 0.397533 0.467652
H13   H     H_    0.301165 0.239847 0.405696 0.104904
O9    O     O_2   0.353313 0.101314 0.338803 -0.544508
C34   C     C_2   0.647113 0.853347 0.602446 0.465259
H14   H     H_    0.698539 0.759877 0.594334 0.105791
O10   O     O_2   0.647380 0.899072 0.661124 -0.546473
C35   C     C_2   0.683649 0.146605 0.582050 0.467017
H15   H     H_    0.668827 0.239466 0.611146 0.106755
O11   O     O_2   0.789109 0.101431 0.581801 -0.556303
C36   C     C_2   0.316318 0.853446 0.417943 0.465622
H16   H     H_    0.331022 0.760306 0.389051 0.106800
O12   O     O_2   0.210938 0.898912 0.417992 -0.556430
N3    N     N_R   0.692821 0.637630 0.932620 0.161538
O13   O     O_R   0.713193 0.769937 0.940390 -0.249779
O14   O     O_R   0.758916 0.566939 0.890814 -0.285086
N4    N     N_R   0.308509 0.360804 0.067687 0.167905
O15   O     O_R   0.234775 0.433974 0.104171 -0.278500
O16   O     O_R   0.302785 0.225975 0.069939 -0.261261
N5    N     N_R   0.691110 0.639352 0.078539 0.166002
O17   O     O_R   0.765120 0.566249 0.119107 -0.285931
O18   O     O_R   0.696431 0.774189 0.081248 -0.269494
N6    N     N_R   0.307310 0.361695 0.921684 0.159319
O19   O     O_R   0.287409 0.229259 0.928152 -0.256796
O20   O     O_R   0.240985 0.432344 0.876191 -0.292986

loop_
_geom_bond_atom_site_label_1
_geom_bond_atom_site_label_2
_geom_bond_distance
_ccdc_geom_bond_type
C13   C26   1.405025 A    
C36   O12   1.221494 D    
C35   O11   1.221488 D    
C14   C25   1.405055 A    
C17   H11   1.083341 S    
C16   C20   1.400179 A    
Cu1   N1    2.035764 S    
C29   N5    1.434236 S    
C24   C36   1.484935 S    
O7    C6    1.305784 A    
N6    O20   1.301259 A    
C33   O9    1.221499 D    
Cu1   Cu2   2.708959 S    
C34   O10   1.221500 D    
N3    O14   1.301272 A    
C17   C20   1.400051 A    
O5    C5    1.305502 A    
C28   N4    1.434335 S    
O1    C3    1.300412 A    
O7    Cu1   1.949499 S    
C22   N1    1.377517 A    
C12   C16   1.392543 A    
O8    Cu2   1.949501 S    
C27   C29   1.403992 A    
C28   C30   1.403987 A    
O1    Cu1   1.963138 S    
O2    Cu2   1.963138 S    
C11   C25   1.405405 A    
C29   C31   1.409221 A    
C12   C26   1.405300 A    
C36   H16   1.074132 S    
C27   N3    1.436749 S    
C18   C19   1.400195 A    
O4    C3    1.300344 A    
C30   N6    1.436619 S    
C11   H5    1.082967 S    
C13   H7    1.082602 S    
C10   H4    1.082807 S    
C14   H8    1.082494 S    
N4    O16   1.300652 A    
O3    C4    1.300337 A    
O6    C6    1.305495 A    
N6    O19   1.300504 A    
C1    C8    1.401078 A    
C13   C17   1.392299 A    
C23   C35   1.484836 S    
C15   H9    1.083366 S    
C34   H14   1.074001 S    
C16   H10   1.083325 S    
O4    Cu2   1.963077 S    
C9    H3    1.082795 S    
N5    O17   1.301054 A    
C19   C32   1.470625 S    
C20   C31   1.470304 S    
C1    C4    1.450229 S    
C21   N2    1.377364 A    
C18   H12   1.083377 S    
N5    O18   1.300652 A    
C2    C3    1.450225 S    
C23   N2    1.377249 A    
C12   H6    1.082954 S    
O3    Cu1   1.963077 S    
C22   C23   1.431143 A    
C2    C7    1.401073 A    
C8    H2    1.083188 S    
O2    C4    1.300419 A    
N4    O15   1.301047 A    
C5    C26   1.469083 S    
C6    C25   1.469316 S    
C1    C9    1.400997 A    
C27   C32   1.411295 A    
C2    C10   1.401006 A    
C28   C31   1.409233 A    
C15   C19   1.400324 A    
O5    Cu1   1.949578 S    
O6    Cu2   1.949576 S    
C33   H13   1.074114 S    
C22   C34   1.485100 S    
C24   N1    1.377362 A    
C7    C9    1.383504 A    
C8    C10   1.383511 A    
N3    O13   1.300506 A    
C21   C24   1.431114 A    
Cu2   N2    2.035765 S    
C21   C33   1.484916 S    
C35   H15   1.074211 S    
O8    C5    1.305668 A    
C14   C18   1.392293 A    
C30   C32   1.411272 A    
C11   C15   1.392558 A    
C7    H1    1.083183 S    
