data_mof_unit_22322.cif
_audit_creation_date              2012-12-11T16:21:26-0500
_audit_creation_method            fapswitch 2.2
_symmetry_space_group_name_H-M    P1
_symmetry_Int_Tables_number       1
_space_group_crystal_system       monoclinic
_cell_length_a                    7.385338
_cell_length_b                    36.747356
_cell_length_c                    45.379446
_cell_angle_alpha                 90.0
_cell_angle_beta                  90.0
_cell_angle_gamma                 89.329775
_cell_volume                      12314.7598932

loop_
_atom_site_label
_atom_site_type_symbol
_atom_type_description
_atom_site_fract_x
_atom_site_fract_y
_atom_site_fract_z
_atom_type_partial_charge
O1    O     O_R   0.564240 0.782760 0.216890 -0.526134
O2    O     O_R   0.435760 0.217240 0.783110 -0.519508
O3    O     O_R   0.435760 0.217240 0.716890 -0.526134
O4    O     O_R   0.564240 0.782760 0.283110 -0.519508
O5    O     O_R   0.064240 0.717240 0.283110 -0.525666
O6    O     O_R   0.935760 0.282760 0.716890 -0.519840
O7    O     O_R   0.935760 0.282760 0.783110 -0.525666
O8    O     O_R   0.064240 0.717240 0.216890 -0.519840
O9    O     O_R   0.234510 0.787070 0.282870 -0.533162
O10   O     O_R   0.765490 0.212930 0.717130 -0.524978
O11   O     O_R   0.765490 0.212930 0.782870 -0.533162
O12   O     O_R   0.234510 0.787070 0.217130 -0.524978
O13   O     O_R   0.734510 0.712930 0.217130 -0.531028
O14   O     O_R   0.265490 0.287070 0.782870 -0.526298
O15   O     O_R   0.265490 0.287070 0.717130 -0.531028
O16   O     O_R   0.734510 0.712930 0.282870 -0.526298
C1    C     C_R   0.402138 0.795855 0.293526 0.747728
C2    C     C_R   0.597409 0.204133 0.706473 0.751004
C3    C     C_R   0.597862 0.204145 0.793526 0.747728
C4    C     C_R   0.402591 0.795867 0.206473 0.751004
C5    C     C_R   0.903760 0.704300 0.206448 0.736945
C6    C     C_R   0.096445 0.295717 0.793543 0.733522
C7    C     C_R   0.096240 0.295700 0.706448 0.736945
C8    C     C_R   0.903555 0.704283 0.293543 0.733522
O17   O     O_3   0.397750 0.727090 0.250000 -0.391233
O18   O     O_3   0.602250 0.272910 0.750000 -0.391233
O19   O     O_3   0.897750 0.772910 0.250000 -0.395404
O20   O     O_3   0.102250 0.227090 0.750000 -0.395404
V1    V     V_3+5 0.122890 0.754250 0.250000 1.642569
V2    V     V_3+5 0.877110 0.245750 0.750000 1.642569
V3    V     V_3+5 0.622890 0.745750 0.250000 1.640368
V4    V     V_3+5 0.377110 0.254250 0.750000 1.640368
C9    C     C_R   0.946224 0.612135 0.428760 0.617536
C10   C     C_R   0.056411 0.387861 0.571339 0.612986
C11   C     C_R   0.053776 0.387865 0.928760 0.617536
C12   C     C_R   0.943589 0.612139 0.071339 0.612986
C13   C     C_R   0.446843 0.887926 0.071243 0.616209
C14   C     C_R   0.555459 0.112080 0.928651 0.610936
C15   C     C_R   0.553157 0.112074 0.571243 0.616209
C16   C     C_R   0.444541 0.887919 0.428651 0.610936
O21   O     O_2   0.920696 0.647100 0.435114 -0.509329
O22   O     O_2   0.080043 0.352869 0.564989 -0.509070
O23   O     O_2   0.079304 0.352900 0.935114 -0.509329
O24   O     O_2   0.919957 0.647131 0.064989 -0.509070
O25   O     O_2   0.422639 0.853030 0.064920 -0.507512
O26   O     O_2   0.576692 0.147018 0.934973 -0.509837
O27   O     O_2   0.577361 0.146970 0.564920 -0.507512
O28   O     O_2   0.423308 0.852982 0.434973 -0.509837
N1    N     N_R   0.948111 0.601165 0.399671 -0.511009
N2    N     N_R   0.051498 0.398827 0.600343 -0.511237
N3    N     N_R   0.051889 0.398835 0.899671 -0.511009
N4    N     N_R   0.948502 0.601173 0.100343 -0.511237
N5    N     N_R   0.447865 0.898888 0.100355 -0.514283
N6    N     N_R   0.552175 0.101129 0.899644 -0.509316
N7    N     N_R   0.552135 0.101112 0.600355 -0.514283
N8    N     N_R   0.447825 0.898871 0.399644 -0.509316
C17   C     C_R   0.965697 0.565023 0.397338 0.704026
C18   C     C_R   0.034420 0.434975 0.602664 0.701460
C19   C     C_R   0.034303 0.434977 0.897338 0.704026
C20   C     C_R   0.965580 0.565025 0.102664 0.701460
C21   C     C_R   0.463862 0.935052 0.102743 0.725692
C22   C     C_R   0.535961 0.064999 0.897339 0.699429
C23   C     C_R   0.536138 0.064948 0.602743 0.725692
C24   C     C_R   0.464039 0.935001 0.397339 0.699429
C25   C     C_R   0.942951 0.615346 0.340696 -0.054745
C26   C     C_R   0.056957 0.384653 0.659308 -0.056639
C27   C     C_R   0.057049 0.384654 0.840696 -0.054745
C28   C     C_R   0.943043 0.615347 0.159308 -0.056639
C29   C     C_R   0.441865 0.884603 0.159290 -0.048186
C30   C     C_R   0.558133 0.115419 0.840705 -0.058387
C31   C     C_R   0.558135 0.115396 0.659290 -0.048186
C32   C     C_R   0.441867 0.884580 0.340705 -0.058387
C33   C     C_R   0.931841 0.639835 0.316308 -0.279491
C34   C     C_R   0.068184 0.360152 0.683690 -0.282131
C35   C     C_R   0.068159 0.360165 0.816307 -0.279491
C36   C     C_R   0.931816 0.639848 0.183690 -0.282131
C37   C     C_R   0.430231 0.860112 0.183655 -0.290528
C38   C     C_R   0.569759 0.139921 0.816357 -0.286157
C39   C     C_R   0.569769 0.139888 0.683655 -0.290528
C40   C     C_R   0.430241 0.860079 0.316357 -0.286157
C41   C     C_R   0.904031 0.691391 0.349950 0.411036
C42   C     C_R   0.089009 0.308611 0.649901 0.406148
C43   C     C_R   0.095969 0.308609 0.849950 0.411036
C44   C     C_R   0.910991 0.691389 0.149901 0.406148
C45   C     C_R   0.416297 0.808654 0.149612 0.459642
C46   C     C_R   0.608660 0.191062 0.850344 0.451684
C47   C     C_R   0.583703 0.191346 0.649612 0.459642
C48   C     C_R   0.391340 0.808938 0.350344 0.451684
C49   C     C_R   0.918758 0.665640 0.374227 -0.190319
C50   C     C_R   0.077571 0.334362 0.625737 -0.195085
C51   C     C_R   0.081242 0.334360 0.874227 -0.190319
C52   C     C_R   0.922429 0.665638 0.125737 -0.195085
C53   C     C_R   0.424137 0.834345 0.125623 -0.181654
C54   C     C_R   0.584946 0.165644 0.874334 -0.181525
C55   C     C_R   0.575863 0.165655 0.625623 -0.181654
C56   C     C_R   0.415054 0.834356 0.374334 -0.181525
C57   C     C_R   0.937347 0.626684 0.371758 0.288498
C58   C     C_R   0.061631 0.373317 0.628242 0.295682
C59   C     C_R   0.062653 0.373315 0.871758 0.288498
C60   C     C_R   0.938369 0.626683 0.128242 0.295682
C61   C     C_R   0.437824 0.873313 0.128212 0.280454
C62   C     C_R   0.563273 0.126733 0.871778 0.286052
C63   C     C_R   0.562176 0.126687 0.628212 0.280454
C64   C     C_R   0.436727 0.873267 0.371778 0.286052
C65   C     C_R   0.978571 0.549781 0.449468 -0.107967
C66   C     C_R   0.021431 0.450067 0.550549 -0.110457
C67   C     C_R   0.021429 0.450219 0.949468 -0.107967
C68   C     C_R   0.978569 0.549933 0.050549 -0.110457
C69   C     C_R   0.478509 0.950254 0.050533 -0.111346
C70   C     C_R   0.521274 0.049898 0.949455 -0.108738
C71   C     C_R   0.521491 0.049746 0.550533 -0.111346
C72   C     C_R   0.478726 0.950102 0.449455 -0.108738
C73   C     C_R   0.965996 0.587928 0.454444 -0.040900
C74   C     C_R   0.042474 0.411965 0.545775 -0.016273
C75   C     C_R   0.034004 0.412071 0.954444 -0.040900
C76   C     C_R   0.957526 0.588035 0.045775 -0.016273
C77   C     C_R   0.466277 0.912095 0.045568 -0.047196
C78   C     C_R   0.541597 0.087962 0.954219 -0.016753
C79   C     C_R   0.533723 0.087905 0.545568 -0.047196
C80   C     C_R   0.458403 0.912038 0.454219 -0.016753
C81   C     C_R   0.974891 0.599890 0.484935 -0.087817
C82   C     C_R   0.048429 0.399575 0.515672 -0.098988
C83   C     C_R   0.025109 0.400110 0.984935 -0.087817
C84   C     C_R   0.951570 0.600425 0.015672 -0.098988
C85   C     C_R   0.481258 0.900161 0.015137 -0.073613
C86   C     C_R   0.546793 0.100303 0.984301 -0.093705
C87   C     C_R   0.518742 0.099839 0.515137 -0.073613
C88   C     C_R   0.453207 0.899697 0.484301 -0.093705
C89   C     C_R   0.979496 0.537227 0.419562 -0.225363
C90   C     C_R   0.017494 0.462803 0.580509 -0.226041
C91   C     C_R   0.020504 0.462773 0.919562 -0.225363
C92   C     C_R   0.982506 0.537197 0.080509 -0.226041
C93   C     C_R   0.478729 0.962765 0.080423 -0.231850
C94   C     C_R   0.517852 0.037155 0.919493 -0.225904
C95   C     C_R   0.521271 0.037235 0.580423 -0.231850
C96   C     C_R   0.482148 0.962845 0.419493 -0.225904
C97   C     C_R   0.912705 0.678052 0.320314 -0.123511
C98   C     C_R   0.085621 0.321909 0.679646 -0.114504
C99   C     C_R   0.087295 0.321947 0.820314 -0.123511
C100  C     C_R   0.914379 0.678091 0.179646 -0.114504
C101  C     C_R   0.412269 0.821978 0.179542 -0.126391
C102  C     C_R   0.592332 0.178030 0.820445 -0.125100
C103  C     C_R   0.587731 0.178022 0.679542 -0.126391
C104  C     C_R   0.407668 0.821970 0.320445 -0.125100
C105  C     C_R   0.986833 0.512188 0.531132 -0.119778
C106  C     C_R   0.004864 0.486497 0.469024 -0.101791
C107  C     C_R   0.013167 0.487812 0.031132 -0.119778
C108  C     C_R   0.995136 0.513503 0.969024 -0.101791
C109  C     C_R   0.482864 0.987603 0.968881 -0.123936
C110  C     C_R   0.505176 0.013577 0.030964 -0.102986
C111  C     C_R   0.517136 0.012397 0.468881 -0.123936
C112  C     C_R   0.494824 0.986423 0.530964 -0.102986
C113  C     C_R   0.014979 0.462400 0.495402 0.075982
C114  C     C_R   0.992513 0.536799 0.504968 -0.023413
C115  C     C_R   0.985021 0.537600 0.995402 0.075982
C116  C     C_R   0.007487 0.463200 0.004968 -0.023413
C117  C     C_R   0.514437 0.037589 0.004612 0.078028
C118  C     C_R   0.492961 0.963198 0.995012 -0.016133
C119  C     C_R   0.485563 0.962411 0.504612 0.078028
C120  C     C_R   0.507039 0.036802 0.495012 -0.016133
C121  C     C_R   0.005176 0.474438 0.525511 0.072687
C122  C     C_R   0.990131 0.524748 0.474498 0.057030
C123  C     C_R   0.994824 0.525562 0.025511 0.072687
C124  C     C_R   0.009869 0.475251 0.974498 0.057030
C125  C     C_R   0.503052 0.025570 0.974471 0.073844
C126  C     C_R   0.490104 0.975286 0.025505 0.054828
C127  C     C_R   0.496948 0.974429 0.474471 0.073844
C128  C     C_R   0.509896 0.024714 0.525505 0.054828
C129  C     C_R   0.975877 0.526704 0.562554 0.236914
C130  C     C_R   0.012504 0.473274 0.437487 0.261798
C131  C     C_R   0.024123 0.473296 0.062553 0.236914
C132  C     C_R   0.987496 0.526726 0.937487 0.261798
C133  C     C_R   0.473246 0.973393 0.937459 0.241014
C134  C     C_R   0.514603 0.026684 0.062493 0.258020
C135  C     C_R   0.526753 0.026607 0.437459 0.241014
C136  C     C_R   0.485397 0.973316 0.562493 0.258020
C137  C     C_R   0.993324 0.501085 0.587525 0.357830
C138  C     C_R   0.999165 0.498936 0.412701 0.349196
C139  C     C_R   0.006676 0.498914 0.087525 0.357830
C140  C     C_R   0.000835 0.501063 0.912701 0.349196
C141  C     C_R   0.492683 0.999032 0.912454 0.354442
C142  C     C_R   0.499710 0.000985 0.087239 0.380446
C143  C     C_R   0.507317 0.000968 0.412454 0.354442
C144  C     C_R   0.500290 0.999015 0.587239 0.380446
O29   O     O_2   0.033448 0.442916 0.628296 -0.516352
O30   O     O_2   0.971082 0.557099 0.371718 -0.516454
O31   O     O_2   0.966552 0.557084 0.128296 -0.516352
O32   O     O_2   0.028918 0.442901 0.871718 -0.516454
O33   O     O_2   0.536072 0.057059 0.871672 -0.520174
O34   O     O_2   0.449342 0.943034 0.128366 -0.489402
O35   O     O_2   0.463928 0.942940 0.371671 -0.520174
O36   O     O_2   0.550658 0.056966 0.628366 -0.489402
C145  C     C_R   0.986793 0.574180 0.508604 0.061368
C146  C     C_R   0.034538 0.425546 0.492725 -0.062862
C147  C     C_R   0.013207 0.425820 0.008604 0.061368
C148  C     C_R   0.965462 0.574453 0.992725 -0.062862
C149  C     C_R   0.463854 0.925827 0.990358 0.053737
C150  C     C_R   0.533154 0.074520 0.007335 -0.079192
C151  C     C_R   0.536146 0.074173 0.490358 0.053737
C152  C     C_R   0.466846 0.925480 0.507335 -0.079192
H1    H     H_    0.063148 0.370785 0.706081 0.143292
H2    H     H_    0.938331 0.629220 0.293918 0.143847
H3    H     H_    0.936852 0.629215 0.206081 0.143292
H4    H     H_    0.061669 0.370780 0.793918 0.143847
H5    H     H_    0.561478 0.129372 0.793947 0.143232
H6    H     H_    0.435386 0.870687 0.206068 0.144700
H7    H     H_    0.438522 0.870628 0.293947 0.143232
H8    H     H_    0.564614 0.129313 0.706068 0.144700
H9    H     H_    0.046110 0.412307 0.667016 0.216057
H10   H     H_    0.953746 0.587682 0.332999 0.216595
H11   H     H_    0.953890 0.587693 0.167016 0.216057
H12   H     H_    0.046254 0.412318 0.832999 0.216595
H13   H     H_    0.545659 0.087822 0.833028 0.213999
H14   H     H_    0.452329 0.912209 0.166957 0.225669
H15   H     H_    0.454341 0.912178 0.333029 0.213999
H16   H     H_    0.547671 0.087791 0.666957 0.225669
S1    S     S_3+6 0.879283 0.740576 0.358929 0.091359
O37   O     O_2   0.005774 0.767159 0.343288 -0.275121
O38   O     O_2   0.718133 0.759969 0.349453 -0.304639
O39   O     O_3   0.899309 0.741929 0.395950 -0.469904
H17   H     H_    0.807171 0.758167 0.404531 0.384306
S2    S     S_3+6 0.115465 0.259556 0.640574 0.086455
O40   O     O_2   0.260458 0.239100 0.657726 -0.284205
O41   O     O_2   0.972494 0.234185 0.648362 -0.297534
O42   O     O_3   0.146161 0.258127 0.603657 -0.468328
H18   H     H_    0.064545 0.239736 0.595047 0.378138
S3    S     S_3+6 0.120717 0.259424 0.858929 0.091359
O43   O     O_2   0.994226 0.232841 0.843288 -0.275121
O44   O     O_2   0.281867 0.240031 0.849453 -0.304639
O45   O     O_3   0.100691 0.258071 0.895950 -0.469904
H19   H     H_    0.192829 0.241833 0.904531 0.384306
S4    S     S_3+6 0.884535 0.740444 0.140574 0.086455
O46   O     O_2   0.739542 0.760900 0.157726 -0.284205
O47   O     O_2   0.027506 0.765814 0.148362 -0.297534
O48   O     O_3   0.853839 0.741873 0.103657 -0.468328
H20   H     H_    0.935455 0.760264 0.095047 0.378138
S5    S     S_3+6 0.381120 0.759701 0.140709 0.131410
O49   O     O_2   0.523823 0.733100 0.129346 -0.229649
O50   O     O_2   0.296990 0.740240 0.165555 -0.319792
O51   O     O_3   0.258842 0.760668 0.109420 -0.478347
H21   H     H_    0.188877 0.739044 0.109612 0.389116
S6    S     S_3+6 0.622585 0.240572 0.859250 0.129964
O52   O     O_2   0.776491 0.261056 0.871871 -0.228863
O53   O     O_2   0.554542 0.264082 0.835063 -0.317708
O54   O     O_3   0.503059 0.243432 0.890703 -0.479124
H22   H     H_    0.440794 0.266873 0.889608 0.388211
S7    S     S_3+6 0.618879 0.240299 0.640709 0.131410
O55   O     O_2   0.476177 0.266900 0.629346 -0.229649
O56   O     O_2   0.703010 0.259760 0.665555 -0.319792
O57   O     O_3   0.741158 0.239332 0.609420 -0.478347
H23   H     H_    0.811123 0.260956 0.609612 0.389116
S8    S     S_3+6 0.377415 0.759428 0.359250 0.129964
O58   O     O_2   0.223509 0.738943 0.371871 -0.228863
O59   O     O_2   0.445458 0.735917 0.335063 -0.317708
O60   O     O_3   0.496941 0.756568 0.390703 -0.479124
H24   H     H_    0.559206 0.733127 0.389608 0.388211
H25   H     H_    0.913977 0.678042 0.395181 0.246331
H26   H     H_    0.080276 0.321835 0.604813 0.240658
H27   H     H_    0.086023 0.321957 0.895181 0.246331
H28   H     H_    0.919724 0.678165 0.104813 0.240658
H29   H     H_    0.419947 0.821494 0.104747 0.243776
H30   H     H_    0.589031 0.178404 0.895249 0.244922
H31   H     H_    0.580052 0.178506 0.604747 0.243776
H32   H     H_    0.410969 0.821596 0.395249 0.244922
H33   H     H_    0.961131 0.628847 0.490343 0.208496
H34   H     H_    0.059734 0.370526 0.510265 0.203420
H35   H     H_    0.038869 0.371153 0.990343 0.208496
H36   H     H_    0.940266 0.629474 0.010265 0.203420
H37   H     H_    0.465023 0.871261 0.009593 0.206127
H38   H     H_    0.557416 0.129311 0.989725 0.203036
H39   H     H_    0.534977 0.128739 0.509594 0.206127
H40   H     H_    0.442584 0.870688 0.489725 0.203036
S9    S     S_3+6 0.989748 0.515951 0.626988 0.179801
O61   O     O_2   0.145963 0.540534 0.631759 -0.198716
O62   O     O_2   0.808679 0.534017 0.632792 -0.293389
O63   O     O_3   0.019337 0.489057 0.656369 -0.422380
H41   H     H_    0.900046 0.485600 0.664752 0.384553
S10   S     S_3+6 0.008382 0.484215 0.372989 0.184144
O64   O     O_2   0.189104 0.465925 0.367397 -0.201366
O65   O     O_2   0.850303 0.460107 0.367524 -0.289556
O66   O     O_3   0.999388 0.511349 0.343487 -0.422333
H42   H     H_    0.876123 0.510337 0.335784 0.387142
S11   S     S_3+6 0.010252 0.484049 0.126988 0.179801
O67   O     O_2   0.854037 0.459466 0.131759 -0.198716
O68   O     O_2   0.191321 0.465983 0.132792 -0.293389
O69   O     O_3   0.980662 0.510943 0.156368 -0.422380
H43   H     H_    0.099954 0.514400 0.164752 0.384553
S12   S     S_3+6 0.991618 0.515784 0.872989 0.184144
O70   O     O_2   0.810896 0.534075 0.867397 -0.201366
O71   O     O_2   0.149697 0.539893 0.867524 -0.289556
O72   O     O_3   0.000612 0.488651 0.843487 -0.422333
H44   H     H_    0.123877 0.489663 0.835784 0.387142
S13   S     S_3+6 0.490186 0.984222 0.872977 0.181412
O73   O     O_2   0.647487 0.958391 0.868582 -0.196992
O74   O     O_2   0.310453 0.967467 0.866757 -0.290767
O75   O     O_3   0.525096 0.010829 0.843668 -0.418227
H45   H     H_    0.404403 0.017337 0.835920 0.379153
S14   S     S_3+6 0.503091 0.015692 0.126755 0.162850
O76   O     O_2   0.687274 0.031150 0.134683 -0.235937
O77   O     O_2   0.351685 0.042140 0.129176 -0.287557
O78   O     O_3   0.463473 0.989309 0.154538 -0.432919
H46   H     H_    0.452562 0.006759 0.170677 0.400125
S15   S     S_3+6 0.509814 0.015778 0.372977 0.181412
O79   O     O_2   0.352513 0.041609 0.368582 -0.196992
O80   O     O_2   0.689546 0.032533 0.366757 -0.290767
O81   O     O_3   0.474904 0.989171 0.343668 -0.418227
H47   H     H_    0.595597 0.982663 0.335921 0.379153
S16   S     S_3+6 0.496909 0.984308 0.626755 0.162850
O82   O     O_2   0.312726 0.968850 0.634683 -0.235937
O83   O     O_2   0.648315 0.957860 0.629176 -0.287557
O84   O     O_3   0.536527 0.010691 0.654538 -0.432919
H48   H     H_    0.547438 0.993241 0.670677 0.400125
S17   S     S_3+6 0.954178 0.577328 0.571914 0.118456
O85   O     O_2   0.113489 0.598673 0.560489 -0.263898
O86   O     O_2   0.776295 0.595798 0.562350 -0.319975
O87   O     O_3   0.964519 0.584580 0.607074 -0.372300
H49   H     H_    0.852462 0.596615 0.613104 0.424961
S18   S     S_3+6 0.039123 0.424504 0.426312 0.099778
O88   O     O_2   0.217682 0.409119 0.437277 -0.299560
O89   O     O_2   0.879054 0.402990 0.436058 -0.322540
O90   O     O_3   0.055654 0.417527 0.392109 -0.368158
H50   H     H_    0.952572 0.402639 0.387270 0.429652
S19   S     S_3+6 0.045822 0.422672 0.071914 0.118456
O91   O     O_2   0.886511 0.401327 0.060489 -0.263898
O92   O     O_2   0.223705 0.404202 0.062350 -0.319975
O93   O     O_3   0.035481 0.415420 0.107074 -0.372300
H51   H     H_    0.147538 0.403385 0.113104 0.424961
S20   S     S_3+6 0.960877 0.575496 0.926312 0.099778
O94   O     O_2   0.782318 0.590881 0.937277 -0.299560
O95   O     O_2   0.120946 0.597010 0.936058 -0.322540
O96   O     O_3   0.944346 0.582472 0.892109 -0.368158
H52   H     H_    0.047428 0.597360 0.887270 0.429652
S21   S     S_3+6 0.454096 0.922937 0.928302 0.120424
O97   O     O_2   0.614544 0.900397 0.939408 -0.260199
O98   O     O_2   0.276652 0.904618 0.936865 -0.316745
O99   O     O_3   0.463362 0.915937 0.892817 -0.372809
H53   H     H_    0.353477 0.903381 0.886930 0.424274
S22   S     S_3+6 0.542257 0.075190 0.073677 0.101334
O100  O     O_2   0.716424 0.090097 0.062699 -0.289549
O101  O     O_2   0.376331 0.097456 0.064302 -0.328633
O102  O     O_3   0.558769 0.082540 0.107891 -0.368974
H54   H     H_    0.453246 0.097476 0.112595 0.430454
S23   S     S_3+6 0.545904 0.077063 0.428302 0.120424
O103  O     O_2   0.385456 0.099603 0.439408 -0.260199
O104  O     O_2   0.723348 0.095382 0.436865 -0.316745
O105  O     O_3   0.536638 0.084062 0.392817 -0.372809
H55   H     H_    0.646523 0.096619 0.386930 0.424274
S24   S     S_3+6 0.457742 0.924810 0.573677 0.101334
O106  O     O_2   0.283576 0.909903 0.562699 -0.289549
O107  O     O_2   0.623669 0.902544 0.564302 -0.328633
O108  O     O_3   0.441231 0.917460 0.607891 -0.368974
H56   H     H_    0.546754 0.902524 0.612595 0.430454
H57   H     H_    0.886244 0.572123 0.522579 0.189581
H58   H     H_    0.085287 0.411847 0.473192 0.251973
H59   H     H_    0.113755 0.427877 0.022579 0.189581
H60   H     H_    0.914713 0.588153 0.973192 0.251973
H61   H     H_    0.376023 0.930100 0.979112 0.178087
H62   H     H_    0.547016 0.087859 0.026732 0.253227
H63   H     H_    0.623977 0.069900 0.479112 0.178087
H64   H     H_    0.452984 0.912141 0.526732 0.253227

loop_
_geom_bond_atom_site_label_1
_geom_bond_atom_site_label_2
_ccdc_geom_bond_type
C149  H61   S    
O72   H44   S    
C10   O22   S    
C70   C78   A    
C48   C56   A    
C21   C93   A    
O15   V4    S    
S15   O80   D    
S21   O97   D    
O16   V3    S    
C19   C91   A    
C130  C138  A    
C135  C143  A    
C132  S20   S    
S21   O99   S    
C31   H16   S    
S9    O63   S    
C136  C144  A    
C113  C146  A    
C55   C63   A    
S6    O53   D    
C11   C75   A    
O93   H51   S    
C53   H29   S    
S16   O84   S    
C48   S8    S    
C55   H31   S    
O54   H22   S    
C20   C92   A    
C82   C146  A    
N6    C62   S    
S6    O54   S    
C75   C83   A    
C69   C93   A    
S19   O91   D    
S12   O72   S    
C116  C147  A    
C53   C61   A    
C72   C80   A    
C134  S22   S    
C6    C99   S    
C84   H36   S    
C113  C121  A    
O87   H49   S    
C90   C137  A    
C106  C122  A    
C138  S10   S    
S15   O79   D    
C46   S6    S    
O11   C3    A    
O12   C4    A    
S4    O47   D    
O81   H47   S    
O13   C5    A    
C67   C91   A    
C119  C152  A    
C54   H30   S    
C56   C64   A    
C11   N3    A    
C12   O24   S    
S14   O76   D    
C45   C101  A    
C50   H26   S    
C15   O27   S    
S7    O57   S    
C66   C90   A    
O1    C4    A    
S18   O90   S    
O2    C3    A    
C86   H38   S    
C29   H14   S    
O99   H53   S    
C47   S7    S    
C42   S2    S    
C34   H1    S    
C29   C61   A    
O7    C6    A    
C43   C51   A    
C89   C138  A    
C38   H5    S    
C42   C98   A    
C33   C97   A    
O10   C2    A    
C111  C127  A    
C96   C143  A    
S24   O106  D    
C119  C127  A    
C120  C128  A    
C44   S4    S    
C37   C101  A    
C69   C126  A    
N1    C57   S    
C32   H15   S    
C13   C77   A    
C54   C62   A    
O90   H50   S    
C49   C57   A    
C151  H63   S    
S8    O58   D    
O17   V3    S    
C24   C96   A    
O18   V4    S    
C110  C117  A    
O12   V1    S    
O19   V1    S    
C29   C37   A    
O108  H56   S    
C134  C142  A    
C31   C39   A    
C105  C121  A    
C1    C104  S    
O8    V1    S    
C141  S13   S    
C2    C103  S    
S17   O86   D    
C23   O36   S    
C110  C126  A    
O1    V3    S    
N1    C17   A    
O2    V4    S    
C117  C150  A    
C144  S16   S    
C66   C121  A    
C85   H37   S    
C133  S21   S    
C115  C148  A    
N4    C20   A    
C45   C53   A    
C39   C103  A    
C40   C104  A    
N7    C23   A    
N8    C24   A    
C108  C115  A    
C11   O23   S    
C109  C118  A    
C12   N4    A    
C13   N5    A    
C86   C150  A    
C112  C119  A    
C56   H32   S    
C87   H39   S    
S5    O49   D    
S11   O69   S    
C88   H40   S    
C131  C139  A    
O45   H19   S    
C72   C96   A    
C129  C137  A    
O39   H17   S    
S16   O83   D    
O8    C5    A    
C120  C151  A    
N2    C58   S    
C108  C124  A    
C109  C125  A    
C117  C125  A    
S2    O42   S    
C115  C123  A    
S1    O37   D    
C72   C127  A    
N4    C60   S    
S24   O108  S    
S19   O92   D    
S12   O71   D    
C28   C60   A    
S13   O73   D    
C130  S18   S    
C41   S1    S    
C84   C148  A    
S2    O41   D    
C25   H10   S    
S8    O60   S    
C105  C114  A    
S3    O44   D    
S22   O101  D    
S23   O104  D    
O14   C6    A    
C70   C94   A    
C27   C35   A    
C12   C76   A    
C44   C100  A    
C82   H34   S    
C31   C63   A    
C3    C102  S    
C152  H64   S    
C4    C101  S    
C114  C122  A    
S20   O94   D    
C135  S23   S    
C91   C140  A    
C148  H60   S    
C8    C97   S    
C28   C36   A    
S22   O102  S    
C9    C73   A    
C26   C58   A    
C106  C130  A    
C32   C40   A    
C107  C123  A    
C15   C79   A    
O51   H21   S    
S9    O62   D    
C68   C92   A    
C51   H27   S    
C73   C81   A    
O63   H41   S    
S5    O51   S    
S11   O67   D    
S10   O64   D    
C44   C52   A    
C51   C59   A    
C77   C85   A    
C79   C87   A    
C150  H62   S    
C142  S14   S    
C7    C98   S    
O84   H48   S    
C146  H58   S    
C43   C99   A    
C36   H3    S    
C69   C77   A    
S1    O39   S    
C41   C97   A    
C34   C98   A    
C139  S11   S    
S13   O75   S    
C38   C102  A    
C70   C125  A    
C30   C38   A    
C9    N1    A    
C131  S19   S    
C136  S24   S    
C114  C145  A    
C15   N7    A    
O11   V2    S    
N5    C61   S    
C16   N8    A    
S10   O66   S    
O48   H20   S    
C22   O33   S    
C27   C59   A    
C41   C49   A    
C132  C140  A    
S21   O98   D    
C133  C141  A    
O7    V2    S    
C18   O29   S    
C83   C147  A    
S14   O77   D    
S20   O96   S    
C81   C145  A    
C112  C128  A    
S15   O81   S    
S7    O56   D    
C68   C123  A    
C105  C129  A    
C111  C135  A    
N2    C18   A    
N8    C64   S    
C32   C64   A    
O57   H23   S    
C87   C151  A    
S14   O78   S    
O96   H52   S    
C88   C152  A    
C14   N6    A    
C147  H59   S    
C35   H4    S    
S24   O107  D    
S6    O52   D    
C27   H12   S    
C107  C116  A    
C17   O30   S    
O4    C1    A    
C16   C80   A    
C20   O31   S    
C21   O34   S    
S1    O38   D    
C81   H33   S    
C24   O35   S    
C118  C126  A    
S8    O59   D    
C65   C73   A    
C16   O28   S    
C76   C84   A    
C30   H13   S    
O13   V3    S    
O78   H46   S    
O14   V4    S    
C80   C88   A    
N6    C22   A    
C33   H2    S    
C42   C50   A    
C9    O21   S    
C68   C76   A    
C37   H6    S    
C111  C120  A    
C71   C95   A    
S17   O85   D    
C106  C113  A    
C18   C90   A    
C74   C82   A    
S4    O46   D    
C45   S5    S    
O3    V4    S    
O4    V3    S    
C14   C78   A    
C83   H35   S    
C35   C99   A    
C71   C128  A    
C5    C100  S    
C26   C34   A    
C143  S15   S    
S23   O103  D    
S11   O68   D    
C145  H57   S    
C129  S17   S    
C43   S3    S    
O102  H54   S    
C66   C74   A    
C17   C89   A    
O69   H43   S    
C39   H8    S    
N7    C63   S    
C118  C149  A    
C25   C33   A    
O3    C2    A    
O10   V2    S    
C46   C54   A    
S3    O43   D    
S18   O89   D    
C30   C62   A    
O9    V1    S    
O15   C7    A    
C85   C149  A    
O16   C8    A    
N5    C21   A    
C95   C144  A    
C52   H28   S    
C107  C131  A    
C137  S9    S    
O5    V1    S    
C36   C100  A    
N3    C59   S    
C10   N2    A    
C14   O26   S    
C46   C102  A    
C49   H25   S    
S20   O95   D    
S17   O87   S    
C65   C89   A    
O66   H42   S    
S4    O48   S    
C47   C55   A    
C23   C95   A    
C140  S12   S    
S18   O88   D    
S3    O45   S    
O42   H18   S    
C19   O32   S    
C26   H9    S    
C67   C75   A    
C71   C79   A    
O9    C1    A    
C110  C134  A    
S5    O50   D    
S10   O65   D    
N3    C19   A    
C94   C141  A    
O60   H24   S    
S16   O82   D    
C52   C60   A    
O75   H45   S    
O6    V2    S    
S7    O55   D    
C10   C74   A    
S19   O93   S    
S12   O70   D    
C22   C94   A    
O20   V2    S    
C25   C57   A    
S13   O74   D    
O105  H55   S    
O5    C8    A    
O6    C7    A    
C108  C132  A    
C48   C104  A    
C109  C133  A    
S2    O40   D    
C92   C139  A    
C112  C136  A    
C93   C142  A    
C40   H7    S    
C67   C124  A    
C116  C124  A    
S22   O100  D    
S23   O105  S    
C65   C122  A    
C78   C86   A    
C47   C103  A    
C28   H11   S    
C13   O25   S    
C50   C58   A    
S9    O61   D    
