data_mof_unit_10431.cif
_audit_creation_date              2012-12-10T18:13:27-0500
_audit_creation_method            fapswitch 2.2
_symmetry_space_group_name_H-M    P1
_symmetry_Int_Tables_number       1
_space_group_crystal_system       triclinic
_cell_length_a                    12.582256
_cell_length_b                    13.249772
_cell_length_c                    16.801078
_cell_angle_alpha                 91.072948
_cell_angle_beta                  97.728897
_cell_angle_gamma                 96.597472
_cell_volume                      2755.45441232

loop_
_atom_site_label
_atom_site_type_symbol
_atom_type_description
_atom_site_fract_x
_atom_site_fract_y
_atom_site_fract_z
_atom_type_partial_charge
C1    C     C_R   0.557580 0.689910 0.519920 0.895147
C2    C     C_R   0.603690 0.448428 0.233521 -0.205718
C3    C     C_R   0.550919 0.495063 0.874172 -0.003215
C4    C     C_R   0.562955 0.507424 0.793637 -0.266783
C5    C     C_R   0.369745 0.466372 0.755715 -0.222662
C6    C     C_R   0.355502 0.449788 0.835161 0.231506
C7    C     C_R   0.446889 0.462343 0.894726 0.123934
C8    C     C_2   0.492119 0.380354 0.021297 -0.223490
C9    C     C_2   0.433339 0.443077 0.977982 -0.238931
C10   C     C_R   0.472948 0.492838 0.734699 -0.085890
C11   C     C_R   0.271307 0.055597 0.465094 -0.214418
C12   C     C_R   0.511749 0.491855 0.349322 0.867590
C13   C     C_R   0.406206 0.201054 0.488967 -0.061181
C14   C     C_R   0.698258 0.835904 0.571049 0.094234
C15   C     C_R   0.732509 0.938639 0.557843 0.033661
C16   C     C_R   0.656634 0.000699 0.521841 0.087459
C17   C     C_R   0.543734 0.968812 0.521418 0.039308
C18   C     C_R   0.511123 0.866550 0.536571 0.009399
C19   C     C_R   0.461245 0.033402 0.505990 0.106846
C20   C     C_R   0.350887 0.992771 0.490628 0.173433
C21   C     C_R   0.321429 0.892947 0.509159 -0.274094
C22   C     C_R   0.400492 0.834884 0.540436 -0.154218
C23   C     C_R   0.440622 0.309186 0.491680 0.869024
C24   C     C_R   0.484272 0.137794 0.513810 -0.269834
C25   C     C_R   0.299549 0.159998 0.462439 -0.199536
C26   C     C_R   0.589369 0.797803 0.545429 -0.168072
C27   C     C_R   0.902801 0.351540 0.612303 -0.303181
C28   C     C_R   0.209067 0.629156 0.406954 0.008613
C29   C     C_R   0.106430 0.658511 0.388758 -0.268156
C30   C     C_R   0.021669 0.610001 0.424327 -0.204406
C31   C     C_R   0.039579 0.531406 0.478605 0.020543
C32   C     C_R   0.145952 0.504863 0.495500 0.236566
C33   C     C_R   0.956924 0.478826 0.517096 -0.017737
C34   C     C_R   0.485755 0.501527 0.650516 0.856708
C35   C     C_R   0.982718 0.402904 0.572827 0.204290
C36   C     C_R   0.087855 0.378762 0.588514 -0.290885
C37   C     C_R   0.167938 0.428589 0.549890 -0.227841
C38   C     C_R   0.848858 0.497968 0.502586 -0.056924
C39   C     C_R   0.797697 0.374034 0.595220 -0.002102
C40   C     C_R   0.508226 0.459624 0.265714 -0.034619
C41   C     C_R   0.407617 0.428060 0.220266 -0.207466
C42   C     C_R   0.402264 0.390931 0.142223 -0.167867
C43   C     C_R   0.497359 0.387163 0.108166 0.192310
C44   C     C_R   0.598132 0.412049 0.154690 -0.157235
H1    H     H_    0.332848 0.431997 0.244859 0.160051
H2    H     H_    0.237984 0.208399 0.442846 0.165515
H3    H     H_    0.237495 0.861645 0.504744 0.144105
H4    H     H_    0.187645 0.024564 0.448870 0.137669
H5    H     H_    0.562781 0.170481 0.542631 0.180710
H6    H     H_    0.373326 0.764369 0.566784 0.182536
H7    H     H_    0.734475 0.334811 0.624787 0.127859
H8    H     H_    0.642250 0.530935 0.777071 0.164478
H9    H     H_    0.108357 0.320721 0.630665 0.152497
H10   H     H_    0.921333 0.294922 0.655902 0.139432
H11   H     H_    0.821122 0.553202 0.460977 0.125393
H12   H     H_    0.275477 0.666866 0.379864 0.147726
H13   H     H_    0.943820 0.636127 0.408641 0.132105
H14   H     H_    0.092652 0.718904 0.347467 0.147276
H15   H     H_    0.246698 0.406131 0.564308 0.213326
H16   H     H_    0.299863 0.455065 0.709826 0.167150
H17   H     H_    0.379376 0.487451 0.005269 0.159606
H18   H     H_    0.671953 0.409695 0.128475 0.147091
H19   H     H_    0.682114 0.469833 0.268534 0.151405
H20   H     H_    0.550112 0.340323 0.994669 0.160265
H21   H     H_    0.323884 0.370693 0.106768 0.132227
N1    N     N_R   0.774070 0.445420 0.541180 -0.098215
N2    N     N_R   0.226730 0.554050 0.459240 -0.133710
O1    O     O_R   0.631480 0.627510 0.519670 -0.606339
O2    O     O_R   0.455770 0.662400 0.493360 -0.626450
O3    O     O_R   0.598240 0.480510 0.398910 -0.613151
O4    O     O_R   0.422540 0.515400 0.372600 -0.619243
O5    O     O_R   0.544230 0.337600 0.506640 -0.617998
O6    O     O_R   0.368520 0.372490 0.480330 -0.641543
O7    O     O_R   0.577460 0.484600 0.627400 -0.621639
O8    O     O_R   0.401760 0.519490 0.601090 -0.645830
Zn1   Zn    Zn3+2 0.617320 0.476700 0.517570 0.934276
Zn2   Zn    Zn3+2 0.382680 0.523300 0.482430 0.917765
C45   C     C_3   0.242236 0.415961 0.852352 -0.951689
H22   H     H_    0.237525 0.398984 0.916158 0.243419
H23   H     H_    0.189976 0.476368 0.835404 0.244833
H24   H     H_    0.209118 0.345771 0.815919 0.237761
C46   C     C_3   0.775516 0.769105 0.614766 -0.843023
H25   H     H_    0.832924 0.813493 0.662172 0.235372
H26   H     H_    0.731442 0.708387 0.646564 0.244170
H27   H     H_    0.821497 0.734266 0.571720 0.241884
C47   C     C_3   0.698733 0.089509 0.474471 -0.902093
H28   H     H_    0.635344 0.112743 0.428394 0.253479
H29   H     H_    0.734379 0.154906 0.515498 0.243037
H30   H     H_    0.762556 0.066936 0.440409 0.245120
C48   C     C_R   0.847761 0.980412 0.578975 0.155286
C49   C     C_R   0.877390 0.059533 0.637382 -0.156517
C50   C     C_R   0.986470 0.094225 0.661488 -0.153453
C51   C     C_R   0.066311 0.050673 0.627223 -0.096237
C52   C     C_R   0.037099 0.972266 0.568973 -0.138114
C53   C     C_R   0.928437 0.937937 0.544098 -0.164021
H31   H     H_    0.816216 0.092796 0.665264 0.120510
H32   H     H_    0.009314 0.153876 0.707519 0.117616
H33   H     H_    0.150740 0.077013 0.646261 0.130066
H34   H     H_    0.098473 0.936897 0.543825 0.121372
H35   H     H_    0.907234 0.877114 0.498796 0.128012
C54   C     C_R   0.647553 0.520341 0.935395 0.126527
C55   C     C_R   0.740686 0.472104 0.931754 -0.181995
C56   C     C_R   0.831451 0.495546 0.989658 -0.140468
C57   C     C_R   0.830208 0.567615 0.051237 -0.126685
C58   C     C_R   0.738339 0.616682 0.054854 -0.146115
C59   C     C_R   0.647416 0.593514 0.997079 -0.121463
H36   H     H_    0.742518 0.415659 0.884635 0.129035
H37   H     H_    0.902720 0.457704 0.986858 0.130418
H38   H     H_    0.900452 0.585503 0.096099 0.126062
H39   H     H_    0.737511 0.672589 0.102498 0.130304
H40   H     H_    0.576949 0.632455 0.000423 0.127137

loop_
_geom_bond_atom_site_label_1
_geom_bond_atom_site_label_2
_ccdc_geom_bond_type
C39   H7    S    
C58   H39   S    
C54   C55   A    
C41   C42   A    
O2    Zn2   S    
C35   C36   A    
N2    Zn2   S    
C8    C43   S    
O5    Zn1   S    
C28   H12   S    
C27   H10   S    
C48   C53   A    
C51   C52   A    
O7    Zn1   S    
C4    H8    S    
C9    H17   S    
C28   C29   A    
C3    C7    A    
C30   C31   A    
C47   H29   S    
C6    C45   S    
C11   C25   A    
C15   C16   A    
C30   H13   S    
C54   C59   A    
C1    O1    A    
C13   C23   S    
C36   H9    S    
C17   C19   A    
C49   H31   S    
C38   H11   S    
C38   N1    A    
C2    C44   A    
C8    C9    D    
C18   C26   A    
C42   H21   S    
C31   C33   A    
C56   H37   S    
C34   O8    A    
C22   H6    S    
C3    C54   S    
C18   C22   A    
C21   C22   A    
C16   C47   S    
C13   C25   A    
C11   H4    S    
C52   C53   A    
C23   O6    A    
C57   C58   A    
C50   H32   S    
C59   H40   S    
C11   C20   A    
C28   N2    A    
C27   C39   A    
C49   C50   A    
C53   H35   S    
C16   C17   A    
C27   C35   A    
C1    O2    A    
C13   C24   A    
C12   C40   S    
C43   C44   A    
C29   C30   A    
C31   C32   A    
C14   C15   A    
N1    Zn1   S    
C20   C21   A    
C17   C18   A    
C55   H36   S    
C10   C34   S    
C32   C37   A    
C14   C26   A    
O8    Zn2   S    
C37   H15   S    
C8    H20   S    
C32   N2    A    
C40   C41   A    
C12   O4    A    
C34   O7    A    
C46   H26   S    
O3    Zn1   S    
C1    C26   S    
C39   N1    A    
C42   C43   A    
C14   C46   S    
C4    C10   A    
C3    C4    A    
O4    Zn2   S    
C2    H19   S    
C47   H28   S    
C24   H5    S    
C7    C9    S    
C12   O3    A    
C36   C37   A    
O6    Zn2   S    
C5    H16   S    
C45   H22   S    
C23   O5    A    
C47   H30   S    
C6    C7    A    
O1    Zn1   S    
C46   H27   S    
C58   C59   A    
C33   C38   A    
C44   H18   S    
C19   C20   A    
C19   C24   A    
C5    C10   A    
C15   C48   S    
C45   H24   S    
C48   C49   A    
C5    C6    A    
C52   H34   S    
C51   H33   S    
C50   C51   A    
C33   C35   A    
C45   H23   S    
C55   C56   A    
C2    C40   A    
C29   H14   S    
C46   H25   S    
C56   C57   A    
C41   H1    S    
C57   H38   S    
C25   H2    S    
C21   H3    S    
