data_mof_unit_49320.cif
_audit_creation_date              2012-12-11T14:01:25-0500
_audit_creation_method            fapswitch 2.2
_symmetry_space_group_name_H-M    P1
_symmetry_Int_Tables_number       1
_space_group_crystal_system       triclinic
_cell_length_a                    19.176889
_cell_length_b                    10.957804
_cell_length_c                    18.792017
_cell_angle_alpha                 90.817782
_cell_angle_beta                  90.346357
_cell_angle_gamma                 89.401386
_cell_volume                      3948.20402085

loop_
_atom_site_label
_atom_site_type_symbol
_atom_type_description
_atom_site_fract_x
_atom_site_fract_y
_atom_site_fract_z
_atom_type_partial_charge
C1    C     C_R   0.272739 0.042914 0.853287 0.552117
C2    C     C_R   0.727552 0.042876 0.146992 0.561437
C3    C     C_R   0.772719 0.542886 0.853281 0.554555
C4    C     C_R   0.227599 0.544076 0.147572 0.561760
C5    C     C_R   0.456066 0.040121 0.084475 0.130728
C6    C     C_R   0.489455 0.069107 0.939547 0.138707
C7    C     C_R   0.970415 0.550265 0.074966 0.137339
C8    C     C_R   0.018313 0.554266 0.932161 0.144321
C9    C     C_R   0.977569 0.662389 0.039383 0.160452
C10   C     C_R   0.004094 0.664557 0.969632 0.164000
C11   C     C_R   0.456182 0.157478 0.054538 0.159419
C12   C     C_R   0.473530 0.171649 0.982986 0.156552
C13   C     C_2   0.254294 0.593081 0.924616 -0.123597
C14   C     C_2   0.749424 0.583396 0.077887 -0.119156
C15   C     C_2   0.753205 0.086650 0.923025 -0.118615
C16   C     C_2   0.249089 0.083058 0.077906 -0.117488
C17   C     C_2   0.250447 0.597766 0.081399 -0.118796
C18   C     C_2   0.749987 0.589704 0.922212 -0.111034
C19   C     C_2   0.751000 0.091592 0.079478 -0.116399
C20   C     C_2   0.250034 0.090190 0.922132 -0.115544
C21   C     C_2   0.302071 0.548391 0.042857 -0.172406
C22   C     C_2   0.703879 0.527120 0.960610 -0.165216
C23   C     C_2   0.799533 0.032831 0.040247 -0.163838
C24   C     C_2   0.203208 0.029061 0.960350 -0.162193
C25   C     C_2   0.309968 0.580875 0.967981 -0.171664
C26   C     C_2   0.695114 0.550999 0.036783 -0.164791
C27   C     C_2   0.808477 0.060011 0.964531 -0.159930
C28   C     C_2   0.194382 0.053875 0.036414 -0.165956
C29   C     C_2   0.444963 0.820113 0.564026 -0.127451
C30   C     C_2   0.491144 0.833175 0.417259 -0.130546
C31   C     C_2   0.945224 0.320150 0.564058 -0.125955
C32   C     C_2   0.991145 0.333105 0.417245 -0.131129
C33   C     C_2   0.464124 0.731864 0.445937 0.141473
C34   C     C_2   0.462871 0.721092 0.523660 0.137691
C35   C     C_2   0.964349 0.231675 0.446024 0.141241
C36   C     C_2   0.963131 0.221068 0.523748 0.137922
C37   C     C_2   0.239476 0.539842 0.594006 0.287234
C38   C     C_2   0.757167 0.570463 0.416004 0.273455
C39   C     C_2   0.739746 0.040073 0.593812 0.288661
C40   C     C_2   0.257243 0.070384 0.415962 0.273454
C41   C     C_2   0.221888 0.525590 0.434458 0.125210
C42   C     C_2   0.754899 0.587151 0.578690 0.129998
C43   C     C_2   0.722006 0.025909 0.434356 0.125184
C44   C     C_2   0.254913 0.087105 0.578652 0.129895
C45   C     C_R   0.470606 0.823779 0.853930 0.571835
C46   C     C_R   0.529183 0.821095 0.146605 0.574211
C47   C     C_R   0.970057 0.321847 0.854185 0.568413
C48   C     C_R   0.029525 0.321362 0.146253 0.564030
C49   C     C_2   0.171574 0.506964 0.482527 -0.149952
C50   C     C_2   0.809844 0.587161 0.534212 -0.131104
C51   C     C_2   0.671717 0.007361 0.482429 -0.150143
C52   C     C_2   0.309885 0.087286 0.534202 -0.130890
C53   C     C_2   0.177679 0.548423 0.557631 0.109098
C54   C     C_2   0.808052 0.614474 0.460019 0.087192
C55   C     C_2   0.677958 0.048543 0.557517 0.109009
C56   C     C_2   0.308119 0.114456 0.459978 0.087482
C57   C     C_R   0.262817 0.641649 0.853405 0.538891
C58   C     C_R   0.738225 0.638153 0.147784 0.539923
C59   C     C_R   0.762167 0.138648 0.852466 0.543879
C60   C     C_R   0.238243 0.137984 0.147834 0.544080
C61   C     C_R   0.271984 0.046685 0.649119 0.541888
C62   C     C_R   0.708593 0.997567 0.359892 0.565519
C63   C     C_R   0.771975 0.546708 0.649138 0.543103
C64   C     C_R   0.208554 0.497471 0.359900 0.565417
C65   C     C_R   0.436247 0.817560 0.640789 0.574456
C66   C     C_R   0.527259 0.824484 0.350105 0.535219
C67   C     C_R   0.936329 0.317576 0.640775 0.573406
C68   C     C_R   0.027253 0.324470 0.350096 0.533274
C69   C     C_R   0.258588 0.629509 0.649531 0.599536
C70   C     C_R   0.740626 0.635599 0.352199 0.598099
C71   C     C_R   0.758639 0.129552 0.649493 0.601759
C72   C     C_R   0.240644 0.135561 0.352179 0.598180
C73   C     C_R   0.499701 0.826117 0.074912 0.024545
C74   C     C_R   0.497942 0.838236 0.926721 0.014427
C75   C     C_R   0.999502 0.327346 0.074649 0.019249
C76   C     C_R   0.999104 0.329242 0.926414 0.015480
C77   C     C_R   0.480608 0.938231 0.043186 -0.022504
C78   C     C_R   0.489014 0.948967 0.968428 -0.013775
C79   C     C_R   0.990386 0.440057 0.039150 -0.018606
C80   C     C_R   0.002748 0.441622 0.964918 -0.019692
C81   C     C_R   0.512234 0.728302 0.960444 -0.170548
C82   C     C_R   0.511790 0.721825 0.032805 -0.159132
C83   C     C_R   0.002065 0.218906 0.962843 -0.163151
C84   C     C_R   0.001897 0.217940 0.035454 -0.161553
Cr1   Cr    Cr6+3 0.230530 0.836340 0.748870 1.000822
Cr2   Cr    Cr6+3 0.769470 0.836340 0.251130 0.995044
Cr3   Cr    Cr6+3 0.730530 0.336340 0.748870 0.998664
Cr4   Cr    Cr6+3 0.269470 0.336340 0.251130 0.993209
Cr5   Cr    Cr6+3 0.387420 0.989430 0.750820 0.995507
Cr6   Cr    Cr6+3 0.612580 0.989430 0.249180 1.004721
Cr7   Cr    Cr6+3 0.887420 0.489430 0.750820 0.997866
Cr8   Cr    Cr6+3 0.112580 0.489430 0.249180 1.006951
Cr9   Cr    Cr6+3 0.385640 0.677860 0.749230 0.998916
Cr10  Cr    Cr6+3 0.614360 0.677860 0.250770 1.001713
Cr11  Cr    Cr6+3 0.885640 0.177860 0.749230 0.997447
Cr12  Cr    Cr6+3 0.114360 0.177860 0.250770 1.000962
H1    H     H_    0.520883 0.644073 0.930643 0.141572
H2    H     H_    0.524691 0.634169 0.055649 0.142078
H3    H     H_    0.001861 0.131364 0.935305 0.142954
H4    H     H_    0.006842 0.129979 0.060706 0.141591
H5    H     H_    0.121597 0.472127 0.464683 0.083738
H6    H     H_    0.862711 0.574379 0.553886 0.129794
H7    H     H_    0.621714 0.972542 0.464639 0.083879
H8    H     H_    0.362758 0.074751 0.553916 0.129949
H9    H     H_    0.337148 0.480320 0.065155 0.167785
H10   H     H_    0.673531 0.453765 0.936862 0.150221
H11   H     H_    0.831340 0.960184 0.062669 0.158571
H12   H     H_    0.172259 0.956539 0.936553 0.155302
H13   H     H_    0.362367 0.595654 0.948721 0.160992
H14   H     H_    0.643098 0.543554 0.058655 0.145825
H15   H     H_    0.861026 0.058729 0.943315 0.152893
H16   H     H_    0.141942 0.050443 0.057765 0.150501
H17   H     H_    0.217927 0.669830 0.059112 0.115824
H18   H     H_    0.778394 0.665708 0.945722 0.108273
H19   H     H_    0.721310 0.167179 0.057249 0.109380
H20   H     H_    0.278923 0.165406 0.945834 0.102901
H21   H     H_    0.201872 0.581743 0.944823 0.115156
H22   H     H_    0.801652 0.586907 0.055940 0.118521
H23   H     H_    0.701535 0.084942 0.945604 0.094247
H24   H     H_    0.301517 0.083433 0.056341 0.120562
H25   H     H_    0.504233 0.911573 0.450184 0.045394
H26   H     H_    0.428518 0.903701 0.538616 0.033741
H27   H     H_    0.004093 0.411680 0.450078 0.045894
H28   H     H_    0.928773 0.403713 0.538631 0.033681
O1    O     O_R   0.215090 0.709860 0.828130 -0.531468
O2    O     O_R   0.784910 0.709860 0.171870 -0.534052
O3    O     O_R   0.715090 0.209860 0.828130 -0.543732
O4    O     O_R   0.284910 0.209860 0.171870 -0.537375
O5    O     O_R   0.445660 0.919250 0.676780 -0.522900
O6    O     O_R   0.554340 0.919250 0.323220 -0.528703
O7    O     O_R   0.945660 0.419250 0.676780 -0.524711
O8    O     O_R   0.054340 0.419250 0.323220 -0.528884
O9    O     O_R   0.456260 0.718170 0.670000 -0.517520
O10   O     O_R   0.543740 0.718170 0.330000 -0.498805
O11   O     O_R   0.956260 0.218170 0.670000 -0.519881
O12   O     O_R   0.043740 0.218170 0.330000 -0.498633
O13   O     O_R   0.320940 0.626760 0.674370 -0.497644
O14   O     O_R   0.679060 0.626760 0.325630 -0.472713
O15   O     O_R   0.820940 0.126760 0.674370 -0.497493
O16   O     O_R   0.179060 0.126760 0.325630 -0.472955
O17   O     O_3   0.334530 0.834540 0.749640 -0.271699
O18   O     O_3   0.665470 0.834540 0.250360 -0.276235
O19   O     O_3   0.834530 0.334540 0.749640 -0.270706
O20   O     O_3   0.165470 0.334540 0.250360 -0.275711
O21   O     O_R   0.236990 0.958390 0.823710 -0.495912
O22   O     O_R   0.763010 0.958390 0.176290 -0.493964
O23   O     O_R   0.736990 0.458390 0.823710 -0.496241
O24   O     O_R   0.263010 0.458390 0.176290 -0.492319
O25   O     O_R   0.332380 0.074750 0.830850 -0.523035
O26   O     O_R   0.667620 0.074750 0.169150 -0.514657
O27   O     O_R   0.832380 0.574750 0.830850 -0.516637
O28   O     O_R   0.167620 0.574750 0.169150 -0.514486
O29   O     O_R   0.445800 0.917770 0.825070 -0.455353
O30   O     O_R   0.554200 0.917770 0.174930 -0.468305
O31   O     O_R   0.945800 0.417770 0.825070 -0.461780
O32   O     O_R   0.054200 0.417770 0.174930 -0.465828
O33   O     O_R   0.456410 0.716580 0.829970 -0.535930
O34   O     O_R   0.543590 0.716580 0.170030 -0.545574
O35   O     O_R   0.956410 0.216580 0.829970 -0.540239
O36   O     O_R   0.043590 0.216580 0.170030 -0.545346
O37   O     O_R   0.321080 0.625290 0.822650 -0.505367
O38   O     O_R   0.678920 0.625290 0.177350 -0.499794
O39   O     O_R   0.821080 0.125290 0.822650 -0.500576
O40   O     O_R   0.178920 0.125290 0.177350 -0.500549
O41   O     O_R   0.214930 0.711450 0.668160 -0.508536
O42   O     O_R   0.785070 0.711450 0.331840 -0.517947
O43   O     O_R   0.714930 0.211450 0.668160 -0.508452
O44   O     O_R   0.285070 0.211450 0.331840 -0.518324
O45   O     O_R   0.236850 0.959870 0.675420 -0.504807
O46   O     O_R   0.763150 0.959870 0.324580 -0.503049
O47   O     O_R   0.736850 0.459870 0.675420 -0.504653
O48   O     O_R   0.263150 0.459870 0.324580 -0.503793
O49   O     O_R   0.332230 0.076350 0.670880 -0.538484
O50   O     O_R   0.667770 0.076350 0.329120 -0.509823
O51   O     O_R   0.832230 0.576350 0.670880 -0.537908
O52   O     O_R   0.167770 0.576350 0.329120 -0.509717
N1    N     N_2   0.118884 0.610665 0.587606 -0.514104
H29   H     H_    0.083138 0.641313 0.550494 0.245997
C85   C     C_3   0.086212 0.545384 0.644510 -0.278443
H30   H     H_    0.041714 0.600016 0.665773 0.160282
H31   H     H_    0.123792 0.529323 0.688564 0.146930
H32   H     H_    0.067181 0.456058 0.624193 0.148170
N2    N     N_2   0.859706 0.698610 0.437366 -0.501634
H33   H     H_    0.870657 0.766726 0.474151 0.249869
C86   C     C_3   0.922301 0.642183 0.409120 -0.289696
H34   H     H_    0.954232 0.712357 0.382975 0.140522
H35   H     H_    0.909245 0.570497 0.368886 0.158837
H36   H     H_    0.953430 0.602088 0.453065 0.115556
N3    N     N_2   0.619038 0.109425 0.588016 -0.515412
H37   H     H_    0.583489 0.141658 0.551170 0.246332
C87   C     C_3   0.586126 0.040937 0.643409 -0.278443
H38   H     H_    0.542465 0.095480 0.666476 0.160866
H39   H     H_    0.623967 0.019766 0.686542 0.145190
H40   H     H_    0.565908 0.953982 0.620873 0.149543
N4    N     N_2   0.359775 0.198574 0.437297 -0.501665
H41   H     H_    0.370877 0.266541 0.474128 0.249794
C88   C     C_3   0.422241 0.142143 0.408757 -0.290560
H42   H     H_    0.454120 0.212363 0.382585 0.139518
H43   H     H_    0.409016 0.070622 0.368478 0.158930
H44   H     H_    0.453491 0.101834 0.452542 0.116163
N5    N     N_2   0.285377 0.582751 0.453807 -0.501829
H45   H     H_    0.327031 0.551371 0.424679 0.286010
C89   C     C_3   0.279940 0.713862 0.456896 -0.279853
H46   H     H_    0.327766 0.752853 0.480353 0.139521
H47   H     H_    0.235949 0.741266 0.491822 0.167962
H48   H     H_    0.271970 0.750641 0.402599 0.175386
N6    N     N_2   0.683959 0.601965 0.556510 -0.494250
H49   H     H_    0.648592 0.563340 0.590318 0.255219
C90   C     C_3   0.663527 0.723784 0.536123 -0.292671
H50   H     H_    0.609962 0.723038 0.514033 0.161584
H51   H     H_    0.697444 0.757376 0.493426 0.145914
H52   H     H_    0.665041 0.786161 0.583183 0.133345
N7    N     N_2   0.785533 0.083068 0.453610 -0.501708
H53   H     H_    0.827147 0.051752 0.424398 0.286014
C91   C     C_3   0.780103 0.214176 0.456807 -0.280061
H54   H     H_    0.828041 0.253141 0.480036 0.139385
H55   H     H_    0.736288 0.241504 0.491976 0.167209
H56   H     H_    0.771865 0.251054 0.402572 0.175819
N8    N     N_2   0.183971 0.101590 0.556409 -0.494405
H57   H     H_    0.148620 0.062870 0.590196 0.254980
C92   C     C_3   0.163378 0.223250 0.535864 -0.293033
H58   H     H_    0.109945 0.222079 0.513463 0.162439
H59   H     H_    0.197423 0.257038 0.493332 0.146053
H60   H     H_    0.164497 0.285702 0.582905 0.131495
O53   O     O_3   0.289706 0.452224 0.577921 -0.748656
H61   H     H_    0.270372 0.389845 0.545235 0.321484
O54   O     O_3   0.712312 0.477734 0.433443 -0.712471
H62   H     H_    0.731019 0.434987 0.475168 0.321698
O55   O     O_3   0.790080 0.952715 0.577599 -0.748406
H63   H     H_    0.770778 0.890287 0.544916 0.321325
O56   O     O_3   0.212460 0.977555 0.433393 -0.712707
H64   H     H_    0.231240 0.934820 0.475091 0.321748
N9    N     N_2   0.432776 0.025084 0.156142 -0.500978
H65   H     H_    0.437295 0.096052 0.192343 0.251760
C93   C     C_3   0.378927 0.936715 0.170146 -0.296542
H66   H     H_    0.400095 0.864886 0.205486 0.145042
H67   H     H_    0.358891 0.893383 0.120341 0.143036
H68   H     H_    0.334984 0.981646 0.198501 0.146125
N10   N     N_2   0.512185 0.089541 0.868839 -0.487420
H69   H     H_    0.487795 0.159474 0.842018 0.251607
C94   C     C_3   0.586260 0.086974 0.859822 -0.302347
H70   H     H_    0.598537 0.098149 0.802760 0.156257
H71   H     H_    0.608474 0.998358 0.877508 0.145954
H72   H     H_    0.608626 0.163807 0.891000 0.152761
N11   N     N_2   0.943963 0.549520 0.146285 -0.496611
H73   H     H_    0.948796 0.626040 0.178323 0.250949
C95   C     C_3   0.889799 0.464540 0.165310 -0.291995
H74   H     H_    0.910976 0.396231 0.202846 0.143958
H75   H     H_    0.867549 0.417219 0.117807 0.139136
H76   H     H_    0.847685 0.513107 0.194163 0.152140
N12   N     N_2   0.048249 0.557427 0.862374 -0.495405
H77   H     H_    0.042264 0.633859 0.831590 0.248144
C96   C     C_3   0.105150 0.474806 0.843698 -0.299465
H78   H     H_    0.087303 0.406889 0.803504 0.149421
H79   H     H_    0.126680 0.427107 0.890880 0.137826
H80   H     H_    0.147185 0.525411 0.818214 0.149177
N13   N     N_2   0.958388 0.774964 0.073175 -0.514358
H81   H     H_    0.913695 0.772274 0.103280 0.256523
C97   C     C_3   0.015234 0.838118 0.108158 -0.291527
H82   H     H_    0.036628 0.782680 0.152430 0.138907
H83   H     H_    0.996016 0.926719 0.130193 0.132850
H84   H     H_    0.057466 0.856749 0.069733 0.172792
N14   N     N_2   0.015423 0.779670 0.937618 -0.514494
H85   H     H_    0.061087 0.785992 0.909305 0.245974
C98   C     C_3   0.955217 0.829501 0.900999 -0.290322
H86   H     H_    0.967303 0.922099 0.881630 0.133137
H87   H     H_    0.910071 0.837014 0.937627 0.172804
H88   H     H_    0.941010 0.770496 0.854690 0.148395
N15   N     N_2   0.441387 0.264137 0.096243 -0.508076
H89   H     H_    0.401516 0.256359 0.132018 0.273227
C99   C     C_3   0.502242 0.322696 0.126459 -0.292633
H90   H     H_    0.528406 0.261540 0.165272 0.139470
H91   H     H_    0.486229 0.408407 0.154373 0.133423
H92   H     H_    0.539642 0.346267 0.083996 0.170260
N16   N     N_2   0.476230 0.291847 0.955278 -0.511559
H93   H     H_    0.518705 0.308851 0.923725 0.237313
C100  C     C_3   0.411201 0.335100 0.925178 -0.299232
H94   H     H_    0.418630 0.427777 0.903842 0.141806
H95   H     H_    0.370136 0.338104 0.966510 0.171773
H96   H     H_    0.393949 0.274882 0.880701 0.153370
N17   N     N_2   0.440825 0.631980 0.402077 -0.509954
H97   H     H_    0.417523 0.655832 0.354525 0.249435
C101  C     C_3   0.482927 0.521052 0.398371 -0.228124
H98   H     H_    0.497412 0.500424 0.342291 0.141543
H99   H     H_    0.452049 0.443192 0.417385 0.120856
H100  H     H_    0.531824 0.529003 0.430049 0.213658
N18   N     N_2   0.491935 0.611952 0.553087 -0.508673
H101  H     H_    0.531464 0.621083 0.590000 0.264440
C102  C     C_3   0.446175 0.509845 0.563181 -0.236430
H102  H     H_    0.474897 0.423772 0.550791 0.113863
H103  H     H_    0.400379 0.515744 0.527431 0.223730
H104  H     H_    0.428763 0.506644 0.619243 0.202355
N19   N     N_2   0.941243 0.131509 0.402270 -0.509889
H105  H     H_    0.917858 0.155078 0.354712 0.249917
C103  C     C_3   0.983587 0.020849 0.398634 -0.227635
H106  H     H_    0.998148 0.000248 0.342573 0.142522
H107  H     H_    0.952864 0.942799 0.417645 0.120692
H108  H     H_    0.032446 0.029153 0.430341 0.213665
N20   N     N_2   0.992178 0.111959 0.553237 -0.508826
H109  H     H_    0.031634 0.121138 0.590229 0.263964
C104  C     C_3   0.946433 0.009806 0.563249 -0.236422
H110  H     H_    0.975277 0.923739 0.551151 0.113855
H111  H     H_    0.900822 0.015440 0.527231 0.223860
H112  H     H_    0.928733 0.006828 0.619221 0.202675

loop_
_geom_bond_atom_site_label_1
_geom_bond_atom_site_label_2
_ccdc_geom_bond_type
Cr12  O16   S    
C2    O26   A    
C99   H92   S    
Cr7   O27   S    
C89   H46   S    
C38   C70   S    
C8    N12   S    
C16   C28   D    
Cr4   O48   S    
C104  H112  S    
C9    N13   S    
C101  H99   S    
C93   H67   S    
N5    H45   S    
C98   H87   S    
Cr1   O1    S    
C35   C36   S    
Cr2   O42   S    
Cr5   O49   S    
C91   H54   S    
C97   H84   S    
C18   H18   S    
C86   H35   S    
Cr3   O3    S    
C81   C82   A    
C72   O44   A    
C17   H17   S    
N12   H77   S    
Cr12  O12   S    
C47   O35   A    
C77   C78   A    
C28   H16   S    
C3    O23   A    
C48   O36   A    
C69   O41   A    
N19   H105  S    
Cr3   O23   S    
Cr11  O35   S    
C55   N3    S    
C89   H47   S    
Cr8   O8    S    
C45   O29   A    
Cr1   O21   S    
C47   C76   S    
C39   O55   S    
C92   H60   S    
C37   C69   S    
C70   O42   A    
C58   O38   A    
C6    C12   A    
C96   H78   S    
Cr6   O26   S    
Cr7   O7    S    
C49   C53   S    
C75   C84   A    
N12   C96   S    
N7    H53   S    
Cr2   O2    S    
C59   O3    A    
C99   H90   S    
C62   O50   A    
C11   C12   A    
C94   H70   S    
C90   H52   S    
Cr5   O5    S    
C10   N14   S    
C76   C83   A    
C3    C18   S    
N3    C87   S    
N13   H81   S    
C16   C60   S    
C88   H43   S    
O54   H62   S    
C92   H58   S    
C21   C25   S    
Cr12  O40   S    
C90   H51   S    
C66   O10   A    
C57   O37   A    
C63   O47   A    
C102  H104  S    
C39   C55   D    
C86   H34   S    
N10   H69   S    
Cr4   O44   S    
Cr8   O28   S    
C93   H66   S    
N18   C102  S    
C1    O25   A    
N11   H73   S    
C24   H12   S    
Cr9   O37   S    
N19   C103  S    
C64   O52   A    
C18   C22   D    
C98   H86   S    
Cr10  O38   S    
C31   C36   D    
C47   O31   A    
C25   H13   S    
C32   C68   S    
C85   H32   S    
C37   C53   D    
C44   C52   D    
C37   O53   S    
C60   O40   A    
C48   O32   A    
C23   H11   S    
N1    C85   S    
Cr10  O34   S    
C5    N9    S    
C100  H94   S    
C34   N18   S    
C101  H100  S    
C66   O6    A    
C65   O9    A    
N5    C89   S    
C48   C75   S    
C13   C25   D    
C88   H42   S    
C44   N8    S    
C15   C59   S    
C68   O8    A    
C4    O28   A    
Cr2   O22   S    
C12   N16   S    
C41   C49   D    
C30   C66   S    
C33   C34   S    
C103  H108  S    
Cr7   O19   S    
C104  H111  S    
C69   O13   A    
C63   O51   A    
C14   C58   S    
C89   H48   S    
C33   N17   S    
C82   H2    S    
N6    H49   S    
Cr10  O18   S    
C32   C35   D    
C20   C24   D    
C13   H21   S    
C68   O12   A    
C45   O33   A    
C103  H107  S    
C91   H56   S    
Cr1   O17   S    
N8    H57   S    
C20   H20   S    
N15   C99   S    
C19   C23   D    
C36   N20   S    
C71   O15   A    
C76   C80   A    
C14   H22   S    
N17   H97   S    
C104  H110  S    
C29   C34   D    
N10   C94   S    
Cr1   O45   S    
Cr5   O29   S    
C85   H30   S    
C41   N5    S    
C45   C74   S    
C94   H71   S    
C7    C9    A    
C32   H27   S    
C64   O48   A    
C88   H44   S    
C67   O11   A    
N20   H109  S    
C87   H39   S    
N2    H33   S    
Cr7   O31   S    
O55   H63   S    
C62   O46   A    
N8    C92   S    
C56   N4    S    
N9    C93   S    
C15   C27   D    
C83   C84   A    
C38   C54   D    
C30   H25   S    
C19   H19   S    
N4    H41   S    
Cr3   O47   S    
C29   H26   S    
Cr11  O11   S    
C90   H50   S    
Cr4   O24   S    
C95   H75   S    
Cr7   O51   S    
C42   N6    S    
Cr8   O32   S    
C40   C56   D    
C50   C54   S    
C14   C26   D    
C40   O56   S    
Cr9   O33   S    
N20   C104  S    
C7    N11   S    
Cr6   O18   S    
C42   C50   D    
C29   C65   S    
C4    C17   S    
C46   O30   A    
C35   N19   S    
N16   H93   S    
C58   O2    A    
C23   C27   S    
C100  H95   S    
N18   H101  S    
C22   C26   S    
C101  H98   S    
Cr10  O14   S    
C93   H68   S    
C59   O39   A    
C61   O45   A    
C1    O21   A    
C74   C81   A    
C5    C77   A    
C97   H82   S    
C43   N7    S    
C96   H79   S    
C99   H91   S    
C73   C82   A    
C103  H106  S    
Cr9   O17   S    
Cr2   O18   S    
C7    C79   A    
N9    H65   S    
C95   H76   S    
C87   H38   S    
N14   C98   S    
C26   H14   S    
C52   H8    S    
C1    C20   S    
C73   C77   A    
C40   C72   S    
C30   C33   D    
O53   H61   S    
C2    C19   S    
Cr2   O46   S    
Cr11  O15   S    
Cr8   O52   S    
C50   H6    S    
C67   O7    A    
Cr11  O19   S    
C24   C28   S    
C60   O4    A    
N6    C90   S    
C3    O27   A    
C86   H36   S    
C53   N1    S    
C31   H28   S    
C84   H4    S    
C65   O5    A    
C95   H74   S    
C54   N2    S    
C5    C11   A    
C44   C61   S    
C2    O22   A    
Cr3   O43   S    
C4    O24   A    
C6    N10   S    
C6    C78   A    
Cr9   O9    S    
Cr11  O39   S    
C92   H59   S    
C94   H72   S    
Cr1   O41   S    
N17   C101  S    
N16   C100  S    
C96   H80   S    
N14   H85   S    
Cr12  O36   S    
N7    C91   S    
Cr4   O4    S    
C97   H83   S    
C22   H10   S    
C57   O1    A    
C49   H5    S    
C70   O14   A    
C43   C51   D    
Cr6   O30   S    
C81   H1    S    
C51   H7    S    
Cr5   O17   S    
C42   C63   S    
C71   O43   A    
Cr5   O25   S    
Cr10  O10   S    
N11   C95   S    
C15   H23   S    
C9    C10   A    
C51   C55   S    
N3    H37   S    
Cr8   O20   S    
C98   H88   S    
C17   C21   D    
C87   H40   S    
C91   H55   S    
Cr9   O13   S    
Cr6   O50   S    
C31   C67   S    
C27   H15   S    
C79   C80   A    
Cr6   O6    S    
C11   N15   S    
C72   O16   A    
C13   C57   S    
N2    C86   S    
C8    C10   A    
N1    H29   S    
C74   C78   A    
C100  H96   S    
N13   C97   S    
O56   H64   S    
C8    C80   A    
C61   O49   A    
C39   C71   S    
C102  H102  S    
C102  H103  S    
C83   H3    S    
C41   C64   S    
Cr3   O19   S    
N15   H89   S    
C16   H24   S    
C75   C79   A    
C85   H31   S    
Cr4   O20   S    
C46   C73   S    
C21   H9    S    
C52   C56   S    
C43   C62   S    
C38   O54   S    
N4    C88   S    
Cr12  O20   S    
C46   O34   A    
