data_mof_unit_7464.cif
_audit_creation_date              2012-12-10T18:08:18-0500
_audit_creation_method            fapswitch 2.2
_symmetry_space_group_name_H-M    P1
_symmetry_Int_Tables_number       1
_space_group_crystal_system       triclinic
_cell_length_a                    12.750982
_cell_length_b                    13.213318
_cell_length_c                    14.149446
_cell_angle_alpha                 91.478414
_cell_angle_beta                  101.948222
_cell_angle_gamma                 83.600483
_cell_volume                      2317.74826319

loop_
_atom_site_label
_atom_site_type_symbol
_atom_type_description
_atom_site_fract_x
_atom_site_fract_y
_atom_site_fract_z
_atom_type_partial_charge
C1    C     C_R   0.440646 0.690225 0.482341 0.858880
C2    C     C_R   0.536128 0.033669 0.466508 0.073484
C3    C     C_R   0.643516 0.995720 0.459344 0.108816
C4    C     C_R   0.501201 0.500533 0.670442 0.896127
C5    C     C_R   0.661931 0.894586 0.428993 -0.273764
C6    C     C_R   0.582028 0.829905 0.421131 -0.173668
C7    C     C_R   0.515220 0.134234 0.494211 -0.278571
C8    C     C_R   0.698685 0.164666 0.498061 -0.223847
C9    C     C_R   0.405689 0.797302 0.455728 -0.176992
C10   C     C_R   0.073927 0.399007 0.325301 0.053506
C11   C     C_R   0.809198 0.624206 0.618701 0.215116
C12   C     C_1   0.497172 0.501813 0.227612 -0.232063
C13   C     C_R   0.912719 0.658584 0.630184 0.222745
C14   C     C_R   0.984426 0.612841 0.577179 -0.350029
C15   C     C_R   0.958944 0.529969 0.517896 0.001612
C16   C     C_R   0.559488 0.309197 0.509313 0.870803
C17   C     C_R   0.850660 0.507814 0.495756 0.155789
C18   C     C_R   0.037402 0.474820 0.473805 -0.081471
C19   C     C_R   0.000703 0.424489 0.386211 0.004716
C20   C     C_R   0.891896 0.400568 0.364310 0.175901
C21   C     C_R   0.821352 0.437004 0.423550 -0.253335
C22   C     C_R   0.150349 0.470284 0.513054 0.199406
C23   C     C_R   0.726943 0.061533 0.479598 0.174613
C24   C     C_R   0.185916 0.402484 0.363316 0.197256
C25   C     C_R   0.498780 0.500430 0.329564 0.878029
C26   C     C_1   0.503386 0.501678 0.772517 -0.224100
C27   C     C_1   0.503175 0.502327 0.857863 -0.019912
C28   C     C_1   0.501515 0.502740 0.957641 -0.002249
C29   C     C_1   0.499692 0.502807 0.042669 -0.000088
C30   C     C_1   0.497816 0.502519 0.142375 -0.024250
C31   C     C_3   0.852200 0.230926 0.313519 -0.825513
C32   C     C_3   0.032030 0.385523 0.216680 -0.302255
C33   C     C_3   0.031807 0.273659 0.183914 -0.818112
C34   C     C_R   0.593257 0.200751 0.503628 -0.102640
C35   C     C_3   0.190639 0.467712 0.621893 -0.366576
C36   C     C_3   0.247166 0.362362 0.654996 -0.814379
C37   C     C_3   0.738251 0.652057 0.692606 -0.338788
C38   C     C_3   0.767366 0.731442 0.771599 -0.903359
C39   C     C_3   0.941749 0.834208 0.657739 -0.810418
C40   C     C_3   0.844870 0.027189 0.479175 -0.436797
C41   C     C_3   0.922200 0.067183 0.566320 -0.883226
C42   C     C_3   0.145330 0.981710 0.406583 -0.410567
C43   C     C_3   0.065680 0.902497 0.376447 -0.896618
C44   C     C_3   0.262341 0.335911 0.311167 -0.317914
C45   C     C_R   0.296715 0.834885 0.447039 -0.197627
C46   C     C_3   0.280546 0.378525 0.216520 -0.829607
C47   C     C_R   0.263028 0.938590 0.429845 0.232436
C48   C     C_R   0.341754 0.005725 0.436644 -0.281504
C49   C     C_R   0.452551 0.969201 0.449334 0.080052
C50   C     C_R   0.480741 0.864101 0.442559 0.087312
H1    H     H_    0.758873 0.217652 0.507473 0.176453
H2    H     H_    0.841542 0.182444 0.247730 0.243139
H3    H     H_    0.783594 0.224871 0.349026 0.235939
H4    H     H_    0.929402 0.202817 0.362484 0.252399
H5    H     H_    0.045021 0.221132 0.246228 0.258348
H6    H     H_    0.953394 0.262335 0.135694 0.252605
H7    H     H_    0.095290 0.251590 0.142205 0.230737
H8    H     H_    0.949990 0.426158 0.193961 0.193877
H9    H     H_    0.076566 0.427927 0.174625 0.187933
H10   H     H_    0.187020 0.306246 0.645503 0.231534
H11   H     H_    0.309273 0.334846 0.613141 0.284112
H12   H     H_    0.062433 0.641035 0.585234 0.159689
H13   H     H_    0.286178 0.365371 0.732685 0.241595
H14   H     H_    0.241931 0.529600 0.645490 0.217291
H15   H     H_    0.124180 0.480162 0.661761 0.193764
H16   H     H_    0.844742 0.706363 0.821492 0.275088
H17   H     H_    0.768001 0.807205 0.740049 0.287319
H18   H     H_    0.704384 0.739802 0.815880 0.242252
H19   H     H_    0.656688 0.680594 0.654580 0.257719
H20   H     H_    0.737637 0.581224 0.732661 0.220446
H21   H     H_    0.025103 0.713094 0.740069 0.221874
H22   H     H_    0.966046 0.889455 0.716479 0.244294
H23   H     H_    0.743663 0.409910 0.410018 0.211887
H24   H     H_    0.857270 0.858263 0.620900 0.264829
H25   H     H_    0.995968 0.834462 0.605555 0.236585
H26   H     H_    0.932637 0.148177 0.556029 0.253420
H27   H     H_    0.891834 0.059614 0.633641 0.271185
H28   H     H_    0.002749 0.022909 0.574821 0.252606
H29   H     H_    0.862952 0.943710 0.479671 0.209685
H30   H     H_    0.863914 0.054190 0.412039 0.212452
H31   H     H_    0.090487 0.851390 0.319543 0.265515
H32   H     H_    0.060032 0.857016 0.439778 0.251325
H33   H     H_    0.984578 0.941432 0.345994 0.248480
H34   H     H_    0.736880 0.863227 0.410573 0.146454
H35   H     H_    0.125701 0.025532 0.469764 0.204427
H36   H     H_    0.133436 0.036023 0.345544 0.201538
H37   H     H_    0.264450 0.462857 0.213752 0.265374
H38   H     H_    0.364770 0.354859 0.209422 0.243609
H39   H     H_    0.230447 0.345871 0.152321 0.232602
H40   H     H_    0.340266 0.315936 0.357680 0.242722
H41   H     H_    0.232647 0.260108 0.296348 0.169452
H42   H     H_    0.437382 0.162669 0.508537 0.161729
H43   H     H_    0.238567 0.782988 0.452946 0.174308
H44   H     H_    0.314062 0.085776 0.426457 0.123554
H45   H     H_    0.599840 0.753667 0.394951 0.182054
H46   H     H_    0.780659 0.364204 0.244167 0.225657
N1    N     N_R   0.222200 0.444680 0.454480 -0.134878
N2    N     N_R   0.776970 0.554780 0.545050 -0.160098
N3    N     N_2   0.853251 0.335270 0.286506 -0.291606
N4    N     N_2   0.949546 0.734031 0.698466 -0.298791
O1    O     O_R   0.366740 0.627160 0.478260 -0.606346
O2    O     O_R   0.544830 0.662520 0.507340 -0.632061
O3    O     O_R   0.410930 0.482320 0.611740 -0.588934
O4    O     O_R   0.589030 0.517680 0.640820 -0.622643
O5    O     O_R   0.455170 0.337480 0.492660 -0.645969
O6    O     O_R   0.633260 0.372840 0.521740 -0.622932
O7    O     O_R   0.410970 0.482320 0.359180 -0.583612
O8    O     O_R   0.589070 0.517680 0.388260 -0.618443
Zn1   Zn    Zn3+2 0.381090 0.476390 0.480580 0.911353
Zn2   Zn    Zn3+2 0.618910 0.523610 0.519420 0.898744

loop_
_geom_bond_atom_site_label_1
_geom_bond_atom_site_label_2
_ccdc_geom_bond_type
C33   H5    S    
C15   C18   A    
H46   N3    S    
C9    C45   A    
N2    Zn2   S    
C37   H19   S    
C43   H33   S    
C3    C23   A    
C35   C36   S    
C32   H8    S    
C31   H2    S    
C45   H43   S    
C46   H39   S    
C22   C35   S    
C26   C27   T    
C29   C30   S    
C48   H44   S    
C11   N2    A    
C28   C29   T    
C41   H27   S    
C5    C6    A    
C35   H15   S    
O1    Zn1   S    
C23   C40   S    
C14   H12   S    
C4    O3    A    
C21   H23   S    
C8    C23   A    
C18   C19   A    
C39   H24   S    
C11   C37   S    
C2    C7    A    
C16   C34   S    
C38   H16   S    
C39   H22   S    
C40   H30   S    
C35   H14   S    
C42   H36   S    
C39   H25   S    
C36   H13   S    
C17   N2    A    
C16   O6    A    
C33   H6    S    
C22   N1    A    
C37   H20   S    
O7    Zn1   S    
C44   C46   S    
C46   H38   S    
C45   C47   A    
C24   N1    A    
C1    C9    S    
C38   H17   S    
C41   H28   S    
C5    H34   S    
C10   C24   A    
C31   H3    S    
C37   C38   S    
C2    C49   A    
N1    Zn1   S    
C47   C48   A    
C10   C19   A    
C40   H29   S    
C42   H35   S    
C8    C34   A    
C6    C50   A    
C8    H1    S    
C44   H41   S    
C16   O5    A    
C40   C41   S    
C38   H18   S    
C6    H45   S    
C31   N3    S    
C24   C44   S    
C7    C34   A    
O2    Zn2   S    
C42   C43   S    
C36   H11   S    
C1    O1    A    
C44   H40   S    
C25   O7    A    
C46   H37   S    
O6    Zn2   S    
C15   C17   A    
O5    Zn1   S    
C48   C49   A    
C33   H7    S    
C12   C30   T    
C18   C22   A    
C9    C50   A    
C3    C5    A    
C4    C26   S    
H21   N4    S    
C12   C25   S    
O3    Zn1   S    
C32   C33   S    
C19   C20   A    
C2    C3    A    
C41   H26   S    
O4    Zn2   S    
C11   C13   A    
C39   N4    S    
C20   N3    S    
C13   N4    S    
C43   H31   S    
C7    H42   S    
C4    O4    A    
O8    Zn2   S    
C42   C47   S    
C31   H4    S    
C17   C21   A    
C10   C32   S    
C20   C21   A    
C49   C50   A    
C27   C28   S    
C43   H32   S    
C36   H10   S    
C14   C15   A    
C32   H9    S    
C13   C14   A    
C1    O2    A    
C25   O8    A    
