data_mof_unit_7343.cif
_audit_creation_date              2013-03-05T16:18:41-0500
_audit_creation_method            fapswitch 2.2
_symmetry_space_group_name_H-M    P1
_symmetry_Int_Tables_number       1
_space_group_crystal_system       triclinic
_cell_length_a                    15.711865
_cell_length_b                    10.629173
_cell_length_c                    9.751799
_cell_angle_alpha                 91.358666
_cell_angle_beta                  89.983209
_cell_angle_gamma                 90.070446
_cell_volume                      1628.13156309

loop_
_atom_site_label
_atom_site_type_symbol
_atom_site_description
_atom_site_fract_x
_atom_site_fract_y
_atom_site_fract_z
_atom_type_partial_charge
O1    O     O_R   0.499980 0.314910 0.616040 -0.644265
O2    O     O_R   0.500040 0.314680 0.383960 -0.600325
C1    C     C_R   0.494924 0.257990 0.498776 0.843248
O3    O     O_R   0.376750 0.500100 0.616020 -0.630807
O4    O     O_R   0.376810 0.499870 0.383940 -0.632298
C2    C     C_R   0.337882 0.500059 0.499975 0.885942
Zn1   Zn    Zn3+2 0.499960 0.500150 0.654960 0.961365
Zn2   Zn    Zn3+2 0.500040 0.499850 0.345040 0.951056
O5    O     O_R   0.499960 0.685320 0.616040 -0.565749
O6    O     O_R   0.500020 0.685090 0.383960 -0.649505
O7    O     O_R   0.623190 0.500130 0.616060 -0.602400
O8    O     O_R   0.623250 0.499900 0.383980 -0.586545
C3    C     C_R   0.495673 0.742257 0.500711 0.841066
C4    C     C_R   0.662102 0.500087 0.500025 0.942536
C5    C     C_3   0.971754 0.406960 0.578923 -0.157605
C6    C     C_3   0.028019 0.388918 0.449775 -0.167786
H1    H     H_    0.053151 0.297987 0.408762 0.134714
H2    H     H_    0.946468 0.330776 0.643436 0.142975
H3    H     H_    0.946622 0.467434 0.265325 0.150888
C7    C     C_1   0.248880 0.500116 0.499961 -0.202591
C8    C     C_1   0.751090 0.500146 0.500026 -0.144824
C9    C     C_3   0.028111 0.518235 0.629106 -0.161159
C10   C     C_3   0.082576 0.500193 0.499957 0.203753
C11   C     C_3   0.971933 0.611485 0.550168 -0.158390
C12   C     C_3   0.917381 0.500208 0.499986 0.200605
C13   C     C_3   0.028201 0.593444 0.421018 -0.172549
C14   C     C_3   0.971841 0.482167 0.370836 -0.150988
C15   C     C_1   0.173511 0.500160 0.499954 -0.088925
C16   C     C_1   0.826453 0.500187 0.500009 -0.053591
H4    H     H_    0.053484 0.669629 0.356505 0.135222
H5    H     H_    0.946790 0.702409 0.591182 0.143739
H6    H     H_    0.053318 0.532965 0.734624 0.135156
C17   C     C_3   0.583708 0.073310 0.519409 -0.395579
H7    H     H_    0.611640 0.115847 0.614748 0.177856
H8    H     H_    0.624999 0.100616 0.432243 0.216491
C18   C     C_3   0.582898 0.930030 0.530278 -0.374516
H9    H     H_    0.629838 0.888127 0.456841 0.166003
H10   H     H_    0.602713 0.904775 0.635294 0.247966
H11   H     H_    0.459402 0.105808 0.716414 0.196425
H12   H     H_    0.443026 0.894600 0.711767 0.243681
C19   C     C_3   0.433676 0.074946 0.614676 -0.404650
C20   C     C_3   0.456073 0.068264 0.359660 -0.394136
C21   C     C_3   0.492029 0.121636 0.497445 0.175131
H13   H     H_    0.388295 0.096616 0.348174 0.153001
H14   H     H_    0.490905 0.104299 0.270106 0.231665
C22   C     C_3   0.492514 0.878917 0.499999 0.154221
C23   C     C_3   0.428857 0.930678 0.608825 -0.396035
C24   C     C_3   0.462973 0.924982 0.357120 -0.381648
H15   H     H_    0.509496 0.895533 0.276330 0.205276
H16   H     H_    0.400163 0.883067 0.329089 0.162464
H17   H     H_    0.368594 0.115102 0.605102 0.153391
H18   H     H_    0.363032 0.900070 0.581951 0.151723
C25   C     C_3   0.519865 0.372004 0.077883 0.267196
H19   H     H_    0.471861 0.303701 0.115467 0.082521
C26   C     C_3   0.514001 0.369105 0.915449 -0.386069
H20   H     H_    0.572713 0.328538 0.868541 0.202351
H21   H     H_    0.461653 0.304589 0.882331 0.148220
H22   H     H_    0.364868 0.465621 0.114299 0.161338
H23   H     H_    0.363775 0.476288 0.878499 0.161366
C27   C     C_3   0.413805 0.534404 0.081490 -0.347055
C28   C     C_3   0.559302 0.592495 0.084577 -0.276330
N1    N     N_3   0.498170 0.499750 0.138610 -0.109582
H24   H     H_    0.538708 0.688899 0.116351 0.188319
H25   H     H_    0.622309 0.583003 0.134181 0.192941
N2    N     N_3   0.498850 0.496730 0.861320 -0.105494
C29   C     C_3   0.415390 0.538101 0.919673 -0.267025
C30   C     C_3   0.567703 0.578915 0.923680 0.291818
H26   H     H_    0.630145 0.533296 0.901379 0.137221
H27   H     H_    0.393485 0.627508 0.124521 0.184726
H28   H     H_    0.399590 0.633938 0.885070 0.202471
N3    N     N_R   0.604447 0.328276 0.122317 0.228030
O9    O     O_R   0.610949 0.223981 0.188276 -0.424350
O10   O     O_R   0.673949 0.377307 0.074362 -0.441521
N4    N     N_R   0.571658 0.703420 0.863383 0.219704
O11   O     O_R   0.640964 0.737060 0.800950 -0.425241
O12   O     O_R   0.515824 0.789219 0.896259 -0.476245

loop_
_geom_bond_atom_site_label_1
_geom_bond_atom_site_label_2
_geom_bond_distance
_ccdc_geom_bond_type
C5    H2    1.110215 S    
C26   H20   1.112435 S    
H12   C23   1.105884 S    
H11   C19   1.113460 S    
C25   H19   1.114180 S    
Zn1   O7    1.972875 S    
C1    C21   1.449736 S    
C13   C14   1.546873 S    
C9    H6    1.110240 S    
C4    C8    1.398175 S    
C18   H9    1.113794 S    
C11   C13   1.546887 S    
H23   C29   1.112185 S    
O4    C2    1.286076 A    
O7    C4    1.285980 A    
C5    C12   1.530823 S    
H22   C27   1.112485 S    
C5    C6    1.546851 S    
C17   C18   1.529178 S    
C27   N1    1.488071 S    
C10   C13   1.530863 S    
C28   H24   1.111937 S    
O5    C3    1.291546 A    
C5    C9    1.546844 S    
C6    H1    1.110205 S    
N2    C30   1.508676 S    
C18   C22   1.545886 S    
H3    C14   1.110252 S    
C6    C14   1.546867 S    
C24   H16   1.113728 S    
C27   C29   1.579622 S    
C19   C21   1.555309 S    
C20   H13   1.113489 S    
O3    Zn1   1.972859 S    
C26   N2    1.486724 S    
C25   C26   1.586290 S    
C12   C16   1.428645 S    
C22   C24   1.558790 S    
N4    O11   1.301259 A    
C30   H26   1.113994 S    
C17   C21   1.546562 S    
C11   C12   1.530815 S    
O3    C2    1.286064 A    
N3    O10   1.301014 A    
C7    C15   1.184191 T    
C8    C16   1.184098 T    
O1    C1    1.283411 A    
C20   H14   1.106340 S    
C28   H25   1.107717 S    
Zn1   N2    2.013640 S    
C25   N1    1.507809 S    
C28   C30   1.577754 S    
Zn2   O8    1.972859 S    
C17   H7    1.114104 S    
C19   C23   1.534940 S    
C30   N4    1.462063 S    
C20   C24   1.526575 S    
C10   C15   1.428765 S    
N4    O12   1.300767 A    
C24   H15   1.114240 S    
O8    C4    1.285910 A    
C13   H4    1.110210 S    
C6    C10   1.530849 S    
C26   H21   1.113253 S    
C9    C11   1.546873 S    
C20   C21   1.552382 S    
C25   N3    1.476921 S    
C3    C22   1.453665 S    
Zn1   O5    2.013282 S    
C22   C23   1.549946 S    
O1    Zn1   1.996339 S    
O2    Zn2   2.013283 S    
O6    C3    1.279610 A    
O4    Zn2   1.972875 S    
C23   H18   1.113298 S    
C12   C14   1.530832 S    
C2    C7    1.398379 S    
C18   H10   1.109582 S    
O2    C1    1.286478 A    
C11   H5    1.110211 S    
N3    O9    1.298930 A    
C29   H28   1.109121 S    
C27   H27   1.112822 S    
C17   H8    1.112917 S    
C28   N1    1.481222 S    
Zn2   O6    1.996339 S    
N2    C29   1.491923 S    
C9    C10   1.530863 S    
C19   H17   1.113350 S    
Zn2   N1    2.013262 S    
