data_mof_unit_56240.cif
_audit_creation_date              2012-12-10T18:46:17-0500
_audit_creation_method            fapswitch 2.2
_symmetry_space_group_name_H-M    P1
_symmetry_Int_Tables_number       1
_space_group_crystal_system       triclinic
_cell_length_a                    9.921672
_cell_length_b                    10.714544
_cell_length_c                    13.006969
_cell_angle_alpha                 91.116338
_cell_angle_beta                  70.117324
_cell_angle_gamma                 89.288212
_cell_volume                      1299.78505902

loop_
_atom_site_label
_atom_site_type_symbol
_atom_type_description
_atom_site_fract_x
_atom_site_fract_y
_atom_site_fract_z
_atom_type_partial_charge
C1    C     C_R   0.503416 0.739145 0.489286 0.906153
C2    C     C_R   0.422399 0.508499 0.989329 -0.018298
C3    C     C_R   0.427486 0.453320 0.888666 -0.025493
C4    C     C_R   0.524873 0.465396 0.035247 0.106996
C5    C     C_R   0.611267 0.356471 0.991049 0.055790
C6    C     C_R   0.591406 0.288733 0.903694 0.111605
C7    C     C_R   0.493516 0.334427 0.856577 0.125068
C8    C     C_R   0.549227 0.530948 0.120912 -0.150323
C9    C     C_R   0.715533 0.372014 0.134821 -0.167944
C10   C     C_R   0.365395 0.518414 0.822865 -0.160689
C11   C     C_R   0.643295 0.931113 0.439333 0.323994
C12   C     C_R   0.419866 0.501237 0.704472 0.918997
C13   C     C_R   0.643905 0.060838 0.449880 0.458419
C14   C     C_R   0.512320 0.126809 0.478108 -0.200686
C15   C     C_R   0.385963 0.066489 0.486136 -0.257565
C16   C     C_R   0.383661 0.939581 0.477256 0.180603
C17   C     C_R   0.510050 0.870459 0.466314 -0.274649
C18   C     C_R   0.959915 0.425626 0.428404 -0.152519
C19   C     C_R   0.102470 0.423745 0.428943 0.204737
C20   C     C_R   0.036837 0.570134 0.575708 0.466129
C21   C     C_R   0.895056 0.571096 0.575177 0.511384
C22   C     C_R   0.504091 0.259958 0.493211 0.981830
C23   C     C_R   0.579789 0.500482 0.295475 0.851294
C24   C     C_R   0.710820 0.314781 0.039343 -0.119640
C25   C     C_R   0.628288 0.476418 0.178487 -0.053847
C26   C     C_R   0.274796 0.621472 0.865161 -0.190987
C27   C     C_R   0.246259 0.663065 0.972127 0.490703
C28   C     C_R   0.315270 0.603954 0.037450 0.027544
H1    H     H_    0.778139 0.328895 0.178958 0.168698
H2    H     H_    0.286243 0.118019 0.501205 0.229262
H3    H     H_    0.931111 0.366288 0.371179 0.208921
H4    H     H_    0.778589 0.233097 0.009159 0.183615
H5    H     H_    0.500676 0.621326 0.149014 0.164520
H6    H     H_    0.228927 0.672798 0.813565 0.197538
N1    N     N_R   0.142790 0.500030 0.500030 -0.192769
N2    N     N_R   0.857180 0.499940 0.500010 -0.186421
O1    O     O_R   0.385370 0.683250 0.500010 -0.618978
O2    O     O_R   0.614700 0.683220 0.500010 -0.621139
O3    O     O_R   0.328400 0.499990 0.653620 -0.622086
O4    O     O_R   0.557730 0.499960 0.653620 -0.607388
O5    O     O_R   0.385300 0.316780 0.499990 -0.610118
O6    O     O_R   0.614630 0.316750 0.499990 -0.546959
O7    O     O_R   0.442270 0.500040 0.346380 -0.567113
O8    O     O_R   0.671600 0.500010 0.346380 -0.620880
Zn1   Zn    Zn3+2 0.346870 0.500020 0.500000 1.004049
Zn2   Zn    Zn3+2 0.653130 0.499980 0.500000 1.003230
O9    O     O_3   0.770226 0.125117 0.429907 -0.737332
H7    H     H_    0.852230 0.066212 0.417244 0.397930
I1    I     I_    0.182150 0.872344 0.476623 -0.190461
I2    I     I_    0.243142 0.293265 0.317496 -0.273169
O10   O     O_3   0.062897 0.641497 0.655748 -0.689559
H8    H     H_    0.166748 0.647883 0.637448 0.375613
O11   O     O_3   0.797812 0.645284 0.654157 -0.684171
H9    H     H_    0.715486 0.662812 0.631206 0.383458
I3    I     I_    0.708486 0.117875 0.840537 -0.211306
I4    I     I_    0.211971 0.631231 0.210658 -0.312713
O12   O     O_3   0.151585 0.762902 0.008964 -0.712076
H10   H     H_    0.172158 0.806389 0.069606 0.365141
I5    I     I_    0.405772 0.207099 0.768563 -0.258552
O13   O     O_3   0.772877 0.866679 0.400985 -0.723810
H11   H     H_    0.763770 0.798397 0.351342 0.356420

loop_
_geom_bond_atom_site_label_1
_geom_bond_atom_site_label_2
_ccdc_geom_bond_type
C12   O4    A    
C2    C4    A    
C24   H4    S    
C9    C24   A    
N2    Zn2   S    
C6    C7    A    
C27   O12   S    
C9    H1    S    
C11   C13   A    
C1    C17   S    
O9    H7    S    
C1    O1    A    
C6    I3    S    
O3    Zn1   S    
C10   C26   A    
C12   O3    A    
C2    C3    A    
C28   I4    S    
C9    C25   A    
C3    C10   A    
C19   N1    A    
C13   C14   A    
C16   I1    S    
C21   O11   S    
C8    C25   A    
O7    Zn1   S    
C19   I2    S    
C14   C22   S    
O12   H10   S    
C22   O6    A    
C5    C24   A    
C10   C12   S    
C1    O2    A    
C7    I5    S    
O8    Zn2   S    
C20   O10   S    
C3    C7    A    
C8    H5    S    
C23   C25   S    
C26   C27   A    
C5    C6    A    
O2    Zn2   S    
C22   O5    A    
C16   C17   A    
C15   C16   A    
O4    Zn2   S    
O1    Zn1   S    
C11   O13   S    
N1    Zn1   S    
C27   C28   A    
C23   O7    A    
C20   C21   A    
C15   H2    S    
C13   O9    S    
C18   C19   A    
O6    Zn2   S    
C4    C8    A    
C21   N2    A    
O5    Zn1   S    
C14   C15   A    
C4    C5    A    
C2    C28   A    
C18   H3    S    
O11   H9    S    
C20   N1    A    
C18   N2    A    
C26   H6    S    
C11   C17   A    
C23   O8    A    
O10   H8    S    
O13   H11   S    
