data_mof_unit_59457.cif
_audit_creation_date              2012-12-10T17:52:36-0500
_audit_creation_method            fapswitch 2.2
_symmetry_space_group_name_H-M    P1
_symmetry_Int_Tables_number       1
_space_group_crystal_system       triclinic
_cell_length_a                    14.694016
_cell_length_b                    14.63272
_cell_length_c                    23.533937
_cell_angle_alpha                 75.92166
_cell_angle_beta                  102.835082
_cell_angle_gamma                 114.890897
_cell_volume                      4410.77785636

loop_
_atom_site_label
_atom_site_type_symbol
_atom_type_description
_atom_site_fract_x
_atom_site_fract_y
_atom_site_fract_z
_atom_type_partial_charge
C1    C     C_R   0.880557 0.311202 0.509319 0.841711
C2    C     C_R   0.119442 0.688796 0.490683 0.841734
C3    C     C_R   0.922296 0.518641 0.747155 -0.108317
C4    C     C_R   0.927254 0.520287 0.225481 -0.108146
C5    C     C_R   0.923106 0.519168 0.687929 -0.214338
C6    C     C_R   0.926358 0.520032 0.284624 -0.214760
C7    C     C_R   0.998796 0.499701 0.671506 -0.033608
C8    C     C_R   0.001203 0.500298 0.328494 -0.033608
C9    C     C_R   0.073594 0.479889 0.715382 -0.214750
C10   C     C_R   0.076937 0.480906 0.312065 -0.214370
C11   C     C_R   0.072695 0.479631 0.774524 -0.108148
C12   C     C_R   0.077744 0.481431 0.252840 -0.108286
C13   C     C_R   0.997071 0.498900 0.790572 0.373009
C14   C     C_R   0.002922 0.501094 0.209427 0.372969
C15   C     C_R   0.814267 0.201122 0.513741 -0.138177
C16   C     C_R   0.185727 0.798877 0.486257 -0.138178
C17   C     C_R   0.780354 0.021323 0.517350 0.068139
C18   C     C_R   0.219621 0.978672 0.482636 0.068136
C19   C     C_R   0.850059 0.123669 0.516540 0.231274
C20   C     C_R   0.149930 0.876317 0.483480 0.231315
C21   C     C_R   0.711206 0.173484 0.515005 -0.280669
C22   C     C_R   0.288780 0.826530 0.484961 -0.280685
C23   C     C_R   0.999646 0.499870 0.609024 0.800245
C24   C     C_R   0.000354 0.500130 0.390976 0.800218
C25   C     C_R   0.640449 0.073804 0.510523 0.049054
C26   C     C_R   0.359532 0.926216 0.489432 0.049063
C27   C     C_R   0.675474 0.001334 0.503255 0.022453
C28   C     C_R   0.324505 0.998682 0.496704 0.022427
C29   C     C_R   0.535043 0.046765 0.508811 0.035613
C30   C     C_R   0.464938 0.953262 0.491135 0.035617
C31   C     C_R   0.501968 0.892239 0.472630 -0.222776
C32   C     C_R   0.498014 0.107792 0.527313 -0.222771
C33   C     C_R   0.605255 0.915588 0.478175 0.230514
C34   C     C_R   0.394728 0.084441 0.521772 0.230514
C35   C     C_R   0.699193 0.640495 0.388002 -0.264812
C36   C     C_R   0.300810 0.359510 0.611999 -0.264791
C37   C     C_R   0.787694 0.623239 0.409252 0.129826
C38   C     C_R   0.212307 0.376763 0.590749 0.129882
C39   C     C_R   0.719291 0.516838 0.495783 0.018462
C40   C     C_R   0.280709 0.483164 0.504217 0.018468
C41   C     C_R   0.627927 0.533720 0.477408 -0.021837
C42   C     C_R   0.372076 0.466286 0.522593 -0.021813
C43   C     C_R   0.618455 0.594607 0.421352 0.172553
C44   C     C_R   0.381548 0.405400 0.578650 0.172558
C45   C     C_R   0.073278 0.582227 0.117775 0.517630
C46   C     C_R   0.926711 0.417770 0.882223 0.517633
C47   C     C_R   0.545708 0.491387 0.511717 0.080982
C48   C     C_R   0.454295 0.508620 0.488285 0.080988
C49   C     C_R   0.447759 0.566497 0.431138 -0.215770
C50   C     C_R   0.552245 0.433512 0.568865 -0.215751
C51   C     C_R   0.528385 0.608757 0.398639 -0.126690
C52   C     C_R   0.471619 0.391252 0.601364 -0.126679
C53   C     C_R   0.933656 0.421018 0.122898 0.534887
C54   C     C_R   0.066336 0.578976 0.877101 0.534892
C55   C     C_R   0.931421 0.419267 0.063383 -0.043383
C56   C     C_R   0.068567 0.580730 0.936614 -0.043389
C57   C     C_R   0.001647 0.501318 0.030079 -0.032931
C58   C     C_R   0.998340 0.498680 0.969918 -0.032931
C59   C     C_R   0.074681 0.585615 0.056966 -0.052410
C60   C     C_R   0.925305 0.414383 0.943031 -0.052413
C61   C     C_R   0.859891 0.336287 0.037337 -0.168195
C62   C     C_R   0.140095 0.663713 0.962660 -0.168195
C63   C     C_R   0.854986 0.331035 0.977836 0.071084
C64   C     C_R   0.144995 0.668967 0.022159 0.071086
Cu1   Cu    Cu3+1 0.081740 0.475680 0.515360 0.971409
Cu2   Cu    Cu3+1 0.918260 0.524320 0.484640 0.971402
H1    H     H_    0.807580 0.275066 0.064519 0.185026
H2    H     H_    0.192405 0.724933 0.935477 0.185027
H3    H     H_    0.451901 0.828918 0.450340 0.169486
H4    H     H_    0.548080 0.171119 0.549599 0.169489
H5    H     H_    0.520272 0.653663 0.355209 0.158176
H6    H     H_    0.479733 0.346347 0.644794 0.158157
H7    H     H_    0.269193 0.533139 0.463963 0.117221
H8    H     H_    0.730806 0.466861 0.536037 0.117230
H9    H     H_    0.150553 0.342653 0.616929 0.131714
H10   H     H_    0.849448 0.657349 0.383072 0.131690
H11   H     H_    0.693455 0.688483 0.345415 0.151147
H12   H     H_    0.306548 0.311524 0.654587 0.151138
H13   H     H_    0.380839 0.580464 0.409924 0.130255
H14   H     H_    0.619166 0.419547 0.590079 0.130261
H15   H     H_    0.863783 0.533804 0.759372 0.135262
H16   H     H_    0.869300 0.535613 0.192015 0.136314
H17   H     H_    0.864498 0.534682 0.655119 0.156431
H18   H     H_    0.867106 0.535231 0.295928 0.155578
H19   H     H_    0.132810 0.464630 0.704082 0.155565
H20   H     H_    0.135584 0.465457 0.344871 0.156413
H21   H     H_    0.130613 0.464245 0.807995 0.136290
H22   H     H_    0.136293 0.466328 0.240618 0.135288
H23   H     H_    0.313970 0.766881 0.485450 0.167981
H24   H     H_    0.686016 0.233138 0.514502 0.167995
N1    N     N_R   0.003495 0.501349 0.148522 -0.459953
N2    N     N_R   0.996497 0.498645 0.851477 -0.459961
N3    N     N_R   0.795430 0.560810 0.461550 -0.173225
N4    N     N_R   0.204570 0.439190 0.538450 -0.173236
O1    O     O_R   0.977900 0.338110 0.520250 -0.530092
O2    O     O_R   0.022100 0.661890 0.479750 -0.530106
O3    O     O_R   0.839850 0.379180 0.494310 -0.594132
O4    O     O_R   0.160150 0.620820 0.505690 -0.594126
O5    O     O_R   0.069020 0.479430 0.595090 -0.597391
O6    O     O_R   0.930980 0.520570 0.404910 -0.597391
O7    O     O_R   0.930970 0.520500 0.569150 -0.580639
O8    O     O_R   0.069030 0.479500 0.430850 -0.580651
O9    O     O_2   0.139965 0.658339 0.146591 -0.571837
O10   O     O_2   0.860025 0.341658 0.853406 -0.571826
O11   O     O_2   0.866738 0.342556 0.155323 -0.543674
O12   O     O_2   0.133259 0.657434 0.844676 -0.543658
C65   C     C_3   0.817422 0.934446 0.540896 -0.313788
C66   C     C_3   0.861475 0.932191 0.606699 -0.385253
C67   C     C_3   0.900017 0.846169 0.629906 -0.747942
H25   H     H_    0.838009 0.771039 0.623872 0.248073
H26   H     H_    0.962898 0.858754 0.606272 0.296023
H27   H     H_    0.928708 0.844735 0.677787 0.240379
H28   H     H_    0.925009 0.005536 0.614146 0.263538
H29   H     H_    0.801573 0.920145 0.632707 0.217825
H30   H     H_    0.754598 0.858962 0.538814 0.231228
H31   H     H_    0.873944 0.941227 0.514040 0.277250
C68   C     C_3   0.182528 0.065533 0.459093 -0.313819
C69   C     C_3   0.138326 0.067694 0.393314 -0.385190
C70   C     C_3   0.099979 0.153852 0.370081 -0.748117
H32   H     H_    0.037329 0.141581 0.393821 0.296012
H33   H     H_    0.162169 0.228956 0.375957 0.247964
H34   H     H_    0.071028 0.155105 0.322235 0.240471
H35   H     H_    0.198096 0.079520 0.367265 0.217848
H36   H     H_    0.074657 0.994392 0.385944 0.263600
H37   H     H_    0.126085 0.058800 0.485991 0.277230
H38   H     H_    0.245370 0.141024 0.461117 0.231250
C71   C     C_3   0.775925 0.237173 0.952141 -0.327556
C72   C     C_3   0.706525 0.151180 0.994361 -0.423944
C73   C     C_3   0.633402 0.062361 0.962871 -0.810473
H39   H     H_    0.583214 0.088263 0.925908 0.258244
H40   H     H_    0.675918 0.030490 0.945256 0.260547
H41   H     H_    0.585701 0.000890 0.994593 0.246190
H42   H     H_    0.753024 0.121539 0.032106 0.233981
H43   H     H_    0.661115 0.180768 0.011280 0.230584
H44   H     H_    0.725957 0.263208 0.915027 0.237694
H45   H     H_    0.816739 0.202464 0.935263 0.239567
C74   C     C_3   0.224047 0.762835 0.047853 -0.327555
C75   C     C_3   0.293429 0.848840 0.005627 -0.423945
C76   C     C_3   0.366538 0.937668 0.037115 -0.810472
H46   H     H_    0.324011 0.969511 0.054742 0.260549
H47   H     H_    0.416750 0.911783 0.074069 0.258242
H48   H     H_    0.414215 0.999154 0.005387 0.246187
H49   H     H_    0.338850 0.819269 0.988706 0.230582
H50   H     H_    0.246915 0.878465 0.967885 0.233983
H51   H     H_    0.183224 0.797530 0.064734 0.239568
H52   H     H_    0.274027 0.736811 0.084963 0.237693
Br1   Br    Br    0.644414 0.846869 0.433720 -0.563981
Br2   Br    Br    0.355578 0.153191 0.566212 -0.563950
Br3   Br    Br    0.009029 0.845998 0.486141 -0.553875
Br4   Br    Br    0.990989 0.153955 0.513982 -0.553845

loop_
_geom_bond_atom_site_label_1
_geom_bond_atom_site_label_2
_ccdc_geom_bond_type
C23   O5    A    
C11   C13   A    
C66   C67   S    
C72   C73   S    
C39   C41   A    
C27   C33   A    
C15   C19   A    
C59   C64   A    
C51   H5    S    
C60   C63   A    
Cu2   O3    S    
C74   H51   S    
C35   C37   A    
C71   H44   S    
Cu1   O4    S    
C29   C32   A    
C75   H49   S    
C17   C65   S    
Cu1   N4    S    
C30   C31   A    
C5    H17   S    
C76   H48   S    
C57   C59   A    
C46   N2    A    
C58   C60   A    
C19   Br4   S    
C20   Br3   S    
C39   H8    S    
Cu2   O6    S    
C61   C63   A    
C69   C70   S    
C39   N3    A    
C62   C64   A    
C33   Br1   S    
C9    H19   S    
C34   Br2   S    
C45   C59   A    
C11   H21   S    
C49   C51   A    
C53   N1    A    
C50   C52   A    
C65   C66   S    
C31   C33   A    
C1    C15   S    
C2    C16   S    
C68   H38   S    
C24   O8    A    
C3    C13   A    
C1    O1    A    
C21   H24   S    
C73   H41   S    
C44   C52   A    
C53   C55   A    
C69   H36   S    
C28   C34   A    
C41   C43   A    
Cu2   O7    S    
C42   C44   A    
Cu1   O8    S    
C47   C50   A    
C38   H9    S    
C70   H33   S    
C25   C29   A    
C65   H31   S    
C54   C56   A    
C6    H18   S    
C12   H22   S    
Cu1   O1    S    
C17   C27   A    
C74   H52   S    
C18   C28   A    
C71   H45   S    
Cu1   O5    S    
C4    C6    A    
C67   H27   S    
C1    O3    A    
C5    C7    A    
C54   O12   S    
C17   C19   A    
C6    C8    A    
C46   O10   S    
C2    O2    A    
C35   H11   S    
C49   H13   S    
C32   C34   A    
C66   H28   S    
C66   H29   S    
C54   N2    A    
C29   C30   A    
C52   H6    S    
C72   H43   S    
C72   H42   S    
C61   H1    S    
C47   C48   A    
C15   C21   A    
C16   C20   A    
C38   N4    A    
C41   C47   A    
C37   N3    A    
C42   C48   A    
C70   H32   S    
C9    C11   A    
C18   C68   S    
C65   H30   S    
C10   C12   A    
Cu2   N3    S    
C48   C49   A    
C37   H10   S    
C12   C14   A    
C26   C30   A    
C55   C57   A    
C13   N2    S    
C56   C62   A    
C36   C44   A    
C71   C72   S    
C35   C43   A    
Cu2   O2    S    
C73   H39   S    
C70   H34   S    
C7    C9    A    
C21   C25   A    
C10   H20   S    
C16   C22   A    
C46   C60   A    
C24   O6    A    
C3    H15   S    
C40   N4    A    
C3    C5    A    
C50   H14   S    
C32   H4    S    
C76   H46   S    
C25   C27   A    
C74   C75   S    
C26   C28   A    
C62   H2    S    
C67   H26   S    
C36   H12   S    
C68   C69   S    
C36   C38   A    
C76   H47   S    
C43   C51   A    
C57   C58   A    
C23   O7    A    
C7    C23   S    
C55   C61   A    
C40   C42   A    
C8    C24   S    
C22   H23   S    
C56   C58   A    
C18   C20   A    
C69   H35   S    
C4    C14   A    
C45   N1    A    
C14   N1    S    
C75   C76   S    
C53   O11   S    
C31   H3    S    
C4    H16   S    
C2    O4    A    
C8    C10   A    
Cu1   Cu2   S    
C22   C26   A    
C64   C74   S    
C75   H50   S    
C40   H7    S    
C67   H25   S    
C68   H37   S    
C63   C71   S    
C73   H40   S    
C45   O9    S    
