data_mof_unit_23792.cif
_audit_creation_date              2012-10-26T20:42:31-0400
_audit_creation_method            fapswitch 2.2
_symmetry_space_group_name_H-M    P1
_symmetry_Int_Tables_number       1
_space_group_crystal_system       triclinic
_cell_length_a                    10.858389
_cell_length_b                    9.647044
_cell_length_c                    10.930059
_cell_angle_alpha                 90.407636
_cell_angle_beta                  94.03818
_cell_angle_gamma                 91.864494
_cell_volume                      1141.44056054

loop_
_atom_site_label
_atom_site_type_symbol
_atom_type_description
_atom_site_fract_x
_atom_site_fract_y
_atom_site_fract_z
_atom_type_partial_charge
C1    C     C_R   0.262215 0.497624 0.499457 0.589230
C2    C     C_R   0.925340 0.399883 0.421607 0.054183
C3    C     C_R   0.870355 0.503776 0.488232 -0.037391
C4    C     C_R   0.127494 0.493486 0.498433 -0.037200
C5    C     C_R   0.943707 0.604935 0.553310 0.341260
C6    C     C_R   0.070804 0.601360 0.556898 0.348448
C7    C     C_R   0.438203 0.069835 0.406122 0.212047
C8    C     C_R   0.559560 0.077142 0.594726 0.222944
C9    C     C_R   0.436248 0.920897 0.408571 0.245728
C10   C     C_R   0.556987 0.928590 0.595754 0.226265
C11   C     C_3   0.114268 0.153218 0.474615 -0.250823
C12   C     C_R   0.736951 0.501682 0.495289 0.589712
C13   C     C_3   0.824358 0.177861 0.350193 -0.215315
C14   C     C_3   0.386794 0.112496 0.185539 -0.239727
C15   C     C_3   0.738498 0.199051 0.703107 -0.245112
C16   C     C_3   0.227821 0.844760 0.333509 -0.267307
C17   C     C_3   0.723713 0.863255 0.747235 -0.236680
C18   C     C_R   0.501123 0.500025 0.265771 0.570275
C19   C     C_R   0.503232 0.500748 0.734756 0.579266
C20   C     C_2   0.513448 0.391830 0.936499 0.364321
C21   C     C_2   0.541111 0.399962 0.068606 0.343386
C22   C     C_2   0.521324 0.505433 0.867604 -0.111499
C23   C     C_2   0.495316 0.501663 0.133344 -0.122039
C24   C     C_R   0.054402 0.388624 0.434293 0.052913
Cu1   Cu    Cu3+1 0.500000 0.640660 0.500000 1.041305
Cu2   Cu    Cu3+1 0.500000 0.359340 0.500000 1.015191
F1    F     F_    0.473960 0.267245 0.887677 -0.627243
F2    F     F_    0.604966 0.296106 0.124467 -0.632423
F3    F     F_    0.892765 0.707804 0.614486 -0.643199
F4    F     F_    0.138530 0.700558 0.622946 -0.598074
H1    H     H_    0.549014 0.605088 0.909748 0.030328
H2    H     H_    0.860145 0.145085 0.442183 0.128249
H3    H     H_    0.328541 0.229704 0.331970 0.309815
H4    H     H_    0.380158 0.211280 0.135242 0.202368
H5    H     H_    0.314226 0.041882 0.141096 0.129691
H6    H     H_    0.479338 0.069036 0.176585 0.196641
H7    H     H_    0.588406 0.108192 0.782737 0.298715
H8    H     H_    0.744372 0.312770 0.719122 0.175641
H9    H     H_    0.780391 0.173662 0.617049 0.131136
H10   H     H_    0.793753 0.151220 0.779944 0.111443
H11   H     H_    0.386003 0.842263 0.233114 0.235501
H12   H     H_    0.446797 0.585981 0.088024 0.031230
H13   H     H_    0.182799 0.748606 0.292759 0.137577
H14   H     H_    0.188156 0.934790 0.284208 0.131441
H15   H     H_    0.207035 0.850776 0.431412 0.207323
H16   H     H_    0.535245 0.869226 0.774965 0.248808
H17   H     H_    0.751383 0.756135 0.769047 0.219595
H18   H     H_    0.738777 0.925116 0.833298 0.105024
H19   H     H_    0.781898 0.908144 0.676864 0.208879
H20   H     H_    0.080570 0.239871 0.300745 0.252861
H21   H     H_    0.065127 0.060245 0.432236 0.120612
H22   H     H_    0.071678 0.177595 0.561631 0.156375
H23   H     H_    0.211436 0.127208 0.498455 0.189466
H24   H     H_    0.877008 0.343182 0.240880 0.265384
H25   H     H_    0.865754 0.112328 0.280930 0.120169
H26   H     H_    0.722688 0.159531 0.341592 0.206017
N1    N     N_R   0.500000 0.852070 0.500000 -0.215744
N2    N     N_R   0.500000 0.147940 0.500000 -0.243381
N3    N     N_2   0.109462 0.268434 0.389493 -0.511343
N4    N     N_2   0.852791 0.323003 0.328722 -0.460891
N5    N     N_2   0.363049 0.135349 0.312740 -0.525518
N6    N     N_2   0.610601 0.150879 0.700814 -0.421915
N7    N     N_2   0.359671 0.841145 0.321762 -0.457478
N8    N     N_2   0.594447 0.859592 0.705812 -0.479055
O1    O     O_R   0.319640 0.618740 0.499990 -0.441329
O2    O     O_R   0.680360 0.618740 0.500010 -0.451425
O3    O     O_R   0.319620 0.381170 0.499990 -0.510995
O4    O     O_R   0.680380 0.381170 0.500010 -0.502011
O5    O     O_R   0.500000 0.618750 0.321940 -0.508970
O6    O     O_R   0.500000 0.618750 0.678060 -0.478331
O7    O     O_R   0.499970 0.381180 0.321940 -0.459885
O8    O     O_R   0.500030 0.381180 0.678060 -0.414463

loop_
_geom_bond_atom_site_label_1
_geom_bond_atom_site_label_2
_ccdc_geom_bond_type
C16   H15   S    
C14   H4    S    
C1    O1    A    
C15   N6    S    
C15   H8    S    
C19   C22   S    
Cu1   O6    S    
C16   N7    S    
Cu2   O8    S    
C16   H14   S    
C7    N2    A    
C16   H13   S    
C11   H23   S    
C17   H18   S    
C13   H26   S    
Cu2   O4    S    
C1    C4    S    
C18   O5    A    
H7    N6    S    
C13   N4    S    
H24   N4    S    
C2    C24   A    
Cu2   O7    S    
C12   O4    A    
C20   F1    S    
C15   H9    S    
C19   O8    A    
C23   H12   S    
Cu1   N1    S    
C24   N3    S    
C11   N3    S    
Cu2   O3    S    
H3    N5    S    
C6    F4    S    
C21   F2    S    
C20   C22   D    
C2    C3    A    
C9    N1    A    
C21   C23   D    
C17   N8    S    
C14   H6    S    
C5    C6    A    
C4    C24   A    
C2    N4    S    
C15   H10   S    
C11   H21   S    
C22   H1    S    
H20   N3    S    
C18   C23   S    
C5    F3    S    
C14   H5    S    
C10   N1    A    
Cu1   O1    S    
C20   C21   S    
C4    C6    A    
Cu1   O5    S    
C17   H19   S    
C18   O7    A    
C7    C9    A    
C13   H25   S    
H11   N7    S    
C11   H22   S    
C7    N5    S    
C19   O6    A    
C8    N2    A    
C3    C12   S    
C13   H2    S    
C1    O3    A    
Cu1   Cu2   S    
C9    N7    S    
C14   N5    S    
C12   O2    A    
Cu2   N2    S    
C8    C10   A    
C10   N8    S    
Cu1   O2    S    
C17   H17   S    
C8    N6    S    
H16   N8    S    
C3    C5    A    
