data_mof_unit_10552.cif
_audit_creation_date              2012-12-10T18:05:52-0500
_audit_creation_method            fapswitch 2.2
_symmetry_space_group_name_H-M    P1
_symmetry_Int_Tables_number       1
_space_group_crystal_system       triclinic
_cell_length_a                    12.5938
_cell_length_b                    13.131574
_cell_length_c                    14.952837
_cell_angle_alpha                 90.737129
_cell_angle_beta                  102.740813
_cell_angle_gamma                 82.081965
_cell_volume                      2388.57146455

loop_
_atom_site_label
_atom_site_type_symbol
_atom_type_description
_atom_site_fract_x
_atom_site_fract_y
_atom_site_fract_z
_atom_type_partial_charge
C1    C     C_R   0.438678 0.691176 0.485078 0.854275
C2    C     C_R   0.429476 0.439057 0.079514 0.037337
C3    C     C_R   0.630345 0.622751 0.072618 -0.219036
C4    C     C_R   0.633500 0.620406 0.980385 -0.219562
C5    C     C_R   0.568955 0.558619 0.920844 0.132846
C6    C     C_R   0.500697 0.498085 0.953770 0.056394
C7    C     C_R   0.435403 0.435998 0.893898 0.060221
C8    C     C_R   0.368736 0.375422 0.926536 -0.242164
C9    C     C_R   0.364759 0.376343 0.018886 0.207049
C10   C     C_R   0.570456 0.557125 0.828470 -0.257961
C11   C     C_R   0.503474 0.497288 0.769344 -0.068968
C12   C     C_R   0.501128 0.499418 0.673071 0.889888
C13   C     C_R   0.436909 0.436370 0.801651 -0.240099
C14   C     C_R   0.709308 0.060788 0.447061 -0.201472
C15   C     C_R   0.597541 0.199383 0.504646 -0.050313
C16   C     C_R   0.297152 0.839371 0.490706 -0.191686
C17   C     C_R   0.267471 0.944566 0.496437 -0.149987
C18   C     C_R   0.342280 0.011311 0.490026 -0.194515
C19   C     C_R   0.447009 0.973461 0.473117 0.083818
C20   C     C_R   0.469050 0.868921 0.452400 0.084439
C21   C     C_R   0.530798 0.035664 0.476358 0.076674
C22   C     C_R   0.627237 0.997931 0.445156 0.176237
C23   C     C_R   0.561329 0.308615 0.510073 0.857201
C24   C     C_R   0.639371 0.898751 0.411386 -0.266107
C25   C     C_R   0.560995 0.835015 0.414470 -0.199005
C26   C     C_R   0.522097 0.133983 0.511807 -0.257590
C27   C     C_R   0.693887 0.162072 0.475858 -0.211391
C28   C     C_R   0.399298 0.800832 0.471826 -0.113864
C29   C     C_R   0.091254 0.341683 0.376142 -0.320115
C30   C     C_R   0.797549 0.634604 0.603752 -0.003773
C31   C     C_R   0.899117 0.670391 0.618893 0.185342
C32   C     C_R   0.980884 0.619178 0.578124 -0.274018
C33   C     C_R   0.959914 0.535029 0.519771 -0.013321
C34   C     C_R   0.498723 0.500876 0.326975 0.864908
C35   C     C_R   0.853937 0.505516 0.504012 0.175330
C36   C     C_R   0.039335 0.479753 0.476368 -0.016979
C37   C     C_R   0.009728 0.399237 0.414379 0.136653
C38   C     C_R   0.900290 0.377287 0.393058 0.038053
C39   C     C_R   0.826850 0.427446 0.442297 -0.223846
C40   C     C_R   0.148592 0.500383 0.493219 -0.038725
C41   C     C_R   0.196943 0.366526 0.395590 0.011788
C42   C     C_R   0.430455 0.440883 0.172735 -0.258767
C43   C     C_R   0.495811 0.502859 0.230715 -0.063463
C44   C     C_R   0.560547 0.564772 0.197650 -0.284619
C45   C     C_R   0.562906 0.563075 0.105713 0.143390
C46   C     C_R   0.497527 0.500055 0.046314 0.031442
H1    H     H_    0.383473 0.392342 0.201820 0.160416
H2    H     H_    0.710424 0.869737 0.384132 0.148457
H3    H     H_    0.783157 0.032833 0.423288 0.131222
H4    H     H_    0.454528 0.163308 0.542668 0.150166
H5    H     H_    0.241622 0.788111 0.503793 0.151504
H6    H     H_    0.314990 0.092090 0.496366 0.132411
H7    H     H_    0.188058 0.974255 0.509920 0.139731
H8    H     H_    0.572741 0.759206 0.386015 0.171278
H9    H     H_    0.259777 0.322990 0.366062 0.133594
H10   H     H_    0.075969 0.276345 0.332958 0.139980
H11   H     H_    0.610271 0.613013 0.243857 0.154518
H12   H     H_    0.178651 0.558841 0.539195 0.125817
H13   H     H_    0.733389 0.671705 0.635473 0.145542
H14   H     H_    0.058323 0.648831 0.591291 0.131064
H15   H     H_    0.747633 0.405012 0.431625 0.217015
H16   H     H_    0.680710 0.670959 0.118102 0.146595
H17   H     H_    0.685952 0.667042 0.955556 0.149533
H18   H     H_    0.621442 0.604286 0.802179 0.153855
H19   H     H_    0.386445 0.389181 0.754914 0.157225
H20   H     H_    0.318552 0.327888 0.880026 0.162072
H21   H     H_    0.754228 0.211990 0.471627 0.154077
N1    N     N_R   0.222190 0.444670 0.452360 -0.104206
N2    N     N_R   0.776970 0.554790 0.547140 -0.146955
O1    O     O_R   0.366740 0.627160 0.477250 -0.613945
O2    O     O_R   0.544830 0.662520 0.507680 -0.621595
O3    O     O_R   0.410940 0.482340 0.616930 -0.622873
O4    O     O_R   0.589030 0.517700 0.647360 -0.616808
O5    O     O_R   0.455170 0.337480 0.492320 -0.620005
O6    O     O_R   0.633260 0.372840 0.522750 -0.636191
O7    O     O_R   0.410970 0.482300 0.352640 -0.614625
O8    O     O_R   0.589060 0.517660 0.383070 -0.651315
Zn1   Zn    Zn3+2 0.381090 0.476390 0.479680 0.936087
Zn2   Zn    Zn3+2 0.618910 0.523610 0.520320 0.920405
C47   C     C_3   0.862640 0.299262 0.319786 -0.440694
C48   C     C_3   0.739133 0.315873 0.274378 -0.344134
C49   C     C_3   0.712478 0.246557 0.192047 -0.864376
H22   H     H_    0.756578 0.264061 0.138669 0.262001
H23   H     H_    0.736357 0.164463 0.213692 0.259447
H24   H     H_    0.622757 0.259858 0.161885 0.256803
H25   H     H_    0.689340 0.298587 0.323436 0.214163
H26   H     H_    0.714873 0.397058 0.250625 0.248091
H27   H     H_    0.905146 0.305456 0.262868 0.215786
H28   H     H_    0.886502 0.220426 0.350205 0.197450
N3    N     N_2   0.919286 0.757087 0.675170 -0.313272
H29   H     H_    0.001218 0.765533 0.696642 0.226922
C50   C     C_3   0.851296 0.852640 0.640858 -0.780781
H30   H     H_    0.871994 0.914966 0.689817 0.241433
H31   H     H_    0.762827 0.846160 0.633602 0.248543
H32   H     H_    0.866136 0.873827 0.573359 0.238727
N4    N     N_2   0.293582 0.315038 0.048219 -0.306429
H33   H     H_    0.248624 0.350087 0.092739 0.222417
C51   C     C_3   0.343349 0.211012 0.075407 -0.797198
H34   H     H_    0.411492 0.211241 0.136936 0.234726
H35   H     H_    0.375549 0.171920 0.018524 0.252928
H36   H     H_    0.280710 0.167166 0.092168 0.241460

loop_
_geom_bond_atom_site_label_1
_geom_bond_atom_site_label_2
_ccdc_geom_bond_type
C16   C28   A    
C21   C26   A    
C8    H20   S    
O1    Zn1   S    
C19   C20   A    
C16   H5    S    
O2    Zn2   S    
C48   C49   S    
C18   H6    S    
C7    C8    A    
C13   H19   S    
C45   C46   A    
C2    C46   A    
C4    H17   S    
C1    O2    A    
C36   C37   A    
C19   C21   A    
O7    Zn1   S    
C26   H4    S    
C34   O8    A    
C5    C6    A    
C14   H3    S    
C20   C25   A    
C33   C36   A    
C18   C19   A    
C47   H28   S    
C41   H9    S    
O3    Zn1   S    
N3    C50   S    
C16   C17   A    
N4    C51   S    
C1    C28   S    
C14   C27   A    
C48   H25   S    
C15   C23   S    
C12   O3    A    
C21   C22   A    
C30   H13   S    
C41   N1    A    
O8    Zn2   S    
N1    Zn1   S    
C38   C39   A    
C39   H15   S    
C40   H12   S    
C24   H2    S    
C36   C40   A    
C24   C25   A    
C8    C9    A    
C15   C26   A    
C20   C28   A    
C3    C45   A    
C50   H32   S    
C35   C39   A    
C43   C44   A    
C37   C38   A    
C15   C27   A    
C31   C32   A    
C7    C13   A    
C44   H11   S    
C31   N3    S    
N4    H33   S    
C50   H31   S    
C17   C18   A    
O4    Zn2   S    
C25   H8    S    
C9    N4    S    
C48   H26   S    
C51   H34   S    
C49   H23   S    
O5    Zn1   S    
C22   C24   A    
N2    Zn2   S    
C42   C43   A    
C32   H14   S    
C23   O5    A    
C3    C4    A    
C51   H36   S    
C17   H7    S    
C30   N2    A    
C44   C45   A    
C3    H16   S    
C6    C46   A    
C29   C41   A    
C10   H18   S    
C34   C43   S    
C23   O6    A    
C47   C48   S    
C11   C12   S    
C6    C7    A    
C29   H10   S    
C49   H24   S    
C51   H35   S    
C1    O1    A    
C32   C33   A    
C14   C22   A    
C5    C10   A    
C47   H27   S    
C11   C13   A    
N3    H29   S    
C30   C31   A    
C38   C47   S    
C2    C42   A    
C50   H30   S    
C33   C35   A    
C42   H1    S    
C27   H21   S    
C10   C11   A    
C4    C5    A    
C35   N2    A    
C49   H22   S    
C40   N1    A    
C29   C37   A    
C12   O4    A    
C2    C9    A    
O6    Zn2   S    
C34   O7    A    
