data_mof_unit_61411.cif
_audit_creation_date              2012-12-10T18:47:00-0500
_audit_creation_method            fapswitch 2.2
_symmetry_space_group_name_H-M    P1
_symmetry_Int_Tables_number       1
_space_group_crystal_system       triclinic
_cell_length_a                    15.772193
_cell_length_b                    18.192776
_cell_length_c                    19.411421
_cell_angle_alpha                 90.793339
_cell_angle_beta                  91.606881
_cell_angle_gamma                 70.99644
_cell_volume                      5264.20671713

loop_
_atom_site_label
_atom_site_type_symbol
_atom_type_description
_atom_site_fract_x
_atom_site_fract_y
_atom_site_fract_z
_atom_type_partial_charge
C1    C     C_R   0.497972 0.500854 0.632428 0.879837
C2    C     C_R   0.502028 0.499146 0.367573 0.879855
C3    C     C_R   0.084595 0.422051 0.452053 -0.080723
C4    C     C_R   0.915404 0.577949 0.547944 -0.080716
C5    C     C_R   0.034107 0.376802 0.428023 -0.127024
C6    C     C_R   0.965891 0.623199 0.571973 -0.127029
C7    C     C_R   0.548084 0.541675 0.255736 0.381032
C8    C     C_R   0.451979 0.458279 0.744273 0.381049
C9    C     C_R   0.546212 0.540764 0.183879 -0.179469
C10   C     C_R   0.453849 0.459198 0.816130 -0.179433
C11   C     C_R   0.501718 0.496837 0.147381 -0.023541
C12   C     C_R   0.498280 0.503179 0.852622 -0.023548
C13   C     C_R   0.460286 0.451684 0.183000 0.456408
C14   C     C_R   0.539653 0.548375 0.816998 0.456380
C15   C     C_R   0.462056 0.452369 0.254818 -0.207074
C16   C     C_R   0.537882 0.547683 0.745180 -0.207082
C17   C     C_R   0.504563 0.497858 0.291900 -0.206867
C18   C     C_R   0.495438 0.502142 0.708102 -0.206878
C19   C     C_R   0.577407 0.457199 0.036844 -0.219588
C20   C     C_R   0.422595 0.542829 0.963158 -0.219533
C21   C     C_R   0.577901 0.458121 0.965059 0.458201
C22   C     C_R   0.422101 0.541908 0.034943 0.458221
C23   C     C_R   0.671992 0.453149 0.498891 0.871143
C24   C     C_R   0.328008 0.546851 0.501109 0.871106
C25   C     C_R   0.500158 0.501435 0.928055 -0.024219
C26   C     C_R   0.499842 0.498589 0.071947 -0.024216
C27   C     C_R   0.555946 0.265354 0.545475 -0.023721
C28   C     C_R   0.444053 0.734646 0.454525 -0.023759
C29   C     C_R   0.558978 0.187060 0.548170 0.328473
C30   C     C_R   0.441021 0.812940 0.451831 0.328466
C31   C     C_R   0.503627 0.160033 0.503330 -0.018362
C32   C     C_R   0.496373 0.839967 0.496671 -0.018355
C33   C     C_R   0.446480 0.213083 0.456809 0.265603
C34   C     C_R   0.553521 0.786916 0.543191 0.265603
C35   C     C_R   0.445748 0.290895 0.455780 0.483828
C36   C     C_R   0.554253 0.709105 0.544219 0.483819
C37   C     C_R   0.442665 0.055543 0.543536 0.348221
C38   C     C_R   0.557335 0.944456 0.456464 0.348219
C39   C     C_R   0.438355 0.979108 0.539779 0.345339
C40   C     C_R   0.561646 0.020892 0.460222 0.345340
C41   C     C_R   0.495486 0.922972 0.496071 -0.096605
C42   C     C_R   0.504515 0.077028 0.503930 -0.096606
C43   C     C_R   0.768441 0.425912 0.487497 -0.101020
C44   C     C_R   0.231558 0.574088 0.512501 -0.101026
C45   C     C_R   0.893064 0.351392 0.418887 -0.114895
C46   C     C_R   0.106934 0.648610 0.581110 -0.114904
C47   C     C_R   0.803703 0.369740 0.436704 -0.203704
C48   C     C_R   0.196296 0.630261 0.563294 -0.203741
C49   C     C_R   0.823582 0.461968 0.521672 0.311269
C50   C     C_R   0.176418 0.538032 0.478326 0.311275
C51   C     C_R   0.907510 0.455993 0.493985 0.024069
C52   C     C_R   0.092489 0.544008 0.506012 0.024063
C53   C     C_R   0.944849 0.394955 0.446289 0.084065
C54   C     C_R   0.055150 0.605046 0.553707 0.084061
C55   C     C_R   0.955428 0.508075 0.511529 0.064195
C56   C     C_R   0.044571 0.491926 0.488468 0.064193
Cu1   Cu    Cu3+1 0.500030 0.426630 0.500000 1.064726
Cu2   Cu    Cu3+1 0.499970 0.573370 0.500000 1.064724
H1    H     H_    0.637283 0.423813 0.065405 0.206079
H2    H     H_    0.362719 0.576215 0.934597 0.206078
N1    N     N_R   0.500010 0.316380 0.499980 -0.261029
N2    N     N_R   0.499990 0.683620 0.500020 -0.261024
O1    O     O_R   0.500040 0.438010 0.599820 -0.544470
O2    O     O_R   0.499960 0.561990 0.400180 -0.544481
O3    O     O_R   0.500000 0.561930 0.599810 -0.554318
O4    O     O_R   0.500000 0.438070 0.400190 -0.554302
O5    O     O_R   0.629870 0.403290 0.500000 -0.599682
O6    O     O_R   0.370130 0.596710 0.500000 -0.599676
O7    O     O_R   0.629830 0.527210 0.500000 -0.517353
O8    O     O_R   0.370170 0.472790 0.500000 -0.517374
H3    H     H_    0.065606 0.326451 0.396095 0.190490
H4    H     H_    0.934392 0.673550 0.603901 0.190491
Cl1   Cl    Cl    0.676077 0.403401 0.922957 -0.436803
Cl2   Cl    Cl    0.323930 0.596642 0.077045 -0.436783
H5    H     H_    0.598763 0.285475 0.580093 0.200450
H6    H     H_    0.401235 0.714526 0.419908 0.200441
Cl3   Cl    Cl    0.632435 0.124476 0.608065 -0.419204
Cl4   Cl    Cl    0.367563 0.875525 0.391937 -0.419219
Cl5   Cl    Cl    0.375593 0.182002 0.399491 -0.410631
Cl6   Cl    Cl    0.624410 0.817997 0.600508 -0.410629
Cl7   Cl    Cl    0.373998 0.354082 0.395962 -0.458493
Cl8   Cl    Cl    0.626005 0.645917 0.604036 -0.458483
Cl9   Cl    Cl    0.369603 0.125044 0.597855 -0.372657
Cl10  Cl    Cl    0.630396 0.874956 0.402144 -0.372667
Cl11  Cl    Cl    0.361398 0.953313 0.590665 -0.391216
Cl12  Cl    Cl    0.638603 0.046687 0.409335 -0.391219
Cl13  Cl    Cl    0.200280 0.511284 0.391194 -0.496157
Cl14  Cl    Cl    0.799722 0.488715 0.608805 -0.496136
H7    H     H_    0.237956 0.659656 0.589225 0.182381
H8    H     H_    0.762042 0.340346 0.410772 0.182381
H9    H     H_    0.920446 0.305708 0.381375 0.178746
H10   H     H_    0.079552 0.694295 0.618620 0.178747
H11   H     H_    0.155338 0.400991 0.441853 0.225743
H12   H     H_    0.844661 0.599009 0.558144 0.225744
Cl15  Cl    Cl    0.609295 0.595706 0.297593 -0.502034
Cl16  Cl    Cl    0.390845 0.404174 0.702427 -0.501972
H13   H     H_    0.579420 0.574558 0.156229 0.214520
H14   H     H_    0.420689 0.425369 0.843784 0.214522
Cl17  Cl    Cl    0.406314 0.393272 0.139156 -0.426157
Cl18  Cl    Cl    0.593555 0.606843 0.860837 -0.426170
H15   H     H_    0.428843 0.418161 0.281541 0.252193
H16   H     H_    0.571045 0.581930 0.718455 0.252187

loop_
_geom_bond_atom_site_label_1
_geom_bond_atom_site_label_2
_ccdc_geom_bond_type
Cu2   N2    S    
C38   C40   A    
C55   C56   A    
C5    H3    S    
C31   C42   S    
C27   C29   A    
C23   O7    A    
C8    Cl16  S    
Cu1   O4    S    
C35   Cl7   S    
C24   O8    A    
C39   C41   A    
C6    H4    S    
C1    C18   S    
C5    C53   A    
C19   C21   A    
C6    C54   A    
C36   N2    A    
C46   H10   S    
C20   C25   A    
C23   O5    A    
C21   Cl1   S    
C23   C43   S    
C15   C17   A    
C40   Cl12  S    
C37   C42   A    
C10   H14   S    
C19   C26   A    
C27   N1    A    
C34   Cl6   S    
C2    O2    A    
C49   C51   A    
C1    O3    A    
C32   C41   S    
C31   C33   A    
Cu1   O8    S    
C20   H2    S    
C51   C55   A    
C40   C42   A    
C45   C53   A    
C2    C17   S    
C29   C31   A    
C49   Cl14  S    
Cu1   O5    S    
C27   H5    S    
C1    O1    A    
C52   C54   A    
Cu1   O1    S    
C45   C47   A    
Cu2   O2    S    
C46   C48   A    
C38   C41   A    
C35   N1    A    
C36   Cl8   S    
C33   Cl5   S    
C11   C26   S    
C7    C17   A    
C8    C18   A    
C51   C53   A    
C32   C34   A    
C13   Cl17  S    
C3    C56   A    
Cu2   O3    S    
C50   C52   A    
Cu2   O6    S    
C46   C54   A    
C3    H11   S    
C15   H15   S    
C14   Cl18  S    
C9    C11   A    
C10   C12   A    
C50   Cl13  S    
C4    H12   S    
C16   H16   S    
C12   C14   A    
C48   H7    S    
C13   C15   A    
C4    C55   A    
C24   C44   S    
C47   H8    S    
C14   C16   A    
C4    C6    A    
C39   Cl11  S    
C28   H6    S    
C3    C5    A    
C44   C50   A    
C7    C9    A    
C21   C25   A    
C9    H13   S    
C38   Cl10  S    
C8    C10   A    
C43   C49   A    
C20   C22   A    
C2    O4    A    
Cu2   O7    S    
Cu1   N1    S    
C7    Cl15  S    
C12   C25   S    
C19   H1    S    
C28   C30   A    
C37   C39   A    
C30   C32   A    
C11   C13   A    
Cu1   Cu2   S    
C33   C35   A    
C34   C36   A    
C45   H9    S    
C24   O6    A    
C30   Cl4   S    
C44   C48   A    
C29   Cl3   S    
C16   C18   A    
C22   C26   A    
C22   Cl2   S    
C37   Cl9   S    
C43   C47   A    
C52   C56   A    
C28   N2    A    
