data_mof_unit_36009.cif
_audit_creation_date              2012-12-10T19:01:23-0500
_audit_creation_method            fapswitch 2.2
_symmetry_space_group_name_H-M    P1
_symmetry_Int_Tables_number       1
_space_group_crystal_system       triclinic
_cell_length_a                    9.561875
_cell_length_b                    10.82988
_cell_length_c                    15.491209
_cell_angle_alpha                 89.756799
_cell_angle_beta                  74.432227
_cell_angle_gamma                 90.256312
_cell_volume                      1545.28454194

loop_
_atom_site_label
_atom_site_type_symbol
_atom_type_description
_atom_site_fract_x
_atom_site_fract_y
_atom_site_fract_z
_atom_type_partial_charge
C1    C     C_R   0.998710 0.262430 0.502185 0.798218
C2    C     C_R   0.671664 0.476976 0.906061 0.093003
C3    C     C_R   0.770317 0.434883 0.953473 0.168152
C4    C     C_R   0.521333 0.488310 0.951276 0.069162
C5    C     C_R   0.474037 0.467267 0.045552 0.068933
C6    C     C_R   0.576733 0.426077 0.090227 -0.227627
C7    C     C_R   0.721410 0.409354 0.044699 -0.240333
C8    C     C_R   0.416327 0.517000 0.904985 -0.221900
C9    C     C_R   0.271139 0.530997 0.949906 -0.240517
C10   C     C_R   0.224521 0.517599 0.042479 0.167261
C11   C     C_R   0.325168 0.486558 0.091602 0.092822
C12   C     C_R   0.918324 0.498133 0.672021 0.787889
C13   C     C_R   0.077568 0.535589 0.086551 -0.212576
C14   C     C_R   0.029037 0.525492 0.179325 -0.188319
C15   C     C_R   0.273494 0.479504 0.185483 -0.256983
C16   C     C_R   0.118098 0.064646 0.514819 0.121243
C17   C     C_R   0.993692 0.129449 0.512086 -0.097625
C18   C     C_R   0.862914 0.063825 0.522627 -0.220009
C19   C     C_R   0.863503 0.934993 0.522447 -0.168850
C20   C     C_R   0.994919 0.870956 0.511366 -0.108674
C21   C     C_R   0.118898 0.937547 0.514423 0.113491
C22   C     C_3   0.269852 0.933862 0.454305 -0.453225
C23   C     C_R   0.999370 0.737745 0.501809 0.814682
C24   C     C_3   0.268815 0.073888 0.455064 -0.444800
C25   C     C_R   0.607058 0.524800 0.423217 0.139894
C26   C     C_R   0.541883 0.463183 0.573417 -0.057745
C27   C     C_R   0.393330 0.463696 0.573530 -0.064228
C28   C     C_R   0.459971 0.523166 0.422927 0.156501
C29   C     C_3   0.476757 0.636674 0.366575 -0.522129
C30   C     C_3   0.634372 0.640699 0.368514 0.435370
C31   C     C_R   0.081808 0.499515 0.327876 0.798244
C32   C     C_R   0.872842 0.485288 0.769879 -0.042675
C33   C     C_R   0.127381 0.500232 0.229438 -0.047953
C34   C     C_R   0.917326 0.417585 0.908858 -0.217958
C35   C     C_R   0.968283 0.442113 0.817452 -0.198486
C36   C     C_R   0.727385 0.506084 0.814724 -0.252899
Cu1   Cu    Cu3+1 0.140670 0.499980 0.500000 0.945493
Cu2   Cu    Cu3+1 0.859330 0.500020 0.500000 0.978977
H1    H     H_    0.795808 0.376379 0.081463 0.148190
H2    H     H_    0.000358 0.559424 0.049327 0.144411
H3    H     H_    0.762681 0.886408 0.526647 0.220733
H4    H     H_    0.347762 0.894375 0.488704 0.221129
H5    H     H_    0.345623 0.114502 0.489930 0.201081
H6    H     H_    0.273070 0.115705 0.388679 0.199101
H7    H     H_    0.569919 0.434196 0.633416 0.131790
H8    H     H_    0.311926 0.435830 0.633528 0.127284
H9    H     H_    0.463436 0.617799 0.298799 0.146959
H10   H     H_    0.345363 0.460945 0.226577 0.144942
H11   H     H_    0.411160 0.714003 0.402147 0.231564
H12   H     H_    0.915541 0.540334 0.211730 0.140162
H13   H     H_    0.194867 0.553732 0.911692 0.149977
H14   H     H_    0.992372 0.382688 0.944406 0.142399
H15   H     H_    0.081105 0.424514 0.783755 0.144632
H16   H     H_    0.548839 0.402218 0.160297 0.137148
H17   H     H_    0.441487 0.526512 0.833263 0.137468
N1    N     N_R   0.648210 0.500930 0.499430 -0.157388
N2    N     N_R   0.352300 0.500890 0.499430 -0.163378
O1    O     O_R   0.118810 0.319640 0.500000 -0.580260
O2    O     O_R   0.881230 0.319680 0.499990 -0.588004
O3    O     O_R   0.055580 0.499970 0.629840 -0.592192
O4    O     O_R   0.818000 0.500010 0.629830 -0.595958
O5    O     O_R   0.118770 0.680320 0.500010 -0.581781
O6    O     O_R   0.881190 0.680360 0.500000 -0.520215
O7    O     O_R   0.182000 0.499990 0.370170 -0.584024
O8    O     O_R   0.944420 0.500030 0.370160 -0.587272
H18   H     H_    0.761949 0.111287 0.526475 0.170359
H19   H     H_    0.274529 0.894605 0.387358 0.197236
H20   H     H_    0.712258 0.629681 0.301740 0.055948
F1    F     F_    0.663615 0.740620 0.416374 -0.651517
H21   H     H_    0.660135 0.545638 0.776322 0.145656

loop_
_geom_bond_atom_site_label_1
_geom_bond_atom_site_label_2
_ccdc_geom_bond_type
C22   H4    S    
C2    C4    A    
C31   C33   S    
C16   C21   A    
C30   H20   S    
C18   H18   S    
C9    C10   A    
Cu1   O1    S    
C1    C17   S    
C19   C20   A    
C9    H13   S    
Cu2   O8    S    
C4    C8    A    
Cu2   O4    S    
Cu1   O7    S    
C14   C33   A    
C23   O6    A    
Cu1   O5    S    
C8    C9    A    
C16   C24   S    
C29   H11   S    
C13   C14   A    
C12   C32   S    
C25   C28   A    
C12   O4    A    
C26   C27   A    
C29   C30   S    
C1    O1    A    
C15   H10   S    
C6    H16   S    
C32   C36   A    
C8    H17   S    
C28   C29   S    
Cu1   Cu2   S    
C29   H9    S    
C5    C11   A    
C6    C7    A    
C3    C7    A    
C1    O2    A    
C5    C6    A    
C24   H6    S    
C25   N1    A    
Cu2   O6    S    
C22   H19   S    
Cu1   O3    S    
C35   H15   S    
C10   C11   A    
C14   H12   S    
Cu2   O2    S    
C12   O3    A    
C32   C35   A    
C30   F1    S    
Cu2   N1    S    
C20   C21   A    
C27   H8    S    
C17   C18   A    
C34   C35   A    
C27   N2    A    
C22   C24   S    
C2    C36   A    
C25   C30   S    
C31   O8    A    
C24   H5    S    
C7    H1    S    
C18   C19   A    
C13   H2    S    
C2    C3    A    
C34   H14   S    
C26   H7    S    
C3    C34   A    
C21   C22   S    
C20   C23   S    
C11   C15   A    
C31   O7    A    
C15   C33   A    
C23   O5    A    
Cu1   N2    S    
C28   N2    A    
C19   H3    S    
C16   C17   A    
C36   H21   S    
C4    C5    A    
C10   C13   A    
C26   N1    A    
