data_mof_unit_45954.cif
_audit_creation_date              2012-12-10T17:32:19-0500
_audit_creation_method            fapswitch 2.2
_symmetry_space_group_name_H-M    P1
_symmetry_Int_Tables_number       1
_space_group_crystal_system       triclinic
_cell_length_a                    12.478082
_cell_length_b                    13.337533
_cell_length_c                    14.993809
_cell_angle_alpha                 74.926749
_cell_angle_beta                  101.985564
_cell_angle_gamma                 117.344692
_cell_volume                      2128.92595008

loop_
_atom_site_label
_atom_site_type_symbol
_atom_type_description
_atom_site_fract_x
_atom_site_fract_y
_atom_site_fract_z
_atom_type_partial_charge
C1    C     C_R   0.855123 0.286899 0.511486 0.857667
C2    C     C_R   0.036458 0.616128 0.074148 -0.003769
C3    C     C_R   0.961316 0.309043 0.083456 -0.168478
C4    C     C_R   0.962914 0.309718 0.990995 -0.196705
C5    C     C_R   0.987610 0.411444 0.924952 0.130422
C6    C     C_R   0.011967 0.515030 0.951325 0.004222
C7    C     C_R   0.037317 0.618698 0.884188 0.067624
C8    C     C_R   0.063155 0.721065 0.914780 0.130905
C9    C     C_R   0.062658 0.718068 0.008256 -0.137013
C10   C     C_R   0.987226 0.410086 0.832779 -0.297663
C11   C     C_R   0.008652 0.509560 0.766109 -0.091148
C12   C     C_R   0.002375 0.502348 0.670356 0.793683
C13   C     C_R   0.035048 0.614594 0.790101 0.096925
C14   C     C_R   0.276495 0.029999 0.397211 0.183982
C15   C     C_R   0.229617 0.836078 0.482317 -0.074578
C16   C     C_R   0.802458 0.102256 0.616397 -0.199046
C17   C     C_R   0.712251 0.011558 0.666188 -0.157435
C18   C     C_R   0.591507 0.979844 0.631279 -0.165315
C19   C     C_R   0.558762 0.027860 0.540135 0.033875
C20   C     C_R   0.650042 0.123857 0.490772 -0.058331
C21   C     C_R   0.436717 0.986608 0.498846 -0.042359
C22   C     C_R   0.401959 0.061053 0.424585 0.011515
C23   C     C_R   0.145322 0.713271 0.490092 0.829832
C24   C     C_R   0.494271 0.157047 0.375325 0.103879
C25   C     C_R   0.615916 0.178560 0.402862 0.363220
C26   C     C_R   0.350994 0.870410 0.522578 0.118005
C27   C     C_R   0.191849 0.918174 0.427439 -0.245672
C28   C     C_R   0.771748 0.165033 0.532991 -0.062167
C29   C     C_R   0.351021 0.342338 0.664452 0.019144
C30   C     C_R   0.753977 0.646133 0.371887 0.242970
C31   C     C_R   0.672380 0.694787 0.359056 0.079643
C32   C     C_R   0.579842 0.649411 0.416365 0.121597
C33   C     C_R   0.561052 0.547368 0.482655 -0.083218
C34   C     C_R   0.001527 0.503207 0.328982 0.919156
C35   C     C_R   0.656835 0.509024 0.503990 0.191732
C36   C     C_R   0.452993 0.485412 0.531580 -0.037047
C37   C     C_R   0.452175 0.403405 0.612898 0.095915
C38   C     C_R   0.550034 0.377877 0.640487 -0.276004
C39   C     C_R   0.644132 0.419072 0.585922 0.168355
C40   C     C_R   0.342934 0.497578 0.501779 0.016886
C41   C     C_R   0.247477 0.361278 0.632307 0.328859
C42   C     C_R   0.035600 0.613857 0.168441 0.289318
C43   C     C_R   0.004801 0.508962 0.231734 -0.107173
C44   C     C_R   0.982284 0.408766 0.203647 -0.236720
C45   C     C_R   0.984803 0.410191 0.111070 0.120451
C46   C     C_R   0.010807 0.513938 0.045387 0.009886
Cu1   Cu    Cu3+1 0.098270 0.475420 0.521130 0.982319
Cu2   Cu    Cu3+1 0.901730 0.524580 0.478870 0.979834
H1    H     H_    0.894538 0.132513 0.649432 0.151934
H2    H     H_    0.524711 0.920258 0.677808 0.137260
H3    H     H_    0.735512 0.970860 0.734991 0.144563
H4    H     H_    0.549333 0.314165 0.702738 0.192311
H5    H     H_    0.962260 0.329369 0.254288 0.177233
H6    H     H_    0.329989 0.550442 0.436725 0.177222
H7    H     H_    0.941499 0.229281 0.133429 0.150088
H8    H     H_    0.944235 0.230338 0.970962 0.143268
H9    H     H_    0.967728 0.330708 0.812089 0.142104
H10   H     H_    0.082155 0.797533 0.028287 0.219642
H11   H     H_    0.097280 0.893484 0.401010 0.167982
N1    N     N_R   0.246280 0.438190 0.553160 -0.201994
N2    N     N_R   0.754320 0.561190 0.447410 -0.209358
O1    O     O_R   0.972510 0.318130 0.526570 -0.568814
O2    O     O_R   0.806530 0.359650 0.490890 -0.527520
O3    O     O_R   0.082980 0.479210 0.647590 -0.558526
O4    O     O_R   0.917000 0.520730 0.611900 -0.569480
O5    O     O_R   0.193470 0.640350 0.509110 -0.536797
O6    O     O_R   0.027490 0.681870 0.473430 -0.616314
O7    O     O_R   0.083000 0.479270 0.388100 -0.597030
O8    O     O_R   0.917020 0.520790 0.352410 -0.550786
Cl1   Cl    Cl    0.081948 0.742278 0.209594 -0.706781
N3    N     N_3   0.468047 0.226797 0.291260 -0.508562
H12   H     H_    0.410019 0.174476 0.244030 0.254854
H13   H     H_    0.429306 0.274326 0.306559 0.248176
N4    N     N_3   0.233314 0.109891 0.337929 -0.626417
H14   H     H_    0.183656 0.075748 0.279026 0.236161
H15   H     H_    0.174259 0.117560 0.373254 0.223329
N5    N     N_3   0.388445 0.782511 0.574324 -0.562116
H16   H     H_    0.377624 0.766138 0.644661 0.205676
H17   H     H_    0.474246 0.797909 0.561247 0.247339
Cl2   Cl    Cl    0.720865 0.264734 0.319917 -0.636370
N6    N     N_3   0.141756 0.299819 0.681330 -0.536291
H18   H     H_    0.112414 0.211822 0.685635 0.179342
H19   H     H_    0.164612 0.317200 0.748552 0.199403
N7    N     N_3   0.353597 0.260553 0.748130 -0.612630
H20   H     H_    0.284791 0.179552 0.739979 0.221975
H21   H     H_    0.338180 0.285143 0.803234 0.227251
N8    N     N_3   0.835407 0.688649 0.302507 -0.577334
H22   H     H_    0.924767 0.717507 0.331700 0.293704
H23   H     H_    0.811466 0.625296 0.263926 0.273699
N9    N     N_3   0.512590 0.713855 0.412263 -0.588509
H24   H     H_    0.470140 0.724498 0.344865 0.251728
H25   H     H_    0.573373 0.795214 0.426353 0.245529
N10   N     N_3   0.683547 0.792937 0.286913 -0.585174
H26   H     H_    0.770203 0.858928 0.296974 0.237774
H27   H     H_    0.674682 0.770667 0.222980 0.246389
N11   N     N_3   0.717341 0.358319 0.616983 -0.502392
H28   H     H_    0.748507 0.360918 0.687225 0.202346
H29   H     H_    0.662434 0.271661 0.613445 0.203305
N12   N     N_3   0.062240 0.716206 0.719155 -0.629526
H30   H     H_    0.134747 0.729000 0.686118 0.204899
H31   H     H_    0.986346 0.705134 0.670490 0.242728
N13   N     N_3   0.090164 0.830475 0.854185 -0.593666
H32   H     H_    0.168854 0.856224 0.823345 0.252800
H33   H     H_    0.016374 0.824948 0.804355 0.248391

loop_
_geom_bond_atom_site_label_1
_geom_bond_atom_site_label_2
_ccdc_geom_bond_type
C16   C28   A    
C21   C26   A    
N10   H26   S    
C40   N1    A    
C25   Cl2   S    
C19   C20   A    
Cu2   O8    S    
N8    H22   S    
C1    O1    A    
C17   H3    S    
Cu1   O1    S    
N6    H18   S    
N9    H24   S    
C7    C8    A    
N5    H16   S    
C2    C46   A    
N4    H15   S    
C5    C6    A    
C14   N4    S    
C23   O5    A    
C36   C37   A    
C19   C21   A    
N7    H21   S    
C18   C19   A    
C30   C31   A    
C12   O3    A    
C38   H4    S    
C20   C25   A    
C42   Cl1   S    
C33   C36   A    
C9    H10   S    
C23   O6    A    
Cu1   N1    S    
N9    H25   S    
C44   H5    S    
C32   N9    S    
Cu1   Cu2   S    
C8    C9    A    
N11   H29   S    
C1    C28   S    
C24   C25   A    
C14   C27   A    
Cu1   O5    S    
C15   C23   S    
N10   H27   S    
C21   C22   A    
C4    H8    S    
C3    H7    S    
C1    O2    A    
N6    H19   S    
N5    H17   S    
C26   N5    S    
N4    H14   S    
C36   C40   A    
C10   H9    S    
N7    H20   S    
C29   N7    S    
C34   O7    A    
Cu1   O3    S    
N3    H13   S    
C16   C17   A    
C15   C26   A    
C20   C28   A    
C31   N10   S    
C3    C45   A    
C13   N12   S    
C35   C39   A    
C43   C44   A    
C37   C38   A    
C15   C27   A    
N12   H30   S    
C41   N6    S    
N11   H28   S    
C17   C18   A    
C35   N2    A    
C16   H1    S    
N13   H33   S    
C34   O8    A    
N12   H31   S    
C40   H6    S    
N8    H23   S    
Cu2   O4    S    
C22   C24   A    
C42   C43   A    
C3    C4    A    
Cu1   O7    S    
C44   C45   A    
C18   H2    S    
C6    C46   A    
C29   C41   A    
C31   C32   A    
C34   C43   S    
C41   N1    A    
C4    C5    A    
Cu2   O2    S    
C11   C12   S    
C6    C7    A    
C12   O4    A    
C32   C33   A    
C14   C22   A    
C5    C10   A    
C27   H11   S    
C11   C13   A    
Cu2   N2    S    
C38   C39   A    
C2    C42   A    
C33   C35   A    
Cu2   O6    S    
N13   H32   S    
C39   N11   S    
C10   C11   A    
C45   C46   A    
C7    C13   A    
N3    H12   S    
C30   N2    A    
C29   C37   A    
C30   N8    S    
C2    C9    A    
C8    N13   S    
C24   N3    S    
