data_mof_unit_63190.cif
_audit_creation_date              2012-12-10T19:57:44-0500
_audit_creation_method            fapswitch 2.2
_symmetry_space_group_name_H-M    P1
_symmetry_Int_Tables_number       1
_space_group_crystal_system       triclinic
_cell_length_a                    39.073662
_cell_length_b                    32.087229
_cell_length_c                    21.77518
_cell_angle_alpha                 89.381143
_cell_angle_beta                  124.783425
_cell_angle_gamma                 90.133731
_cell_volume                      22421.1252073

loop_
_atom_site_label
_atom_site_type_symbol
_atom_type_description
_atom_site_fract_x
_atom_site_fract_y
_atom_site_fract_z
_atom_type_partial_charge
C1    C     C_R   0.419305 0.500080 0.419252 0.903490
C2    C     C_R   0.580695 0.499909 0.580750 0.904320
C3    C     C_R   0.919305 0.000080 0.419253 0.903501
C4    C     C_R   0.080695 0.999910 0.580749 0.904394
C5    C     C_R   0.271982 0.507102 0.330545 0.239215
C6    C     C_R   0.727940 0.505746 0.668971 0.239499
C7    C     C_R   0.771950 0.009943 0.329580 0.239514
C8    C     C_R   0.227940 0.010152 0.670260 0.240113
C9    C     C_R   0.293369 0.499919 0.296859 -0.008692
C10   C     C_R   0.706634 0.499088 0.703115 -0.008007
C11   C     C_R   0.793370 0.999984 0.296924 -0.009086
C12   C     C_R   0.206631 0.999202 0.702961 -0.007892
C13   C     C_R   0.271309 0.493174 0.219896 -0.282947
C14   C     C_R   0.728770 0.492952 0.780503 -0.282955
C15   C     C_R   0.771341 0.990447 0.220934 -0.282795
C16   C     C_R   0.228768 0.988751 0.778996 -0.283082
C17   C     C_1   0.162141 0.500151 0.164074 0.063131
C18   C     C_1   0.837858 0.499821 0.835907 0.063112
C19   C     C_1   0.662141 0.000133 0.164079 0.063211
C20   C     C_1   0.337858 0.999803 0.835888 0.063259
C21   C     C_1   0.337833 0.500131 0.339804 -0.013633
C22   C     C_1   0.662169 0.499407 0.660188 -0.013090
C23   C     C_1   0.837834 0.000157 0.339847 -0.013603
C24   C     C_1   0.162167 0.999453 0.660092 -0.012903
C25   C     C_1   0.375101 0.500204 0.375951 -0.151879
C26   C     C_1   0.624900 0.499678 0.624047 -0.151388
C27   C     C_1   0.875101 0.000209 0.375973 -0.151783
C28   C     C_1   0.124899 0.999687 0.624002 -0.151278
C29   C     C_1   0.124846 0.500071 0.126214 -0.145838
C30   C     C_1   0.875152 0.499921 0.873780 -0.145922
C31   C     C_1   0.624846 0.000062 0.126215 -0.145828
C32   C     C_1   0.375152 0.999911 0.873778 -0.145913
C33   C     C_R   0.500084 0.419304 0.000101 0.896545
C34   C     C_R   0.000084 0.919304 0.000101 0.896599
C35   C     C_R   0.499477 0.501749 0.880243 0.861000
C36   C     C_R   0.500523 0.498246 0.119757 0.858149
C37   C     C_R   0.999477 0.001749 0.880243 0.860991
C38   C     C_R   0.000523 0.998246 0.119757 0.858075
C39   C     C_R   0.499914 0.580711 0.999895 0.900564
C40   C     C_R   0.999915 0.080711 0.999894 0.900566
C41   C     C_R   0.502186 0.499625 0.621290 0.948789
C42   C     C_R   0.497814 0.500361 0.378709 0.950521
C43   C     C_R   0.002187 0.999625 0.621290 0.948849
C44   C     C_R   0.997813 0.000361 0.378709 0.950618
C45   C     C_R   0.000005 0.419410 0.000305 0.902971
C46   C     C_R   0.500005 0.919410 0.000305 0.903978
C47   C     C_R   0.080614 0.499989 0.081013 0.893405
C48   C     C_R   0.919385 0.500002 0.918986 0.893337
C49   C     C_R   0.580614 0.999988 0.081013 0.893570
C50   C     C_R   0.419385 1.000000 0.918986 0.893552
C51   C     C_R   0.999995 0.580668 0.999696 0.897763
C52   C     C_R   0.499995 0.080668 0.999696 0.897100
C53   C     C_R   0.979967 0.727896 0.025741 -0.252523
C54   C     C_R   0.020273 0.728531 0.972600 -0.253818
C55   C     C_R   0.479876 0.227897 0.025562 -0.253148
C56   C     C_R   0.520361 0.228530 0.972771 -0.254297
C57   C     C_R   0.000071 0.706614 0.999009 -0.034286
C58   C     C_R   0.500069 0.206614 0.999005 -0.033952
C59   C     C_R   0.520484 0.271959 0.973064 0.592148
C60   C     C_R   0.479945 0.271317 0.025931 0.596224
C61   C     C_R   0.020397 0.771960 0.972892 0.592457
C62   C     C_R   0.980037 0.771316 0.026109 0.596515
C63   C     C_R   0.500269 0.293322 0.999677 -0.158451
C64   C     C_R   0.000270 0.793322 0.999680 -0.158719
C65   C     C_1   0.000052 0.662208 0.998919 0.039892
C66   C     C_1   0.500051 0.162208 0.998917 0.039191
C67   C     C_1   0.500307 0.337773 0.999941 0.154352
C68   C     C_1   0.000307 0.837773 0.999943 0.154658
C69   C     C_1   0.500253 0.375071 0.000087 -0.116972
C70   C     C_1   0.000254 0.875071 0.000087 -0.116691
C71   C     C_2   0.528727 0.523625 0.812542 -0.389575
C72   C     C_2   0.471300 0.476319 0.187482 -0.380938
C73   C     C_2   0.028726 0.023626 0.812542 -0.389637
C74   C     C_2   0.971299 0.976319 0.187481 -0.381069
C75   C     C_1   0.000026 0.624907 0.999112 -0.169348
C76   C     C_1   0.500025 0.124908 0.999111 -0.170118
C77   C     C_R   0.972061 0.272272 0.934310 -0.167196
C78   C     C_R   0.027042 0.271266 0.067272 -0.167708
C79   C     C_R   0.473840 0.772286 0.933493 -0.166457
C80   C     C_R   0.525243 0.771252 0.068007 -0.167181
C81   C     C_R   0.999579 0.293400 0.000894 0.160557
C82   C     C_R   0.499570 0.793401 0.000854 0.160215
C83   C     C_R   0.525218 0.727821 0.067780 -0.168096
C84   C     C_R   0.473817 0.728859 0.933266 -0.164840
C85   C     C_R   0.027017 0.227835 0.067042 -0.168217
C86   C     C_R   0.972037 0.228845 0.934079 -0.165290
C87   C     C_R   0.499525 0.706710 0.000401 0.159155
C88   C     C_R   0.999534 0.206710 0.000435 0.159273
C89   C     C_1   0.999753 0.337830 0.000985 -0.053310
C90   C     C_1   0.499748 0.837830 0.000967 -0.052493
C91   C     C_1   0.499613 0.662283 0.000132 -0.052440
C92   C     C_1   0.999617 0.162283 0.000148 -0.052792
C93   C     C_1   0.499730 0.624971 0.999961 -0.155954
C94   C     C_1   0.999731 0.124971 0.999967 -0.156145
C95   C     C_1   0.999887 0.375145 0.000821 -0.158696
C96   C     C_1   0.499885 0.875145 0.000816 -0.157778
C97   C     C_2   0.496995 0.507397 0.812140 0.391760
C98   C     C_2   0.503011 0.492590 0.187864 0.387802
C99   C     C_2   0.996995 0.007397 0.812140 0.391981
C100  C     C_2   0.003011 0.992590 0.187863 0.388033
C101  C     C_2   0.525577 0.528072 0.742664 0.709053
C102  C     C_2   0.474456 0.471872 0.257368 0.717648
C103  C     C_2   0.025577 0.028073 0.742664 0.708895
C104  C     C_2   0.974455 0.971872 0.257367 0.717868
C105  C     C_2   0.507712 0.497589 0.692447 -0.371381
C106  C     C_2   0.492293 0.502372 0.307556 -0.382201
C107  C     C_2   0.007714 0.997589 0.692448 -0.371115
C108  C     C_2   0.992292 0.002372 0.307554 -0.382215
C109  C     C_R   0.227955 0.493312 0.175858 0.663191
C110  C     C_R   0.772123 0.493227 0.824534 0.663389
C111  C     C_R   0.727986 0.990537 0.176875 0.663076
C112  C     C_R   0.272122 0.988952 0.823070 0.663296
C113  C     C_R   0.206569 0.500215 0.208884 -0.045645
C114  C     C_R   0.793430 0.499660 0.791075 -0.045418
C115  C     C_R   0.706569 0.000192 0.208902 -0.045697
C116  C     C_R   0.293430 0.999640 0.791016 -0.045293
C117  C     C_R   0.228368 0.507028 0.285717 -0.284204
C118  C     C_R   0.771553 0.505817 0.713802 -0.284176
C119  C     C_R   0.728337 0.009794 0.284758 -0.284046
C120  C     C_R   0.271552 0.010108 0.715096 -0.283894
H1    H     H_    0.556683 0.534538 0.863950 0.166464
H2    H     H_    0.443355 0.465378 0.136084 0.170510
H3    H     H_    0.056682 0.034540 0.863950 0.166380
H4    H     H_    0.943355 0.965378 0.136083 0.170548
H5    H     H_    0.964322 0.710915 0.046242 0.193302
H6    H     H_    0.035872 0.712043 0.951908 0.191700
H7    H     H_    0.464161 0.210919 0.045927 0.192958
H8    H     H_    0.536029 0.212041 0.952216 0.191431
H9    H     H_    0.453887 0.712593 0.880987 0.151627
H10   H     H_    0.545171 0.710747 0.119871 0.150000
H11   H     H_    0.950718 0.212567 0.882399 0.151356
H12   H     H_    0.048357 0.210772 0.118527 0.150031
H13   H     H_    0.950766 0.289334 0.882798 0.149516
H14   H     H_    0.048407 0.287545 0.118925 0.149086
H15   H     H_    0.453934 0.789358 0.881383 0.149986
H16   H     H_    0.545221 0.787520 0.120266 0.149379
H17   H     H_    0.499070 0.468477 0.706141 0.166633
H18   H     H_    0.500911 0.531489 0.293829 0.160444
H19   H     H_    0.999073 0.968477 0.706144 0.166756
H20   H     H_    0.000909 0.031489 0.293828 0.160346
H21   H     H_    0.287717 0.487854 0.193955 0.193053
H22   H     H_    0.712423 0.488050 0.806786 0.191522
H23   H     H_    0.787773 0.982992 0.195762 0.193579
H24   H     H_    0.212419 0.980548 0.804208 0.191237
H25   H     H_    0.211482 0.511938 0.310885 0.182166
H26   H     H_    0.788381 0.510360 0.688325 0.182111
H27   H     H_    0.711428 0.016832 0.309201 0.182157
H28   H     H_    0.288379 0.017943 0.690629 0.182084
O1    O     O_R   0.439010 0.534430 0.439020 -0.622327
O2    O     O_R   0.560990 0.534430 0.560980 -0.602966
O3    O     O_R   0.939010 0.034430 0.439020 -0.622730
O4    O     O_R   0.060990 0.034430 0.560980 -0.603547
O5    O     O_R   0.060990 0.500040 0.112010 -0.620540
O6    O     O_R   0.939010 0.500040 0.887990 -0.620627
O7    O     O_R   0.560990 0.000040 0.112010 -0.620350
O8    O     O_R   0.439010 0.000040 0.887990 -0.620358
O9    O     O_R   0.060980 0.499970 0.009870 -0.594947
O10   O     O_R   0.939020 0.499970 0.990130 -0.594867
O11   O     O_R   0.560980 0.999970 0.009870 -0.595290
O12   O     O_R   0.439020 0.999970 0.990130 -0.595363
O13   O     O_R   0.000010 0.561020 0.051000 -0.609803
O14   O     O_R   0.999990 0.561020 0.949000 -0.611206
O15   O     O_R   0.500010 0.061020 0.051000 -0.610186
O16   O     O_R   0.499990 0.061020 0.949000 -0.611480
O17   O     O_R   0.439010 0.465570 0.438980 -0.599434
O18   O     O_R   0.560990 0.465570 0.561020 -0.618315
O19   O     O_R   0.939010 0.965570 0.438980 -0.599073
O20   O     O_R   0.060990 0.965570 0.561020 -0.617766
O21   O     O_R   0.500010 0.534430 0.590460 -0.553071
O22   O     O_R   0.499990 0.534430 0.409540 -0.638447
O23   O     O_R   0.000010 0.034430 0.590460 -0.553208
O24   O     O_R   0.999990 0.034430 0.409540 -0.638652
O25   O     O_R   0.500010 0.465570 0.590420 -0.633466
O26   O     O_R   0.499990 0.465570 0.409580 -0.549520
O27   O     O_R   0.000010 0.965570 0.590420 -0.633282
O28   O     O_R   0.999990 0.965570 0.409580 -0.549300
O29   O     O_R   0.534430 0.439010 0.034350 -0.605409
O30   O     O_R   0.465570 0.439010 0.965650 -0.604890
O31   O     O_R   0.034430 0.939010 0.034350 -0.605315
O32   O     O_R   0.965570 0.939010 0.965650 -0.604817
O33   O     O_R   0.534420 0.500000 0.943920 -0.653112
O34   O     O_R   0.465580 0.500000 0.056080 -0.654968
O35   O     O_R   0.034420 0.000000 0.943920 -0.653154
O36   O     O_R   0.965580 0.000000 0.056080 -0.655057
O37   O     O_R   0.465560 0.500000 0.875080 -0.565625
O38   O     O_R   0.534440 0.500000 0.124920 -0.564862
O39   O     O_R   0.965560 0.000000 0.875080 -0.565500
O40   O     O_R   0.034440 0.000000 0.124920 -0.564651
O41   O     O_R   0.534430 0.560990 0.034430 -0.612435
O42   O     O_R   0.465570 0.560990 0.965570 -0.613544
O43   O     O_R   0.034430 0.060990 0.034430 -0.612542
O44   O     O_R   0.965570 0.060990 0.965570 -0.613684
O45   O     O_R   0.000000 0.439050 0.051090 -0.611751
O46   O     O_R   1.000000 0.439050 0.948910 -0.610239
O47   O     O_R   0.500000 0.939050 0.051090 -0.611414
O48   O     O_R   0.500000 0.939050 0.948910 -0.610047
Zn1   Zn    Zn3+2 0.500000 0.545980 0.500000 1.038965
Zn2   Zn    Zn3+2 1.000000 0.045980 0.500000 1.037996
Zn3   Zn    Zn3+2 0.500000 0.454020 0.500000 1.054875
Zn4   Zn    Zn3+2 1.000000 0.954020 0.500000 1.055890
Zn5   Zn    Zn3+2 0.545980 0.500000 0.045940 1.031249
Zn6   Zn    Zn3+2 0.454020 0.500000 0.954060 1.029824
Zn7   Zn    Zn3+2 0.045980 1.000000 0.045940 1.031542
Zn8   Zn    Zn3+2 0.954020 0.000000 0.954060 1.029952
Zn9   Zn    Zn3+2 0.000010 0.500050 0.068180 1.012583
Zn10  Zn    Zn3+2 0.999990 0.500050 0.931820 1.012534
Zn11  Zn    Zn3+2 0.500010 0.000050 0.068180 1.012310
Zn12  Zn    Zn3+2 0.499990 0.000050 0.931820 1.012417
F1    F     F_    0.459407 0.500169 0.746646 -0.652156
F2    F     F_    0.540593 0.499851 0.253349 -0.652541
F3    F     F_    0.959408 0.000167 0.746646 -0.651810
F4    F     F_    0.040592 0.999852 0.253349 -0.652021
F5    F     F_    0.542715 0.561891 0.731904 -0.634817
F6    F     F_    0.457345 0.438040 0.268160 -0.625185
F7    F     F_    0.042713 0.061893 0.731902 -0.635021
F8    F     F_    0.957344 0.938040 0.268159 -0.624970
F9    F     F_    0.206893 0.486693 0.101233 -0.640920
F10   F     F_    0.793261 0.487238 0.899584 -0.641462
F11   F     F_    0.706954 0.981205 0.103199 -0.640826
F12   F     F_    0.293260 0.978770 0.896807 -0.641779
N1    N     N_2   0.293607 0.513415 0.408997 -0.296061
H29   H     H_    0.323298 0.501085 0.441503 0.241497
C121  C     C_3   0.291279 0.555459 0.429696 -0.726578
H30   H     H_    0.307574 0.556996 0.491277 0.250813
H31   H     H_    0.258334 0.565033 0.403005 0.244168
H32   H     H_    0.306516 0.577425 0.412587 0.241748
N2    N     N_2   0.706241 0.511430 0.590124 -0.296097
H33   H     H_    0.676717 0.498959 0.558444 0.241384
C122  C     C_3   0.708001 0.553255 0.566652 -0.726860
H34   H     H_    0.691703 0.554295 0.504988 0.249877
H35   H     H_    0.740817 0.562905 0.592732 0.244537
H36   H     H_    0.692449 0.575456 0.582272 0.242432
N3    N     N_2   0.793545 0.019148 0.407100 -0.295592
H37   H     H_    0.823260 0.007010 0.440981 0.241682
C123  C     C_3   0.791123 0.062275 0.422985 -0.728052
H38   H     H_    0.807404 0.066123 0.484217 0.250114
H39   H     H_    0.758157 0.072119 0.395202 0.244321
H40   H     H_    0.806321 0.082570 0.403529 0.241651
N4    N     N_2   0.206239 0.020304 0.592699 -0.295602
H41   H     H_    0.176684 0.008120 0.558868 0.241446
C124  C     C_3   0.208097 0.063780 0.576621 -0.728704
H42   H     H_    0.191790 0.068397 0.515377 0.248493
H43   H     H_    0.240935 0.073865 0.604413 0.244831
H44   H     H_    0.192608 0.083356 0.595934 0.242840
F13   F     F_    0.460284 0.291825 0.051778 -0.628916
F14   F     F_    0.540229 0.293096 0.947518 -0.636752
F15   F     F_    0.960462 0.791823 0.052127 -0.628499
F16   F     F_    0.040053 0.793100 0.947175 -0.636374

loop_
_geom_bond_atom_site_label_1
_geom_bond_atom_site_label_2
_ccdc_geom_bond_type
C2    O2    A    
C14   C110  A    
C74   H4    S    
C3    C27   S    
C7    N3    S    
C89   C95   T    
O36   Zn8   S    
C87   C91   S    
O32   Zn8   S    
O25   Zn3   S    
C17   C29   T    
C5    N1    S    
C121  H30   S    
C78   C81   A    
C84   C87   A    
C37   C99   S    
C19   C31   T    
C18   C114  S    
C14   H22   S    
O28   Zn4   S    
C121  H32   S    
C3    O19   A    
O11   Zn12  S    
C99   F3    S    
C10   C22   S    
C61   F16   S    
C7    C11   A    
C71   C97   D    
C16   C112  A    
O26   Zn3   S    
N1    H29   S    
C97   F1    S    
C29   C47   S    
C60   C63   A    
C64   C68   S    
C30   C48   S    
C16   H24   S    
N4    H41   S    
C51   C75   S    
C122  H36   S    
O7    Zn11  S    
C41   O21   A    
O17   Zn3   S    
C85   H12   S    
C20   C32   T    
C79   C84   A    
C39   O41   A    
C86   C88   A    
C86   H11   S    
C106  H18   S    
C112  C116  A    
O5    Zn9   S    
C119  H27   S    
C37   O35   A    
C84   H9    S    
C38   O36   A    
C51   O14   A    
C117  H25   S    
C124  H42   S    
C11   C23   S    
C9    C13   A    
O18   Zn3   S    
C39   C93   S    
C62   C64   A    
C42   O22   A    
C72   C102  S    
C34   O32   A    
C102  F6    S    
C103  C107  D    
C12   C16   A    
C101  F5    S    
C73   H3    S    
C13   C109  A    
O19   Zn4   S    
O24   Zn2   S    
C18   C30   T    
C13   H21   S    
C8    C12   A    
C24   C28   T    
N3    H37   S    
C2    O18   A    
O2    Zn1   S    
C36   O38   A    
C111  F11   S    
C109  C113  A    
C35   O33   A    
C53   H5    S    
C81   C89   S    
C71   C101  S    
C60   F13   S    
C55   C60   A    
O14   Zn10  S    
C1    C25   S    
C123  H39   S    
O3    Zn2   S    
O13   Zn9   S    
C34   O31   A    
C77   H13   S    
C31   C49   S    
C80   C83   A    
O46   Zn10  S    
C4    C28   S    
C58   C66   S    
O21   Zn1   S    
C23   C27   T    
C44   C108  S    
C101  C105  D    
C4    O4    A    
C63   C67   S    
O45   Zn9   S    
C4    O20   A    
C17   C113  S    
C7    C119  A    
C46   O47   A    
C104  F8    S    
C83   H10   S    
N4    C124  S    
C21   C25   T    
C42   O26   A    
C50   O8    A    
C20   C116  S    
C39   O42   A    
C53   C57   A    
C34   C70   S    
O42   Zn6   S    
C118  H26   S    
C74   C100  D    
C47   O5    A    
C40   C94   S    
C50   O12   A    
C43   C107  S    
C33   O29   A    
O39   Zn8   S    
C100  F4    S    
C116  C120  A    
O38   Zn5   S    
C5    C117  A    
C124  H43   S    
C45   O45   A    
O37   Zn6   S    
O48   Zn12  S    
C61   C64   A    
C44   O24   A    
C5    C9    A    
C122  H34   S    
C72   C98   D    
C15   C111  A    
C91   C93   T    
C54   H6    S    
C53   C62   A    
C108  H20   S    
N2    H33   S    
C40   O44   A    
C19   C115  S    
C35   O37   A    
C66   C76   T    
C6    N2    S    
C92   C94   T    
C112  F12   S    
O4    Zn2   S    
C2    C26   S    
C88   C92   S    
C1    O1    A    
N3    C123  S    
C32   C50   S    
O6    Zn10  S    
C41   C105  S    
C52   O16   A    
C15   H23   S    
C78   C85   A    
C38   C100  S    
N2    C122  S    
C46   C96   S    
C55   H7    S    
C77   C86   A    
C120  H28   S    
C11   C15   A    
O43   Zn7   S    
O16   Zn12  S    
C123  H40   S    
C113  C117  A    
C59   C63   A    
C55   C58   A    
C36   O34   A    
C41   O25   A    
C43   O27   A    
C45   C95   S    
C103  F7    S    
C110  C114  A    
C104  C108  D    
C8    C120  A    
C74   C104  S    
C47   O9    A    
C85   C88   A    
C45   O46   A    
C73   C99   D    
C48   O6    A    
C114  C118  A    
C43   O23   A    
O44   Zn8   S    
C72   H2    S    
C33   O30   A    
O34   Zn6   S    
O10   Zn9   S    
C3    O3    A    
C49   O7    A    
C1    O17   A    
O33   Zn5   S    
O9    Zn10  S    
C44   O28   A    
O31   Zn7   S    
C52   C76   S    
C82   C90   S    
C83   C87   A    
C6    C10   A    
C79   C82   A    
C111  C115  A    
C121  H31   S    
C90   C96   T    
C54   C61   A    
C33   C69   S    
O23   Zn2   S    
C79   H15   S    
C12   C24   S    
O40   Zn7   S    
C115  C119  A    
C80   H16   S    
C56   C59   A    
C124  H44   S    
O41   Zn5   S    
O30   Zn6   S    
O35   Zn7   S    
N1    C121  S    
O12   Zn11  S    
C78   H14   S    
C9    C21   S    
C62   F15   S    
C37   O39   A    
C40   O43   A    
C48   O10   A    
C38   O40   A    
O20   Zn4   S    
O15   Zn11  S    
C8    N4    S    
C80   C82   A    
C56   C58   A    
C51   O13   A    
C59   F14   S    
O29   Zn5   S    
C56   H8    S    
C107  H19   S    
O8    Zn12  S    
O27   Zn4   S    
C98   F2    S    
C109  F9    S    
C123  H38   S    
C110  F10   S    
C105  H17   S    
C42   C106  S    
C71   H1    S    
C73   C103  S    
O47   Zn11  S    
C122  H35   S    
C77   C81   A    
C22   C26   T    
C102  C106  D    
O1    Zn1   S    
C46   O48   A    
C68   C70   T    
C49   O11   A    
C36   C98   S    
C67   C69   T    
C52   O15   A    
C35   C97   S    
C6    C118  A    
O22   Zn1   S    
C65   C75   T    
C10   C14   A    
C57   C65   S    
C54   C57   A    
