data_mof_unit_33367.cif
_audit_creation_date              2012-12-10T20:31:52-0500
_audit_creation_method            fapswitch 2.2
_symmetry_space_group_name_H-M    P1
_symmetry_Int_Tables_number       1
_space_group_crystal_system       triclinic
_cell_length_a                    9.9616
_cell_length_b                    10.732928
_cell_length_c                    15.44964
_cell_angle_alpha                 91.660484
_cell_angle_beta                  68.828793
_cell_angle_gamma                 90.188415
_cell_volume                      1539.64913001

loop_
_atom_site_label
_atom_site_type_symbol
_atom_type_description
_atom_site_fract_x
_atom_site_fract_y
_atom_site_fract_z
_atom_type_partial_charge
C1    C     C_R   0.502597 0.739320 0.495261 0.927029
C2    C     C_R   0.732943 0.478494 0.029511 0.163751
C3    C     C_R   0.589494 0.446533 0.083922 0.118856
C4    C     C_R   0.409327 0.498256 0.675569 0.947919
C5    C     C_R   0.833233 0.503983 0.072212 -0.165418
C6    C     C_R   0.789279 0.507252 0.168884 -0.138849
C7    C     C_R   0.547882 0.452426 0.180147 -0.256977
C8    C     C_R   0.381723 0.935577 0.493322 0.207451
C9    C     C_R   0.505876 0.871449 0.488623 -0.145492
C10   C     C_R   0.630288 0.936169 0.483703 -0.142130
C11   C     C_R   0.627644 0.064169 0.490150 -0.193372
C12   C     C_R   0.415416 0.449123 0.909339 -0.056807
C13   C     C_R   0.502404 0.128267 0.496252 -0.113553
C14   C     C_R   0.380493 0.063894 0.496991 0.141917
C15   C     C_3   0.308872 0.073119 0.427622 -0.477324
C16   C     C_R   0.500932 0.260457 0.498294 0.867494
C17   C     C_3   0.312338 0.932748 0.421701 -0.467361
C18   C     C_R   0.886961 0.528801 0.578997 -0.050555
C19   C     C_R   0.969117 0.450475 0.426627 0.438870
C20   C     C_R   0.111701 0.449397 0.427013 0.448597
C21   C     C_R   0.027532 0.525598 0.579392 -0.102568
C22   C     C_3   0.004088 0.634379 0.645229 0.251267
C23   C     C_R   0.287454 0.381544 0.952585 0.071399
C24   C     C_3   0.851962 0.641753 0.643165 0.233656
C25   C     C_R   0.590001 0.497375 0.324300 0.847737
C26   C     C_R   0.351710 0.475283 0.774950 -0.110558
C27   C     C_R   0.644775 0.485594 0.222975 -0.075443
C28   C     C_R   0.193713 0.359269 0.904179 -0.143905
C29   C     C_R   0.230292 0.400060 0.813566 -0.292288
C30   C     C_R   0.430842 0.512826 0.828626 0.305315
C31   C     C_R   0.523477 0.452058 0.947996 0.101341
C32   C     C_R   0.488418 0.419823 0.041034 0.010983
C33   C     C_R   0.355115 0.360982 0.087195 -0.309218
C34   C     C_R   0.256809 0.337692 0.042358 0.453160
C35   C     C_R   0.668138 0.477280 0.893772 -0.125475
C36   C     C_R   0.772487 0.487762 0.933728 -0.238639
Cl1   Cl    Cl    0.814428 0.779881 0.595055 -0.562985
Cl2   Cl    Cl    0.506233 0.663382 0.812431 -0.592320
H1    H     H_    0.943907 0.525737 0.031104 0.159554
H2    H     H_    0.771319 0.622120 0.711170 0.138715
H3    H     H_    0.866569 0.530844 0.201104 0.193771
H4    H     H_    0.882522 0.508111 0.890282 0.145362
H5    H     H_    0.096751 0.305134 0.933966 0.204912
H6    H     H_    0.165027 0.371879 0.773595 0.177144
H7    H     H_    0.329497 0.325152 0.155838 0.184148
H8    H     H_    0.701968 0.483560 0.819496 0.143958
H9    H     H_    0.123933 0.252246 0.148630 0.364319
H10   H     H_    0.850000 0.354894 0.377027 0.361657
H11   H     H_    0.278117 0.344374 0.381863 0.354732
H12   H     H_    0.730348 0.888555 0.472867 0.224551
H13   H     H_    0.104491 0.742217 0.542011 0.360152
H14   H     H_    0.724959 0.112372 0.487018 0.184386
H15   H     H_    0.198244 0.112820 0.459084 0.223636
H16   H     H_    0.378139 0.116612 0.362167 0.204450
H17   H     H_    0.202796 0.892921 0.446668 0.224448
H18   H     H_    0.384780 0.894250 0.353137 0.202443
H19   H     H_    0.007169 0.608114 0.713568 0.107877
H20   H     H_    0.437050 0.439204 0.222842 0.214529
N1    N     N_R   0.856900 0.500860 0.500610 -0.154906
N2    N     N_R   0.142540 0.500820 0.500610 -0.170185
O1    O     O_R   0.385310 0.683210 0.499990 -0.587040
O2    O     O_3   0.946279 0.392814 0.352666 -0.736610
O3    O     O_3   0.214276 0.385951 0.355288 -0.766654
O4    O     O_3   0.091576 0.737455 0.608470 -0.669065
O5    O     O_R   0.614650 0.683240 0.500000 -0.562648
O6    O     O_R   0.319830 0.499970 0.632240 -0.604711
O7    O     O_R   0.549170 0.500000 0.632250 -0.581769
O8    O     O_R   0.385350 0.316760 0.500000 -0.642331
O9    O     O_R   0.614690 0.316790 0.500010 -0.650752
O10   O     O_R   0.450830 0.500000 0.367750 -0.614833
O11   O     O_R   0.680170 0.500030 0.367760 -0.617698
O12   O     O_3   0.129881 0.274750 0.085556 -0.761828
Zn1   Zn    Zn3+2 0.346870 0.499980 0.499990 0.970947
Zn2   Zn    Zn3+2 0.653130 0.500020 0.500010 0.999832

loop_
_geom_bond_atom_site_label_1
_geom_bond_atom_site_label_2
_ccdc_geom_bond_type
H11   O3    S    
C18   C21   A    
C33   H7    S    
C36   H4    S    
C35   C36   A    
C22   H19   S    
C12   C23   A    
C18   C24   S    
C15   H15   S    
C28   C29   A    
C3    C7    A    
C5    C6    A    
C19   O2    S    
N2    Zn1   S    
C7    C27   A    
C30   Cl2   S    
C11   H14   S    
C31   C32   A    
C8    C9    A    
C6    H3    S    
C1    O5    A    
C25   O11   A    
C20   N2    A    
C9    C10   A    
C17   H17   S    
C7    H20   S    
C13   C14   A    
C33   C34   A    
H13   O4    S    
C15   H16   S    
C1    C9    S    
C21   N2    A    
C19   N1    A    
O8    Zn1   S    
O6    Zn1   S    
O5    Zn2   S    
C4    O7    A    
H10   O2    S    
C6    C27   A    
N1    Zn2   S    
C23   C34   A    
O10   Zn1   S    
C24   Cl1   S    
O9    Zn2   S    
O7    Zn2   S    
C23   C28   A    
C17   H18   S    
C16   O8    A    
C26   C30   A    
C5    H1    S    
C29   H6    S    
C31   C35   A    
C2    C5    A    
C10   H12   S    
C34   O12   S    
C2    C36   A    
C15   C17   S    
C8    C14   A    
C12   C30   A    
C16   O9    A    
C1    O1    A    
O11   Zn2   S    
C4    C26   S    
C25   C27   S    
C19   C20   A    
C28   H5    S    
C8    C17   S    
O1    Zn1   S    
C32   C33   A    
C20   O3    S    
C2    C3    A    
C12   C31   A    
C4    O6    A    
C11   C13   A    
C24   H2    S    
C22   C24   S    
C3    C32   A    
H9    O12   S    
C10   C11   A    
C22   O4    S    
C18   N1    A    
C26   C29   A    
C13   C16   S    
C14   C15   S    
C25   O10   A    
C21   C22   S    
C35   H8    S    
