data_mof_unit_15607.cif
_audit_creation_date              2013-03-05T15:50:07-0500
_audit_creation_method            fapswitch 2.2
_symmetry_space_group_name_H-M    P1
_symmetry_Int_Tables_number       1
_space_group_crystal_system       triclinic
_cell_length_a                    19.89105
_cell_length_b                    19.864299
_cell_length_c                    19.785651
_cell_angle_alpha                 110.449807
_cell_angle_beta                  107.137937
_cell_angle_gamma                 110.802747
_cell_volume                      6014.25044902

loop_
_atom_site_label
_atom_site_type_symbol
_atom_site_description
_atom_site_fract_x
_atom_site_fract_y
_atom_site_fract_z
_atom_type_partial_charge
C1    C     C_R   0.658783 0.929465 0.930485 -0.153492
C2    C     C_R   0.335703 0.071763 0.026096 -0.172071
H1    H     H_    0.635828 0.865832 0.884943 0.166425
H2    H     H_    0.352594 0.136591 0.051469 0.141686
N1    N     N_R   0.613530 0.956740 0.956480 -0.061714
N2    N     N_R   0.386470 0.043260 0.043520 -0.066252
C3    C     C_R   0.497687 0.069659 0.228039 -0.127910
C4    C     C_R   0.451993 0.929460 0.764470 -0.097160
H3    H     H_    0.512288 0.131907 0.267292 0.211273
H4    H     H_    0.410251 0.865157 0.716044 0.177964
N3    N     N_R   0.499750 0.043260 0.156770 -0.090808
N4    N     N_R   0.500250 0.956740 0.843230 -0.058751
C5    C     C_R   0.735943 0.191743 0.166512 -0.098732
C6    C     C_R   0.274149 0.768012 0.843176 -0.084894
H5    H     H_    0.784964 0.198456 0.151670 0.168913
H6    H     H_    0.236391 0.742996 0.867703 0.203779
N5    N     N_R   0.656790 0.157020 0.113500 -0.060523
N6    N     N_R   0.343210 0.842980 0.886500 -0.087235
C7    C     C_R   0.466565 0.797743 0.034967 0.547370
C8    C     C_R   0.578580 0.234010 0.009855 0.563946
N7    N     N_R   0.456490 0.842980 0.999750 -0.095843
N8    N     N_R   0.543510 0.157020 0.000250 -0.104845
C9    C     C_R   0.666977 0.197953 0.236882 0.340065
C10   C     C_R   0.343540 0.768108 0.774025 0.313720
N9    N     N_R   0.613500 0.157010 0.156770 -0.097084
N10   N     N_R   0.386500 0.842990 0.843230 -0.102386
C11   C     C_R   0.539651 0.802733 0.968205 -0.133420
C12   C     C_R   0.503692 0.230405 0.074489 -0.148429
H7    H     H_    0.579478 0.794611 0.943204 0.148175
H8    H     H_    0.484943 0.251476 0.120006 0.160894
N11   N     N_R   0.499770 0.842990 0.956480 -0.072010
N12   N     N_R   0.500230 0.157010 0.043520 -0.082511
C13   C     C_R   0.423936 0.931567 0.157075 0.409369
C14   C     C_R   0.524025 0.068456 0.832438 0.343907
N13   N     N_R   0.456470 0.956710 0.113500 -0.106812
N14   N     N_R   0.543530 0.043290 0.886500 -0.092711
C15   C     C_R   0.728221 0.068285 0.997814 0.306454
C16   C     C_R   0.264320 0.932846 0.956251 0.376582
N15   N     N_R   0.656800 0.043290 0.999750 -0.099619
N16   N     N_R   0.343200 0.956710 0.000250 -0.095786
C17   C     C_R   0.731475 0.998161 0.956750 -0.094429
C18   C     C_R   0.258989 0.003342 0.969689 -0.085336
C19   C     C_R   0.452518 0.001120 0.230584 -0.146774
C20   C     C_R   0.464875 0.998435 0.756726 -0.136309
C21   C     C_R   0.743418 0.216624 0.243955 -0.118000
C22   C     C_R   0.272029 0.721045 0.771917 -0.110651
C23   C     C_R   0.521977 0.776046 0.019530 -0.141561
C24   C     C_R   0.551768 0.280052 0.054485 -0.128792
Ni1   Ni    Ni4+2 0.500010 0.900760 0.900750 0.271691
Ni2   Ni    Ni4+2 0.499990 0.099240 0.099250 0.235859
Ni3   Ni    Ni4+2 0.599260 0.099260 0.000000 0.324732
Ni4   Ni    Ni4+2 0.400740 0.900740 0.000000 0.293377
C25   C     C_3   0.623131 0.594464 0.180254 0.509303
C26   C     C_3   0.572033 0.556410 0.024830 0.488475
C27   C     C_3   0.674334 0.646186 0.151387 -0.575255
C28   C     C_3   0.521127 0.506192 0.053609 -0.597507
H9    H     H_    0.735584 0.703962 0.190785 0.176520
H10   H     H_    0.459354 0.449024 0.014199 0.177961
C29   C     C_1   0.556802 0.736305 0.052465 -0.015787
C30   C     C_1   0.575532 0.365465 0.084658 -0.057465
C31   C     C_3   0.545359 0.588645 0.126335 0.470413
C32   C     C_3   0.649802 0.562644 0.078381 0.473324
C33   C     C_3   0.594808 0.638900 0.096420 -0.111137
C34   C     C_3   0.600116 0.512372 0.108126 -0.084551
C35   C     C_1   0.579588 0.697290 0.076870 0.108704
C36   C     C_1   0.591441 0.435020 0.102014 0.107950
C37   C     C_3   0.477337 0.037344 0.535152 -0.258922
C38   C     C_3   0.320696 0.964680 0.419486 -0.251307
C39   C     C_3   0.434492 0.959836 0.448524 -0.283162
C40   C     C_3   0.363859 0.042704 0.507688 -0.272674
H11   H     H_    0.462436 0.924749 0.423651 0.178472
H12   H     H_    0.336176 0.077672 0.533257 0.173504
H13   H     H_    0.541716 0.068232 0.582962 0.188526
H14   H     H_    0.256634 0.933878 0.371144 0.177050
C41   C     C_1   0.425726 0.003914 0.289888 0.121303
C42   C     C_1   0.433674 0.996788 0.681574 0.109142
C43   C     C_3   0.440302 0.079429 0.497569 0.426527
C44   C     C_3   0.358303 0.922837 0.457978 0.425821
C45   C     C_3   0.398399 0.003780 0.411781 -0.014121
C46   C     C_3   0.400147 0.998505 0.543726 -0.011736
C47   C     C_1   0.408484 0.004777 0.342855 0.124484
C48   C     C_1   0.413268 0.996873 0.618640 0.113771
C49   C     C_3   0.016492 0.445697 0.466166 0.418105
C50   C     C_3   0.032141 0.407081 0.581699 0.432389
C51   C     C_3   0.018305 0.495277 0.546295 -0.286135
C52   C     C_3   0.029377 0.356094 0.500253 -0.293430
H15   H     H_    0.014192 0.552692 0.564397 0.184989
H16   H     H_    0.032603 0.298218 0.481529 0.173740
H17   H     H_    0.904533 0.400163 0.546833 0.196205
H18   H     H_    0.143958 0.452595 0.500732 0.190732
C53   C     C_1   0.213758 0.635251 0.715202 0.099765
C54   C     C_1   0.818093 0.261324 0.317510 0.119554
C55   C     C_3   0.089894 0.440032 0.510955 -0.237615
C56   C     C_3   0.958465 0.412485 0.536395 -0.235348
C57   C     C_3   0.091255 0.488673 0.591971 -0.015579
C58   C     C_3   0.956923 0.363719 0.455197 -0.016427
C59   C     C_1   0.160821 0.565707 0.662586 0.136310
C60   C     C_1   0.881213 0.303446 0.379827 0.102436
C61   C     C_3   0.998211 0.959667 0.942009 0.489210
C62   C     C_3   0.960829 0.040937 0.869636 0.505425
C63   C     C_3   0.992918 0.037338 0.984814 -0.584840
C64   C     C_3   0.967160 0.962850 0.826632 -0.572573
H19   H     H_    0.001987 0.067003 0.048332 0.182968
H20   H     H_    0.958772 0.933219 0.763424 0.181434
C65   C     C_1   0.789735 0.995784 0.930152 0.067312
C66   C     C_1   0.186083 0.005246 0.940262 0.074841
C67   C     C_3   0.919305 0.920933 0.863611 0.470624
C68   C     C_3   0.040304 0.079538 0.948297 0.468201
C69   C     C_3   0.912642 0.997965 0.905002 -0.104625
C70   C     C_3   0.047092 0.002526 0.906945 -0.117863
C71   C     C_1   0.842583 0.995724 0.913527 0.162874
C72   C     C_1   0.123303 0.004903 0.920347 0.158662
O1    O     O_3   0.647312 0.607229 0.260313 -0.616314
C73   C     C_3   0.675339 0.690948 0.315878 0.262688
H21   H     H_    0.629967 0.709605 0.295629 0.126869
H22   H     H_    0.734586 0.733597 0.322913 0.107452
C74   C     C_3   0.688934 0.700816 0.399342 -0.822329
H23   H     H_    0.734934 0.683958 0.422220 0.266182
H24   H     H_    0.711578 0.766686 0.443878 0.208905
H25   H     H_    0.630459 0.659489 0.394352 0.259093
O2    O     O_3   0.547264 0.541839 0.944037 -0.628884
C75   C     C_3   0.519955 0.457907 0.889753 0.241128
H26   H     H_    0.460205 0.415505 0.882028 0.112592
H27   H     H_    0.565063 0.439508 0.911658 0.126187
C76   C     C_3   0.508111 0.446942 0.806322 -0.774648
H28   H     H_    0.567154 0.488073 0.812094 0.252806
H29   H     H_    0.486040 0.380918 0.762802 0.228040
H30   H     H_    0.462310 0.463346 0.781703 0.259398
O3    O     O_3   0.702812 0.543854 0.051908 -0.643697
C77   C     C_3   0.746373 0.606423 0.037773 0.265128
H31   H     H_    0.789583 0.666979 0.096569 0.110272
H32   H     H_    0.704292 0.614948 0.994607 0.131144
C78   C     C_3   0.796019 0.581475 0.999797 -0.867162
H33   H     H_    0.754922 0.520096 0.941756 0.262946
H34   H     H_    0.828249 0.629217 0.986106 0.217384
H35   H     H_    0.842314 0.577270 0.043264 0.264854
O4    O     O_3   0.493247 0.608365 0.153638 -0.648737
C79   C     C_3   0.447294 0.544991 0.165473 0.235963
H36   H     H_    0.486820 0.529927 0.203142 0.139606
H37   H     H_    0.400000 0.487412 0.105175 0.111552
C80   C     C_3   0.404265 0.574468 0.210536 -0.818493
H38   H     H_    0.361947 0.587441 0.173662 0.254687
H39   H     H_    0.368440 0.525269 0.220797 0.220178
H40   H     H_    0.450121 0.632340 0.270909 0.261602
N17   N     N_R   0.312703 0.835518 0.434785 0.243952
O5    O     O_R   0.280721 0.776842 0.359304 -0.344174
O6    O     O_R   0.303044 0.815642 0.488677 -0.367411
N18   N     N_R   0.486167 0.166770 0.520916 0.243168
O7    O     O_R   0.519439 0.225327 0.596750 -0.357435
O8    O     O_R   0.493562 0.186841 0.466513 -0.370354
N19   N     N_R   0.010571 0.470306 0.404238 0.244000
O9    O     O_R   0.065997 0.543498 0.424092 -0.332577
O10   O     O_R   0.951473 0.419546 0.329066 -0.379157
N20   N     N_R   0.041011 0.385708 0.645836 0.241192
O11   O     O_R   0.986521 0.313914 0.629701 -0.377368
O12   O     O_R   0.103290 0.437775 0.719149 -0.391431
O13   O     O_3   0.021688 0.915791 0.977492 -0.606304
C81   C     C_3   0.972854 0.892048 0.013456 0.248196
H41   H     H_    0.906356 0.858143 0.969477 0.118781
H42   H     H_    0.988298 0.947983 0.068807 0.104287
C82   C     C_3   0.989670 0.833847 0.039771 -0.791869
H43   H     H_    0.055323 0.866170 0.085114 0.273157
H44   H     H_    0.951649 0.814737 0.068340 0.189703
H45   H     H_    0.974311 0.777054 0.985518 0.263940
O14   O     O_3   0.936350 0.084379 0.834350 -0.609061
C83   C     C_3   0.983817 0.107305 0.796958 0.212080
H46   H     H_    0.967424 0.050953 0.741389 0.113321
H47   H     H_    0.050594 0.141117 0.840014 0.123931
C84   C     C_3   0.966331 0.165227 0.770647 -0.741230
H48   H     H_    0.982942 0.222592 0.825128 0.256335
H49   H     H_    0.002967 0.183324 0.740572 0.217055
H50   H     H_    0.900306 0.133106 0.726542 0.263173
O15   O     O_3   0.108369 0.161244 0.990372 -0.637810
C85   C     C_3   0.087750 0.219544 0.028504 0.298657
H51   H     H_    0.073829 0.210898 0.076386 0.122419
H52   H     H_    0.034302 0.213967 0.982886 0.148642
C86   C     C_3   0.160108 0.307486 0.069867 -0.861896
H53   H     H_    0.175539 0.318307 0.023615 0.252165
H54   H     H_    0.144477 0.354087 0.099718 0.234271
H55   H     H_    0.214223 0.315940 0.117300 0.259595
O16   O     O_3   0.851800 0.839038 0.822228 -0.631588
C87   C     C_3   0.871786 0.781383 0.781399 0.266313
H56   H     H_    0.930739 0.791636 0.823142 0.150020
H57   H     H_    0.875688 0.786005 0.728094 0.117584
C88   C     C_3   0.804915 0.693318 0.749683 -0.808860
H58   H     H_    0.745196 0.680142 0.706549 0.266030
H59   H     H_    0.819681 0.647217 0.716944 0.225537
H60   H     H_    0.800171 0.686729 0.801846 0.248095
O17   O     O_3   0.426835 0.776855 0.077709 -0.628335
C89   C     C_3   0.391642 0.690342 0.050224 0.228274
H61   H     H_    0.437306 0.679301 0.084951 0.161501
H62   H     H_    0.368321 0.651284 0.982969 0.096783
C90   C     C_3   0.319968 0.660761 0.067134 -0.658803
H63   H     H_    0.270343 0.666837 0.030949 0.285878
H64   H     H_    0.295146 0.593860 0.048811 0.177989
H65   H     H_    0.340406 0.697902 0.133602 0.266888
O18   O     O_3   0.648415 0.263545 0.000837 -0.583478
C91   C     C_3   0.679962 0.345372 0.013951 0.316409
H66   H     H_    0.710050 0.391274 0.080590 0.118206
H67   H     H_    0.631363 0.352473 0.977044 0.097545
C92   C     C_3   0.745846 0.364399 0.987757 -0.621646
H68   H     H_    0.718117 0.327412 0.919976 0.271045
H69   H     H_    0.777750 0.431644 0.007450 0.186289
H70   H     H_    0.791572 0.349906 0.016740 0.278682
N21   N     N_R   0.651863 0.237544 0.301682 0.226408
O19   O     O_R   0.695902 0.256414 0.375990 -0.379500
O20   O     O_R   0.603592 0.267196 0.289258 -0.399312
N22   N     N_R   0.379589 0.734496 0.728850 0.229651
O21   O     O_R   0.333855 0.665609 0.657872 -0.368832
O22   O     O_R   0.458762 0.771939 0.759306 -0.415983
N23   N     N_R   0.347991 0.855253 0.119378 0.258221
O23   O     O_R   0.318502 0.832959 0.163560 -0.389807
O24   O     O_R   0.305960 0.809227 0.039836 -0.377172
N24   N     N_R   0.575907 0.146360 0.842535 0.247274
O25   O     O_R   0.651642 0.168254 0.861106 -0.324943
O26   O     O_R   0.543716 0.182620 0.812199 -0.426613
N25   N     N_R   0.778171 0.149618 0.011851 0.235184
O27   O     O_R   0.850205 0.172350 0.016839 -0.398448
O28   O     O_R   0.752105 0.201867 0.020271 -0.341881
N26   N     N_R   0.195405 0.850060 0.912604 0.219822
O29   O     O_R   0.138823 0.822278 0.839843 -0.419936
O30   O     O_R   0.178086 0.812892 0.952813 -0.333129

loop_
_geom_bond_atom_site_label_1
_geom_bond_atom_site_label_2
_geom_bond_distance
_ccdc_geom_bond_type
N15   Ni3   1.857266 S    
C33   C35   1.442397 S    
O14   C83   1.409911 S    
C9    C21   1.380861 A    
C11   H7    1.079024 S    
C92   H69   1.107830 S    
C92   H68   1.109173 S    
C6    N6    1.341814 A    
C77   H32   1.113170 S    
C37   C43   1.530833 S    
C15   N25   1.434633 S    
N5    Ni3   1.849707 S    
N26   O30   1.299235 A    
C73   H21   1.113808 S    
N6    Ni4   1.849709 S    
C6    C22   1.370352 A    
C66   C72   1.190298 T    
O16   C87   1.410124 S    
C3    N3    1.340805 A    
N7    N11   1.381462 A    
C89   H61   1.106455 S    
N8    N12   1.381459 A    
C67   O16   1.410507 S    
C1    N1    1.338972 A    
C7    N7    1.347701 A    
C10   N10   1.342397 A    
C16   C18   1.380161 A    
C74   H24   1.110511 S    
C64   H20   1.109600 S    
C25   C34   1.537496 S    
C44   C46   1.525648 S    
C88   H59   1.110470 S    
C26   C33   1.539258 S    
O18   C91   1.409958 S    
C63   C69   1.555275 S    
C49   C55   1.534135 S    
C27   C32   1.553371 S    
C39   H11   1.110695 S    
C84   H48   1.110836 S    
H17   C56   1.110297 S    
C20   C42   1.415956 S    
C21   C54   1.413839 S    
C85   H51   1.112761 S    
C32   C34   1.540381 S    
C89   C90   1.520918 S    
N17   O6    1.300306 A    
C87   H56   1.113888 S    
C50   N20   1.455841 S    
N3    N13   1.384095 A    
C81   H42   1.112334 S    
O13   C81   1.410247 S    
C28   H10   1.110331 S    
N22   O21   1.300883 A    
C90   H64   1.110449 S    
C58   C60   1.439908 S    
C76   H30   1.110713 S    
N19   O9    1.300291 A    
C28   C34   1.555263 S    
C24   C30   1.419434 S    
C91   H66   1.111434 S    
C37   H13   1.110659 S    
C3    C19   1.367142 A    
N4    N14   1.384095 A    
N20   O12   1.300380 A    
C44   N17   1.457015 S    
C90   H65   1.110394 S    
C63   C68   1.541573 S    
C43   C45   1.525835 S    
C76   H28   1.110871 S    
C65   C71   1.190632 T    
C30   C36   1.192014 T    
C62   C69   1.538990 S    
C63   H19   1.110226 S    
C16   N16   1.350074 A    
C68   O15   1.411036 S    
C40   C43   1.542028 S    
C83   H47   1.113882 S    
C84   H49   1.110545 S    
C32   O3    1.412062 S    
N1    Ni1   1.855641 S    
C39   C44   1.530952 S    
C2    N2    1.340317 A    
C25   C31   1.535826 S    
N11   Ni1   1.848289 S    
N19   O10   1.300165 A    
N26   O29   1.300981 A    
C82   H44   1.110659 S    
C25   O1    1.410131 S    
N17   O5    1.300245 A    
C49   N19   1.458959 S    
C25   C27   1.558438 S    
C38   C44   1.542305 S    
C26   C28   1.537483 S    
C62   C68   1.537656 S    
C40   H12   1.109941 S    
C51   H15   1.110777 S    
C40   C46   1.544192 S    
C13   C19   1.377692 A    
C16   N26   1.427569 S    
C12   N12   1.336180 A    
N2    N16   1.384094 A    
C14   C20   1.380532 A    
N18   O7    1.300263 A    
C46   C48   1.441452 S    
C14   N24   1.424006 S    
N10   Ni1   1.855409 S    
C42   C48   1.191354 T    
C45   C47   1.441419 S    
N24   O25   1.300119 A    
C41   C47   1.191495 T    
C88   H60   1.110952 S    
C22   C53   1.414616 S    
C26   C32   1.528786 S    
C86   H54   1.110426 S    
N25   O27   1.300996 A    
O15   C85   1.409889 S    
C61   C70   1.540698 S    
C11   N11   1.339519 A    
C10   N22   1.435155 S    
C53   C59   1.190255 T    
C27   C33   1.555475 S    
C62   O14   1.410060 S    
C1    H1    1.081592 S    
C50   C57   1.525145 S    
C34   C36   1.440451 S    
C81   H41   1.113429 S    
C2    H2    1.079246 S    
N4    Ni1   1.848118 S    
N9    Ni2   1.855409 S    
C52   C55   1.565694 S    
C78   H35   1.110260 S    
C78   H33   1.110858 S    
C51   C56   1.551430 S    
N23   O23   1.300996 A    
C85   C86   1.521146 S    
C5    H5    1.076351 S    
C4    N4    1.342491 A    
C86   H55   1.110714 S    
N6    N10   1.381621 A    
C91   C92   1.521248 S    
C62   C64   1.557420 S    
O2    C75   1.410657 S    
C64   C67   1.551731 S    
C27   H9    1.109549 S    
C50   C56   1.538649 S    
N2    Ni2   1.855641 S    
C56   C58   1.543613 S    
C18   C66   1.414263 S    
C43   N18   1.457092 S    
N12   Ni2   1.848294 S    
N20   O11   1.300205 A    
C8    C24   1.400125 A    
N14   Ni3   1.849538 S    
C52   C58   1.544941 S    
C7    O17   1.384933 S    
N22   O22   1.300744 A    
C61   C63   1.537429 S    
C26   O2    1.411777 S    
C8    N8    1.350045 A    
C90   H63   1.109062 S    
C61   O13   1.412092 S    
C83   H46   1.112500 S    
C92   H70   1.110372 S    
C6    H6    1.079223 S    
C80   H40   1.110819 S    
C77   C78   1.519884 S    
C75   H27   1.113969 S    
C82   H45   1.110848 S    
H18   C55   1.110173 S    
C76   H29   1.110563 S    
O1    C73   1.409886 S    
C11   C23   1.374779 A    
C3    H3    1.075827 S    
N1    N15   1.384095 A    
N21   O19   1.300803 A    
C12   C24   1.367343 A    
C89   H62   1.116700 S    
C87   H57   1.112504 S    
N23   O24   1.299167 A    
C4    H4    1.077786 S    
C37   C46   1.544341 S    
C4    C20   1.373638 A    
N18   O8    1.300304 A    
C79   C80   1.520285 S    
C1    C17   1.372225 A    
C73   H22   1.112516 S    
C57   C59   1.439106 S    
C79   H37   1.112333 S    
N25   O28   1.298496 A    
C61   C67   1.528056 S    
O4    C79   1.410646 S    
C5    N5    1.343358 A    
C49   C51   1.527993 S    
C10   C22   1.375593 A    
C74   H25   1.110851 S    
C75   C76   1.520215 S    
C80   H39   1.110547 S    
C77   H31   1.112443 S    
O3    C77   1.412282 S    
N24   O26   1.300869 A    
N5    N9    1.381621 A    
C81   C82   1.520615 S    
C15   N15   1.345565 A    
N3    Ni2   1.848113 S    
N16   Ni4   1.857268 S    
C80   H38   1.109393 S    
C29   C35   1.192160 T    
C5    C21   1.377888 A    
C51   C57   1.544250 S    
C31   O4    1.410779 S    
C88   H58   1.110650 S    
C67   C69   1.536894 S    
C82   H43   1.110822 S    
C2    C18   1.372781 A    
C64   C70   1.555617 S    
C49   C58   1.527678 S    
C69   C71   1.439489 S    
C12   H8    1.082008 S    
C13   N13   1.345991 A    
C85   H52   1.112730 S    
C68   C70   1.537901 S    
C52   H16   1.109928 S    
C9    N9    1.340309 A    
C15   C17   1.381609 A    
O17   C89   1.416751 S    
C13   N23   1.433740 S    
C70   C72   1.440161 S    
C8    O18   1.394987 S    
C73   C74   1.520410 S    
C39   C45   1.544966 S    
C79   H36   1.113898 S    
C54   C60   1.190497 T    
C23   C29   1.417581 S    
C17   C65   1.415305 S    
C14   N14   1.345884 A    
C83   C84   1.520497 S    
C55   C57   1.541864 S    
C86   H53   1.110852 S    
C38   C45   1.544107 S    
C7    C23   1.392025 A    
N13   Ni4   1.849536 S    
C78   H34   1.110746 S    
C38   C40   1.570530 S    
C19   C41   1.417005 S    
C28   C31   1.539194 S    
C50   C52   1.547051 S    
C91   H67   1.113741 S    
C84   H50   1.110722 S    
C37   C39   1.548439 S    
C75   H26   1.112311 S    
C74   H23   1.110732 S    
N21   O20   1.301162 A    
C38   H14   1.109904 S    
C87   C88   1.520346 S    
N7    Ni4   1.857201 S    
C9    N21   1.429410 S    
N8    Ni3   1.857201 S    
C31   C33   1.540427 S    
