data_mof_unit_53853.cif
_audit_creation_date              2012-12-10T20:39:56-0500
_audit_creation_method            fapswitch 2.2
_symmetry_space_group_name_H-M    P1
_symmetry_Int_Tables_number       1
_space_group_crystal_system       triclinic
_cell_length_a                    23.303787
_cell_length_b                    10.683545
_cell_length_c                    9.835119
_cell_angle_alpha                 90.451406
_cell_angle_beta                  90.356006
_cell_angle_gamma                 90.235807
_cell_volume                      2448.47613898

loop_
_atom_site_label
_atom_site_type_symbol
_atom_type_description
_atom_site_fract_x
_atom_site_fract_y
_atom_site_fract_z
_atom_type_partial_charge
C1    C     C_R   0.498352 0.260021 0.499554 0.868536
C2    C     C_R   0.966535 0.350095 0.285563 0.151853
C3    C     C_R   0.026781 0.361714 0.276533 0.157610
C4    C     C_R   0.058521 0.415658 0.386235 -0.079996
C5    C     C_R   0.029523 0.461493 0.502532 -0.079484
C6    C     C_R   0.060351 0.520645 0.610699 -0.010232
C7    C     C_R   0.029896 0.571580 0.723045 -0.025046
C8    C     C_R   0.971582 0.545771 0.735732 -0.262297
C9    C     C_R   0.118858 0.422695 0.385603 0.502843
C10   C     C_R   0.120524 0.521644 0.604336 0.541617
C11   C     C_R   0.235651 0.594729 0.446806 0.257563
C12   C     C_R   0.389583 0.500875 0.499634 0.870658
C13   C     C_R   0.296181 0.604204 0.451726 -0.103972
C14   C     C_R   0.327604 0.500208 0.498232 -0.183135
C15   C     C_R   0.300424 0.390629 0.539497 -0.194815
C16   C     C_R   0.240972 0.380286 0.534728 -0.013099
C17   C     C_R   0.208791 0.482759 0.488130 0.167993
C18   C     C_R   0.754252 0.337028 0.494074 0.049636
C19   C     C_R   0.695535 0.359339 0.465395 -0.129704
C20   C     C_R   0.671878 0.476468 0.502757 -0.090606
C21   C     C_R   0.706555 0.573001 0.552279 -0.216232
C22   C     C_R   0.765194 0.557266 0.559126 -0.132899
C23   C     C_R   0.498319 0.739621 0.500552 0.928154
C24   C     C_R   0.789597 0.440438 0.531053 0.264353
C25   C     C_R   0.505790 0.064127 0.619274 -0.070947
C26   C     C_R   0.492259 0.128116 0.500202 -0.127831
C27   C     C_R   0.468242 0.062023 0.387825 0.213215
C28   C     C_R   0.467266 0.931850 0.391052 -0.267606
C29   C     C_R   0.490687 0.870340 0.503255 -0.122414
C30   C     C_R   0.505336 0.937276 0.619618 0.053670
C31   C     C_3   0.554090 0.928504 0.719911 0.394348
C32   C     C_3   0.552590 0.073249 0.726373 -0.050338
C33   C     C_R   0.463181 0.573882 0.071536 0.173985
C34   C     C_R   0.610485 0.497013 0.500342 0.841575
C35   C     C_R   0.539789 0.432690 0.072058 -0.114519
C36   C     C_R   0.539747 0.432628 0.927860 -0.139987
C37   C     C_R   0.463089 0.573821 0.928618 0.289750
C38   C     C_3   0.398896 0.567812 0.922872 -0.272706
C39   C     C_3   0.399276 0.569730 0.077604 -0.578718
C40   C     C_R   0.881862 0.469952 0.639804 0.542174
C41   C     C_R   0.877361 0.400772 0.408878 0.598574
C42   C     C_R   0.937704 0.397676 0.401141 -0.089359
C43   C     C_R   0.969523 0.448271 0.511222 -0.059951
C44   C     C_R   0.941156 0.486027 0.630756 0.012706
H1    H     H_    0.688358 0.662204 0.581373 0.153368
H2    H     H_    0.792001 0.636471 0.587350 0.163003
H3    H     H_    0.451193 0.879711 0.303684 0.176550
H4    H     H_    0.535704 0.113440 0.822932 0.141013
H5    H     H_    0.571102 0.377610 0.126609 0.162005
H6    H     H_    0.570993 0.377627 0.873143 0.156483
H7    H     H_    0.382295 0.478349 0.879072 0.169262
H8    H     H_    0.381582 0.656339 0.124525 0.219701
H9    H     H_    0.382890 0.481268 0.122133 0.234896
H10   H     H_    0.949016 0.581229 0.824067 0.182705
H11   H     H_    0.326116 0.312604 0.574392 0.189734
N1    N     N_R   0.851004 0.432345 0.528265 -0.333227
N2    N     N_R   0.147614 0.476952 0.491834 -0.359207
N3    N     N_R   0.499610 0.499140 0.142800 -0.101682
N4    N     N_R   0.499610 0.499180 0.857150 -0.121052
O1    O     O_R   0.500010 0.316790 0.614690 -0.634389
O2    O     O_2   0.844993 0.376323 0.297466 -0.509559
O3    O     O_2   0.149307 0.373734 0.281920 -0.526078
O4    O     O_2   0.152423 0.560649 0.711556 -0.525375
O5    O     O_R   0.500000 0.316760 0.385350 -0.594818
O6    O     O_R   0.416160 0.499980 0.614700 -0.607403
O7    O     O_R   0.416150 0.499940 0.385360 -0.614935
O8    O     O_R   0.500000 0.683240 0.614650 -0.564865
O9    O     O_R   0.499990 0.683210 0.385310 -0.635622
O10   O     O_R   0.583850 0.500060 0.614640 -0.613684
O11   O     O_R   0.583840 0.500020 0.385300 -0.614647
O12   O     O_2   0.854866 0.494834 0.758011 -0.547670
Zn1   Zn    Zn3+2 0.500000 0.500020 0.653130 0.980094
Zn2   Zn    Zn3+2 0.500000 0.499980 0.346870 0.959698
N5    N     N_2   0.935103 0.286787 0.180472 -0.253739
H12   H     H_    0.948644 0.302916 0.082681 0.235735
C45   C     C_3   0.923812 0.155933 0.206922 -0.648122
H13   H     H_    0.964595 0.102551 0.210196 0.203074
H14   H     H_    0.896104 0.116499 0.124800 0.246853
H15   H     H_    0.901121 0.144906 0.305128 0.276260
C46   C     C_2   0.658971 0.264198 0.394343 0.352308
H16   H     H_    0.613274 0.260279 0.412079 0.065237
O13   O     O_2   0.678935 0.194191 0.308275 -0.575109
N6    N     N_2   0.445921 0.124824 0.272029 -0.274091
H17   H     H_    0.404600 0.097227 0.247920 0.246583
C47   C     C_3   0.482924 0.121162 0.154427 -0.746074
H18   H     H_    0.485088 0.024447 0.112613 0.226212
H19   H     H_    0.526866 0.153929 0.181705 0.252862
H20   H     H_    0.465446 0.183570 0.074628 0.238462
N7    N     N_2   0.535491 0.868598 0.845338 -0.294358
H21   H     H_    0.493424 0.886796 0.870935 0.248275
C48   C     C_3   0.573478 0.878018 0.962265 -0.821546
H22   H     H_    0.552669 0.833824 0.051288 0.247476
H23   H     H_    0.582681 0.977490 0.987938 0.244341
H24   H     H_    0.614124 0.827417 0.944024 0.254678
N8    N     N_2   0.605269 0.869449 0.661210 -0.288440
H25   H     H_    0.635963 0.837003 0.727595 0.229616
C49   C     C_3   0.627924 0.906000 0.529737 -0.735776
H26   H     H_    0.669762 0.954649 0.543905 0.248844
H27   H     H_    0.598826 0.969013 0.473230 0.256440
H28   H     H_    0.634715 0.821072 0.466433 0.225747
N9    N     N_2   0.604686 0.135030 0.681321 -0.299123
H29   H     H_    0.597459 0.222667 0.642625 0.229082
C50   C     C_3   0.650591 0.138787 0.781038 -0.744645
H30   H     H_    0.637460 0.194211 0.871613 0.233642
H31   H     H_    0.689071 0.183363 0.735893 0.238100
H32   H     H_    0.662412 0.043017 0.813163 0.259874
N10   N     N_2   0.055392 0.318010 0.157542 -0.247699
H33   H     H_    0.041185 0.233033 0.119884 0.229626
C51   C     C_3   0.062609 0.411409 0.053169 -0.676624
H34   H     H_    0.020306 0.439971 0.011579 0.190588
H35   H     H_    0.088736 0.372186 0.969098 0.254191
H36   H     H_    0.085134 0.495216 0.094918 0.248849
C52   C     C_2   0.371054 0.681528 0.861976 0.459541
H37   H     H_    0.325859 0.698487 0.879998 0.099922
O14   O     O_2   0.398059 0.753763 0.790856 -0.580910
C53   C     C_2   0.054640 0.661123 0.823730 0.502062
H38   H     H_    0.039998 0.660020 0.928231 0.022356
O15   O     O_2   0.087668 0.743698 0.788853 -0.501454
N11   N     N_2   0.200662 0.699252 0.412831 -0.285852
H39   H     H_    0.214420 0.783917 0.452303 0.283634
C54   C     C_3   0.182717 0.705168 0.271854 -0.640054
H40   H     H_    0.155186 0.788535 0.256703 0.235831
H41   H     H_    0.157399 0.621141 0.242934 0.239125
H42   H     H_    0.220427 0.712130 0.203891 0.271152
C55   C     C_2   0.327479 0.720919 0.413613 0.408177
H43   H     H_    0.370206 0.738815 0.453681 0.076603
O16   O     O_2   0.307108 0.796773 0.335044 -0.584831
C56   C     C_2   0.212514 0.263468 0.580811 0.486472
H44   H     H_    0.166112 0.255396 0.580683 0.060822
O17   O     O_2   0.240608 0.174264 0.619812 -0.548940
C57   C     C_2   0.777021 0.206379 0.497212 0.444628
H45   H     H_    0.750286 0.127352 0.468500 0.112338
O18   O     O_2   0.825167 0.183762 0.539725 -0.587458

loop_
_geom_bond_atom_site_label_1
_geom_bond_atom_site_label_2
_ccdc_geom_bond_type
C23   O9    A    
C28   H3    S    
C33   N3    A    
C40   O12   S    
C32   H4    S    
C41   C42   A    
N8    H25   S    
C45   H15   S    
C41   O2    S    
C36   N4    A    
C11   N11   S    
C56   H44   S    
C49   H26   S    
C7    C8    A    
C39   H9    S    
C47   H18   S    
C26   C27   A    
C33   C39   S    
C55   H43   S    
N5    C45   S    
C35   N3    A    
C18   C24   A    
C23   C29   S    
C28   C29   A    
C37   C38   S    
C45   H14   S    
C18   C19   A    
C51   H35   S    
C30   C31   S    
O1    Zn1   S    
C15   C16   A    
C53   H38   S    
O8    Zn1   S    
C23   O8    A    
C54   H42   S    
C10   O4    S    
C16   C17   A    
C40   N1    A    
C35   H5    S    
N10   H33   S    
N7    C48   S    
C34   O11   A    
C2    N5    S    
N4    Zn1   S    
C20   C34   S    
C25   C32   S    
C47   H19   S    
C39   H8    S    
C5    C43   A    
N9    C50   S    
C21   C22   A    
N10   C51   S    
C18   C57   S    
C49   H27   S    
C21   H1    S    
N11   C54   S    
C38   C39   S    
N5    H12   S    
C9    O3    S    
N9    H29   S    
C10   N2    A    
C45   H13   S    
C46   O13   D    
C1    O1    A    
C8    H10   S    
C48   H22   S    
C38   C52   S    
C4    C5    A    
C38   H7    S    
C31   N7    S    
O9    Zn2   S    
O7    Zn2   S    
C12   O7    A    
C33   C37   A    
C35   C36   A    
C15   H11   S    
C7    C53   S    
O10   Zn1   S    
C43   C44   A    
C41   N1    A    
C29   C30   A    
C48   H23   S    
N6    H17   S    
O5    Zn2   S    
O11   Zn2   S    
C50   H31   S    
C16   C56   S    
C34   O10   A    
C54   H40   S    
C37   N4    A    
C22   H2    S    
C12   C14   S    
C1    C26   S    
C22   C24   A    
C51   H36   S    
C42   C43   A    
C3    C4    A    
N7    H21   S    
C1    O5    A    
C50   H30   S    
C49   H28   S    
C36   H6    S    
C52   H37   S    
C47   H20   S    
C25   C30   A    
C11   C17   A    
N6    C47   S    
C32   N9    S    
C31   C32   S    
C8    C44   A    
C46   H16   S    
C57   O18   D    
C56   O17   D    
C6    C10   A    
N11   H39   S    
N8    C49   S    
C6    C7    A    
C24   N1    S    
O6    Zn1   S    
C12   O6    A    
C3    N10   S    
C19   C20   A    
C27   N6    S    
C2    C3    A    
C25   C26   A    
C13   C55   S    
C51   H34   S    
C48   H24   S    
C11   C13   A    
C5    C6    A    
C2    C42   A    
C31   N8    S    
C53   O15   D    
C50   H32   S    
C9    N2    A    
C19   C46   S    
C54   H41   S    
C40   C44   A    
C20   C21   A    
C27   C28   A    
C55   O16   D    
C14   C15   A    
C4    C9    A    
C13   C14   A    
C57   H45   S    
N3    Zn2   S    
C17   N2    S    
C52   O14   D    
