data_mof_unit_32641.cif
_audit_creation_date              2013-03-05T15:45:01-0500
_audit_creation_method            fapswitch 2.2
_symmetry_space_group_name_H-M    P1
_symmetry_Int_Tables_number       1
_space_group_crystal_system       triclinic
_cell_length_a                    9.89498
_cell_length_b                    11.033309
_cell_length_c                    13.04241
_cell_angle_alpha                 89.899607
_cell_angle_beta                  75.166857
_cell_angle_gamma                 110.906732
_cell_volume                      1278.97169714

loop_
_atom_site_label
_atom_site_type_symbol
_atom_site_description
_atom_site_fract_x
_atom_site_fract_y
_atom_site_fract_z
_atom_type_partial_charge
O1    O     O_R   0.578710 0.332530 0.490040 -0.577787
O2    O     O_R   0.421290 0.667470 0.509960 -0.577787
O3    O     O_R   0.329810 0.295070 0.521560 -0.572956
O4    O     O_R   0.670190 0.704930 0.478440 -0.572956
C1    C     C_R   0.439759 0.254096 0.507757 0.859898
C2    C     C_R   0.560241 0.745904 0.492243 0.859898
O5    O     O_R   0.604230 0.515670 0.637800 -0.596237
O6    O     O_R   0.395770 0.484330 0.362200 -0.596237
O7    O     O_R   0.355330 0.478200 0.669330 -0.518372
O8    O     O_R   0.644670 0.521800 0.330670 -0.518371
C3    C     C_R   0.472538 0.497381 0.702917 0.845901
C4    C     C_R   0.527462 0.502619 0.297083 0.845902
Cu1   Cu    Cu3+1 0.647370 0.522180 0.481340 1.024779
Cu2   Cu    Cu3+1 0.352630 0.477820 0.518660 1.024779
C5    C     C_R   0.545632 0.503786 0.181793 -0.229859
C6    C     C_R   0.454368 0.496214 0.818207 -0.229859
C7    C     C_R   0.300837 0.466739 0.001826 0.269974
C8    C     C_R   0.699163 0.533261 0.998174 0.269973
C9    C     C_R   0.313126 0.471643 0.892625 0.244789
C10   C     C_R   0.686874 0.528357 0.107375 0.244790
C11   C     C_R   0.581389 0.519145 0.854161 -0.205542
C12   C     C_R   0.418610 0.480855 0.145839 -0.205542
C13   C     C_R   0.570686 0.513121 0.962775 -0.035167
C14   C     C_R   0.429314 0.486879 0.037225 -0.035167
H1    H     H_    0.310476 0.457411 0.203632 0.221424
H2    H     H_    0.689524 0.542588 0.796368 0.221424
H3    H     H_    0.366626 0.864433 0.516665 0.189501
H4    H     H_    0.633374 0.135567 0.483334 0.189501
C15   C     C_2   0.405946 0.114691 0.511981 -0.311231
C16   C     C_2   0.594054 0.885309 0.488019 -0.311231
C17   C     C_2   0.516815 0.069606 0.497959 -0.126639
C18   C     C_2   0.483185 0.930394 0.502041 -0.126639
H5    H     H_    0.710405 0.951590 0.473396 0.162300
H6    H     H_    0.289595 0.048410 0.526604 0.162300
H7    H     H_    0.834886 0.413922 0.570551 0.164914
H8    H     H_    0.165114 0.586078 0.429448 0.164914
N1    N     N_2   0.131210 0.444490 0.546730 -0.265526
N2    N     N_2   0.868790 0.555510 0.453270 -0.265526
C19   C     C_2   0.082965 0.511127 0.491276 -0.030713
C20   C     C_2   0.917034 0.488873 0.508724 -0.030713
H9    H     H_    0.949483 0.626406 0.395457 0.232926
H10   H     H_    0.050517 0.373594 0.604543 0.232926
N3    N     N_R   0.816634 0.539321 0.141452 0.182679
O9    O     O_R   0.917870 0.653636 0.141394 -0.272013
O10   O     O_R   0.825355 0.435925 0.182787 -0.256003
N4    N     N_R   0.183366 0.460679 0.858548 0.182679
O11   O     O_R   0.082130 0.346364 0.858606 -0.272013
O12   O     O_R   0.174645 0.564075 0.817213 -0.256003
N5    N     N_R   0.158170 0.445785 0.076085 0.149135
O13   O     O_R   0.046495 0.335297 0.085288 -0.255417
O14   O     O_R   0.141243 0.535915 0.136520 -0.294760
N6    N     N_R   0.841830 0.554215 0.923915 0.149135
O15   O     O_R   0.953505 0.664703 0.914712 -0.255417
O16   O     O_R   0.858757 0.464084 0.863480 -0.294760

loop_
_geom_bond_atom_site_label_1
_geom_bond_atom_site_label_2
_geom_bond_distance
_ccdc_geom_bond_type
N2    C20   1.310327 D    
O7    Cu2   1.972100 S    
O8    Cu1   1.972101 S    
C6    C11   1.392433 A    
N3    O10   1.300545 A    
C3    C6    1.467422 S    
C8    C10   1.397336 A    
C17   C18   1.448666 S    
C4    C5    1.467422 S    
O5    Cu1   1.970555 S    
O6    C4    1.305813 A    
N5    O14   1.300872 A    
H7    C20   1.084970 S    
C9    N4    1.429077 S    
C8    N6    1.431985 S    
N1    C19   1.310327 D    
Cu1   Cu2   2.689929 S    
Cu2   N1    2.020724 S    
C16   C18   1.330967 D    
O7    C3    1.291134 A    
Cu1   N2    2.020725 S    
O2    C2    1.296204 A    
O3    Cu2   1.946395 S    
O8    C4    1.291134 A    
C6    C9    1.415246 A    
O1    C1    1.296204 A    
C2    C16   1.450412 S    
C11   H2    1.081102 S    
N6    O16   1.300873 A    
O5    C3    1.305814 A    
C1    C15   1.450412 S    
C11   C13   1.392905 A    
N3    O9    1.300828 A    
C5    C10   1.415246 A    
O2    Cu2   1.948838 S    
C12   C14   1.392905 A    
C7    C14   1.406399 A    
O1    Cu1   1.948839 S    
C13   C14   1.413510 A    
C8    C13   1.406398 A    
C19   C20   1.525986 S    
N4    O12   1.300545 A    
O4    Cu1   1.946395 S    
C10   N3    1.429077 S    
N6    O15   1.300671 A    
N2    H9    1.030470 S    
O4    C2    1.292835 A    
N5    O13   1.300671 A    
C5    C12   1.392434 A    
C7    N5    1.431985 S    
N1    H10   1.030471 S    
N4    O11   1.300828 A    
O6    Cu2   1.970558 S    
C16   H5    1.087592 S    
C7    C9    1.397335 A    
H3    C18   1.088142 S    
C15   C17   1.330967 D    
C15   H6    1.087592 S    
H8    C19   1.084970 S    
H4    C17   1.088142 S    
O3    C1    1.292835 A    
C12   H1    1.081102 S    
