data_mof_unit_50891.cif
_audit_creation_date              2012-12-10T17:41:02-0500
_audit_creation_method            fapswitch 2.2
_symmetry_space_group_name_H-M    P1
_symmetry_Int_Tables_number       1
_space_group_crystal_system       triclinic
_cell_length_a                    14.83569
_cell_length_b                    15.322275
_cell_length_c                    9.930984
_cell_angle_alpha                 89.500751
_cell_angle_beta                  89.334791
_cell_angle_gamma                 89.393942
_cell_volume                      2257.1150034

loop_
_atom_site_label
_atom_site_type_symbol
_atom_type_description
_atom_site_fract_x
_atom_site_fract_y
_atom_site_fract_z
_atom_type_partial_charge
Br1   Br    Br    0.691787 0.000470 0.159926 -0.529549
Br2   Br    Br    0.191787 0.500468 0.159928 -0.529519
C1    C     C_R   0.384200 0.875933 0.501975 0.852979
C2    C     C_R   0.719082 0.218764 0.381591 -0.205447
C3    C     C_R   0.164001 0.231933 0.525242 -0.202981
C4    C     C_R   0.219078 0.718768 0.381590 -0.205451
C5    C     C_R   0.689328 0.817723 0.500550 -0.076593
C6    C     C_R   0.672994 0.198623 0.500781 -0.144539
C7    C     C_R   0.189326 0.317722 0.500547 -0.076583
C8    C     C_R   0.172991 0.698625 0.500781 -0.144543
C9    C     C_R   0.335192 0.000948 0.142343 -0.131334
C10   C     C_R   0.835192 0.500948 0.142343 -0.131335
C11   C     C_R   0.254108 0.001352 0.073379 -0.199590
C12   C     C_R   0.380957 0.120265 0.500086 0.839800
C13   C     C_R   0.754108 0.501353 0.073379 -0.199583
C14   C     C_R   0.254251 0.001577 0.933987 -0.177585
C15   C     C_R   0.754251 0.501578 0.933987 -0.177589
C16   C     C_R   0.335483 0.001096 0.862707 -0.124797
C17   C     C_R   0.835483 0.501096 0.862707 -0.124801
C18   C     C_R   0.418924 0.000421 0.929110 0.117390
C19   C     C_R   0.918925 0.500421 0.929110 0.117394
C20   C     C_R   0.418891 0.000385 0.073531 0.107409
C21   C     C_R   0.918891 0.500385 0.073530 0.107406
C22   C     C_R   0.578053 0.000103 0.069612 0.260501
C23   C     C_R   0.884201 0.375933 0.501975 0.852977
C24   C     C_R   0.078053 0.500103 0.069613 0.260498
C25   C     C_R   0.614271 0.124814 0.499726 0.861995
C26   C     C_R   0.619898 0.880673 0.500022 0.876414
C27   C     C_R   0.114269 0.624815 0.499726 0.861995
C28   C     C_R   0.119897 0.380672 0.500022 0.876415
C29   C     C_R   0.577806 0.000087 0.926258 -0.074265
C30   C     C_R   0.077807 0.500087 0.926258 -0.074268
C31   C     C_R   0.436472 0.298478 0.452950 -0.175400
C32   C     C_R   0.316002 0.791430 0.760655 -0.165176
C33   C     C_R   0.936467 0.798470 0.452845 -0.175408
C34   C     C_R   0.880957 0.620265 0.500086 0.839795
C35   C     C_R   0.816002 0.291431 0.760655 -0.165173
C36   C     C_R   0.461020 0.385384 0.433704 -0.143953
C37   C     C_R   0.263191 0.780811 0.876661 -0.129406
C38   C     C_R   0.961014 0.885375 0.433559 -0.143956
C39   C     C_R   0.763190 0.280812 0.876661 -0.129408
C40   C     C_R   0.895528 0.951130 0.437566 -0.108309
C41   C     C_R   0.673298 0.257825 0.865698 -0.142366
C42   C     C_R   0.395533 0.451138 0.437698 -0.108328
C43   C     C_R   0.173299 0.757824 0.865700 -0.142371
C44   C     C_R   0.805309 0.930037 0.459932 -0.106743
C45   C     C_R   0.228703 0.167555 0.525639 -0.215527
C46   C     C_R   0.639221 0.236733 0.740127 -0.154552
C47   C     C_R   0.305310 0.430041 0.460014 -0.106749
C48   C     C_R   0.139221 0.736733 0.740129 -0.154545
C49   C     C_R   0.779492 0.842109 0.478440 0.091752
C50   C     C_R   0.695418 0.238585 0.623659 0.102441
C51   C     C_R   0.279493 0.342111 0.478485 0.091757
C52   C     C_R   0.195417 0.738586 0.623660 0.102450
C53   C     C_R   0.345486 0.276108 0.476550 0.092902
C54   C     C_R   0.278961 0.779203 0.630970 0.095295
C55   C     C_R   0.845484 0.776105 0.476498 0.092896
C56   C     C_R   0.290369 0.774466 0.384410 -0.226685
C57   C     C_R   0.778962 0.279202 0.630970 0.095299
C58   C     C_R   0.317976 0.189502 0.500150 -0.068692
C59   C     C_R   0.320631 0.805625 0.507617 -0.125659
C60   C     C_R   0.817977 0.689503 0.500149 -0.068699
C61   C     C_R   0.820633 0.305624 0.507617 -0.125659
C62   C     C_1   0.661834 0.000368 0.852019 0.351643
C63   C     C_1   0.161834 0.500368 0.852020 0.351639
C64   C     C_R   0.728708 0.667561 0.525697 -0.215519
C65   C     C_R   0.790373 0.274463 0.384411 -0.226691
C66   C     C_R   0.664007 0.731939 0.525300 -0.202979
H1    H     H_    0.209280 0.100438 0.544413 0.130257
H2    H     H_    0.386154 0.806110 0.775461 0.172087
H3    H     H_    0.988905 0.749317 0.449362 0.122987
H4    H     H_    0.886154 0.306111 0.775462 0.172089
H5    H     H_    0.531033 0.401716 0.416184 0.137658
H6    H     H_    0.291582 0.792357 0.974797 0.146554
H7    H     H_    0.031024 0.901704 0.416000 0.137654
H8    H     H_    0.791580 0.292359 0.974797 0.146555
H9    H     H_    0.914627 0.018611 0.423341 0.142721
H10   H     H_    0.630820 0.253489 0.954831 0.145396
H11   H     H_    0.414632 0.518621 0.423502 0.142717
H12   H     H_    0.322282 0.792334 0.289531 0.176871
H13   H     H_    0.130822 0.753487 0.954833 0.145392
H14   H     H_    0.756328 0.982828 0.463242 0.153173
H15   H     H_    0.568878 0.219264 0.735189 0.162946
H16   H     H_    0.256328 0.482831 0.463313 0.153162
H17   H     H_    0.068878 0.719263 0.735192 0.162945
H18   H     H_    0.594069 0.715052 0.543562 0.136569
H19   H     H_    0.701025 0.190703 0.285988 0.202327
H20   H     H_    0.094060 0.215044 0.543463 0.136564
H21   H     H_    0.201020 0.690708 0.285987 0.202324
H22   H     H_    0.329385 0.001308 0.249213 0.203789
H23   H     H_    0.709288 0.600447 0.544514 0.130258
H24   H     H_    0.829385 0.501308 0.249213 0.203792
H25   H     H_    0.190755 0.001552 0.128634 0.151775
H26   H     H_    0.690755 0.501553 0.128633 0.151782
H27   H     H_    0.822287 0.292330 0.289532 0.176871
H28   H     H_    0.191045 0.001646 0.880547 0.154033
H29   H     H_    0.691045 0.501648 0.880547 0.154029
H30   H     H_    0.330221 0.000545 0.755919 0.204405
H31   H     H_    0.830221 0.500545 0.755919 0.204402
H32   H     H_    0.488911 0.249325 0.449475 0.122959
N1    N     N_R   0.498810 0.000000 0.142780 -0.141908
N2    N     N_R   0.998810 0.500000 0.142780 -0.141910
N3    N     N_R   0.498740 0.000000 0.857170 -0.164400
N4    N     N_R   0.998740 0.500000 0.857170 -0.164399
N5    N     N_1   0.729584 0.000664 0.793006 -0.195803
N6    N     N_1   0.229585 0.500664 0.793008 -0.195807
O1    O     O_R   0.408390 0.908380 0.614690 -0.655400
O2    O     O_R   0.591620 0.908390 0.614640 -0.621026
O3    O     O_R   0.091620 0.591610 0.614640 -0.627956
O4    O     O_R   0.091620 0.408390 0.614640 -0.621028
O5    O     O_R   0.591610 0.091610 0.385310 -0.582992
O6    O     O_R   0.591610 0.908390 0.385310 -0.565281
O7    O     O_R   0.091610 0.591610 0.385310 -0.582994
O8    O     O_R   0.091610 0.408390 0.385310 -0.565276
O9    O     O_R   0.408390 0.091620 0.614690 -0.637291
O10   O     O_R   0.908390 0.408380 0.614690 -0.655400
O11   O     O_R   0.908390 0.591620 0.614690 -0.637288
O12   O     O_R   0.408370 0.908380 0.385360 -0.640298
O13   O     O_R   0.408370 0.091620 0.385360 -0.631748
O14   O     O_R   0.908370 0.408380 0.385360 -0.640299
O15   O     O_R   0.908370 0.591620 0.385360 -0.631757
O16   O     O_R   0.591620 0.091610 0.614640 -0.627957
Zn1   Zn    Zn3+2 0.500010 0.000000 0.653130 0.927394
Zn2   Zn    Zn3+2 0.000010 0.500000 0.653130 0.927394
Zn3   Zn    Zn3+2 0.499980 0.000000 0.346870 0.971826
Zn4   Zn    Zn3+2 0.999980 0.500000 0.346870 0.971823

loop_
_geom_bond_atom_site_label_1
_geom_bond_atom_site_label_2
_ccdc_geom_bond_type
C42   C47   A    
C31   C53   A    
C64   C66   A    
C24   C30   A    
C66   H18   S    
C4    C56   A    
C9    H22   S    
O1    Zn1   S    
C2    C6    A    
N3    Zn1   S    
C13   H26   S    
C62   N5    T    
C2    H19   S    
C26   O6    A    
C41   H10   S    
C32   C54   A    
C3    C45   A    
C10   C21   A    
C3    C7    A    
C48   C52   A    
C20   N1    A    
C28   O4    A    
C47   H16   S    
C27   O3    A    
C50   C57   A    
O11   Zn2   S    
C23   C61   S    
O8    Zn4   S    
O14   Zn4   S    
C21   N2    A    
C1    C59   S    
C12   O9    A    
C22   N1    A    
C40   C44   A    
C37   H6    S    
C45   H1    S    
C48   H17   S    
O4    Zn2   S    
C5    C66   A    
C44   H14   S    
C3    H20   S    
O5    Zn3   S    
N1    Zn3   S    
C30   N4    A    
C49   C55   A    
O12   Zn3   S    
C41   C46   A    
C6    C50   A    
C56   H12   S    
C37   C43   A    
C56   C59   A    
C38   C40   A    
C45   C58   A    
C25   O5    A    
C53   C58   A    
C65   H27   S    
C39   C41   A    
C34   C60   S    
C25   O16   A    
C61   C65   A    
C51   C53   A    
C52   C54   A    
C14   H28   S    
O9    Zn1   S    
C60   C64   A    
C32   C37   A    
C55   C60   A    
C23   O10   A    
C18   N3    A    
C17   H31   S    
C32   H2    S    
O7    Zn4   S    
C1    O1    A    
C44   C49   A    
C5    C26   S    
C11   H25   S    
C29   N3    A    
C36   C42   A    
C1    O12   A    
C10   C13   A    
Br2   C24   S    
C34   O11   A    
O6    Zn3   S    
C35   C57   A    
C7    C28   S    
Br1   C22   S    
O13   Zn3   S    
C18   C20   A    
C19   N4    A    
C11   C14   A    
C7    C51   A    
O2    Zn1   S    
C23   O14   A    
C63   N6    T    
C28   O8    A    
C13   C15   A    
C27   O7    A    
O10   Zn2   S    
C17   C19   A    
C29   C62   S    
C10   H24   S    
C42   H11   S    
C43   H13   S    
N2    Zn4   S    
C4    C8    A    
C2    C65   A    
C46   H15   S    
O3    Zn2   S    
C64   H23   S    
N4    Zn2   S    
C4    H21   S    
C12   C58   S    
C9    C20   A    
C57   C61   A    
C31   C36   A    
C38   H7    S    
C33   C55   A    
C31   H32   S    
C19   C21   A    
C33   C38   A    
C22   C29   A    
C5    C49   A    
O15   Zn4   S    
C24   N2    A    
C39   H8    S    
C9    C11   A    
C8    C27   S    
C43   C48   A    
C26   O2    A    
C47   C51   A    
C15   C17   A    
C34   O15   A    
C16   C18   A    
C35   C39   A    
C8    C52   A    
C33   H3    S    
C46   C50   A    
C40   H9    S    
C14   C16   A    
C12   O13   A    
C35   H4    S    
C6    C25   S    
C54   C59   A    
C16   H30   S    
O16   Zn1   S    
C15   H29   S    
C30   C63   S    
C36   H5    S    
