data_mof_unit_43609.cif
_audit_creation_date              2012-12-11T14:36:08-0500
_audit_creation_method            fapswitch 2.2
_symmetry_space_group_name_H-M    P1
_symmetry_Int_Tables_number       1
_space_group_crystal_system       triclinic
_cell_length_a                    13.475578
_cell_length_b                    13.464951
_cell_length_c                    27.446211
_cell_angle_alpha                 90.682281
_cell_angle_beta                  90.349092
_cell_angle_gamma                 60.233645
_cell_volume                      4322.67004268

loop_
_atom_site_label
_atom_site_type_symbol
_atom_type_description
_atom_site_fract_x
_atom_site_fract_y
_atom_site_fract_z
_atom_type_partial_charge
C1    C     C_R   0.620618 0.101466 0.570030 0.545631
C2    C     C_1   0.632829 0.730248 0.616005 -0.008245
C3    C     C_3   0.720009 0.555483 0.767660 -0.093957
C4    C     C_3   0.681693 0.653495 0.805395 0.045085
C5    C     C_3   0.607403 0.628289 0.739197 -0.082703
C6    C     C_3   0.667256 0.680462 0.710249 0.038456
C7    C     C_3   0.569456 0.725865 0.777516 -0.105914
C8    C     C_3   0.628965 0.778669 0.747789 -0.108378
C9    C     C_1   0.689093 0.633379 0.857866 -0.045063
C10   C     C_1   0.652495 0.702094 0.657948 -0.048502
C11   C     C_3   0.112622 0.102670 0.738550 -0.135919
C12   C     C_R   0.600067 0.778940 0.568598 0.559806
C13   C     C_3   0.209111 0.058854 0.777644 -0.113584
C14   C     C_1   0.093468 0.202848 0.901417 -0.009889
C15   C     C_1   0.226721 0.139318 0.616864 -0.000923
C16   C     C_3   0.042805 0.215745 0.768146 -0.128450
C17   C     C_3   0.139777 0.171961 0.806365 0.006497
C18   C     C_3   0.101343 0.272083 0.739699 -0.136043
C19   C     C_3   0.170678 0.159124 0.710886 0.075315
C20   C     C_3   0.197494 0.228004 0.778490 0.033084
C21   C     C_3   0.264944 0.116551 0.749481 0.267809
C22   C     C_1   0.118585 0.184461 0.858955 -0.056870
C23   C     C_R   0.277282 0.121983 0.569511 0.550387
C24   C     C_1   0.196147 0.149759 0.658678 -0.014132
C25   C     C_3   0.710652 0.229183 0.738014 -0.103045
C26   C     C_3   0.607711 0.284917 0.772755 0.265276
C27   C     C_1   0.691850 0.208412 0.902856 -0.025784
C28   C     C_1   0.636863 0.133817 0.617945 -0.004673
C29   C     C_3   0.770268 0.127183 0.773624 -0.132718
C30   C     C_3   0.666177 0.185437 0.807957 0.083647
C31   C     C_3   0.713418 0.065560 0.747328 -0.106709
C32   C     C_3   0.653465 0.167897 0.712623 0.008206
C33   C     C_3   0.609477 0.124164 0.782327 -0.111922
C34   C     C_R   0.623548 0.102120 0.432513 0.529677
C35   C     C_3   0.548856 0.226213 0.746760 -0.072474
C36   C     C_1   0.676266 0.197160 0.860461 -0.036836
C37   C     C_1   0.645986 0.152901 0.660169 -0.046974
C38   C     C_R   0.682636 0.808518 0.349610 -0.130025
C39   C     C_R   0.698362 0.788389 0.299432 0.012025
C40   C     C_R   0.739308 0.720824 0.200533 0.014469
C41   C     C_R   0.817955 0.739768 0.227533 -0.135852
C42   C     C_R   0.797947 0.772405 0.276601 -0.133673
C43   C     C_R   0.764395 0.669046 0.153424 0.226908
C44   C     C_R   0.679780 0.654925 0.128439 0.033868
C45   C     C_R   0.569419 0.834197 0.425189 0.568763
C46   C     C_R   0.498180 0.817786 0.344141 -0.132219
C47   C     C_R   0.511796 0.800277 0.294038 0.016161
C48   C     C_R   0.613718 0.781684 0.271711 0.067057
C49   C     C_R   0.426063 0.798354 0.266063 -0.117602
C50   C     C_R   0.441056 0.777311 0.216313 -0.120613
C51   C     C_R   0.546380 0.746715 0.194782 -0.005794
C52   C     C_R   0.632834 0.751028 0.222113 0.031059
C53   C     C_R   0.569053 0.703385 0.147613 -0.182994
C54   C     C_R   0.584734 0.818125 0.372356 -0.009782
C55   C     C_R   0.190393 0.066333 0.362706 -0.134352
C56   C     C_R   0.275094 0.121890 0.431838 0.538342
C57   C     C_R   0.153082 0.084836 0.314236 0.019705
C58   C     C_R   0.115942 0.109516 0.213128 0.017600
C59   C     C_R   0.131680 0.010382 0.236276 -0.134408
C60   C     C_R   0.147740 0.999233 0.286736 -0.133159
C61   C     C_R   0.102352 0.121204 0.162542 -0.136397
C62   C     C_R   0.084713 0.222204 0.140190 -0.003503
C63   C     C_R   0.162160 0.259060 0.367735 -0.127831
C64   C     C_R   0.127294 0.277748 0.319403 0.012741
C65   C     C_R   0.128768 0.188132 0.291782 0.065443
C66   C     C_R   0.098871 0.381790 0.297370 -0.135458
C67   C     C_3   0.780029 0.607961 0.737782 -0.113292
C68   C     C_R   0.080395 0.393869 0.247347 -0.133575
C69   C     C_R   0.091498 0.301878 0.218980 0.009134
C70   C     C_R   0.111116 0.200104 0.241311 0.064892
C71   C     C_R   0.081566 0.310979 0.168678 -0.125393
C72   C     C_R   0.203417 0.150394 0.388106 -0.004605
C73   C     C_R   0.557092 0.238479 0.364110 -0.166087
C74   C     C_R   0.566499 0.257662 0.314942 -0.012791
C75   C     C_R   0.576372 0.279822 0.212847 -0.001434
C76   C     C_R   0.479982 0.363065 0.240069 -0.014276
C77   C     C_R   0.475880 0.348153 0.290573 -0.123579
C78   C     C_3   0.740916 0.705398 0.776135 0.015406
C79   C     C_R   0.585086 0.280686 0.160923 0.202853
C80   C     C_R   0.691458 0.211829 0.138745 0.044073
C81   C     C_R   0.755108 0.083891 0.365057 0.220675
C82   C     C_R   0.761590 0.095809 0.314911 0.065849
C83   C     C_R   0.666305 0.182403 0.289584 0.020697
C84   C     C_R   0.860680 0.019918 0.289376 -0.097292
C85   C     C_R   0.864635 0.027710 0.239367 -0.139059
C86   C     C_R   0.771380 0.113729 0.214352 0.001337
C87   C     C_R   0.671062 0.192591 0.238916 0.019813
C88   C     C_R   0.780804 0.124483 0.165210 -0.163776
C89   C     C_1   0.697127 0.608022 0.900148 -0.003818
C90   C     C_R   0.647933 0.146363 0.388259 -0.014043
C91   C     C_R   0.048838 0.236412 0.949713 0.545573
C92   C     C_R   0.711428 0.563224 0.948246 0.542009
C93   C     C_R   0.722030 0.225474 0.950979 0.544372
C94   C     C_R   0.044322 0.247428 0.089773 0.543431
C95   C     C_R   0.707580 0.576865 0.086051 0.563396
C96   C     C_R   0.719867 0.233558 0.089861 0.581623
Cr1   Cr    Cr6+3 0.417550 0.169090 0.500530 1.017319
Cr2   Cr    Cr6+3 0.669180 0.913420 0.499920 1.033943
Cr3   Cr    Cr6+3 0.413260 0.917540 0.499520 1.022989
Cr4   Cr    Cr6+3 0.909170 0.177380 0.020380 1.015988
Cr5   Cr    Cr6+3 0.912710 0.429210 0.018220 1.072422
Cr6   Cr    Cr6+3 0.657170 0.432570 0.019030 1.055849
H1    H     H_    0.055586 0.358538 0.723423 0.092347
H2    H     H_    0.950169 0.256560 0.776565 0.114024
H3    H     H_    0.750579 0.273802 0.719767 0.101226
H4    H     H_    0.457828 0.268566 0.735383 0.138462
H5    H     H_    0.569481 0.080396 0.801134 0.102404
H6    H     H_    0.757623 0.974056 0.736075 0.133262
H7    H     H_    0.861120 0.085836 0.785229 0.111201
H8    H     H_    0.865514 0.558470 0.720571 0.091926
H9    H     H_    0.748098 0.813292 0.370973 0.157181
H10   H     H_    0.895657 0.728812 0.211459 0.105892
H11   H     H_    0.861939 0.781834 0.297008 0.118824
H12   H     H_    0.502777 0.697094 0.127618 0.130593
H13   H     H_    0.372126 0.779686 0.195316 0.108724
H14   H     H_    0.349001 0.809766 0.282895 0.109344
H15   H     H_    0.420555 0.829961 0.361250 0.123302
H16   H     H_    0.101719 0.053660 0.140874 0.116055
H17   H     H_    0.218059 0.983762 0.379048 0.119251
H18   H     H_    0.133570 0.940787 0.215307 0.094820
H19   H     H_    0.593569 0.870177 0.738693 0.140824
H20   H     H_    0.160459 0.921819 0.303971 0.101575
H21   H     H_    0.065455 0.390211 0.152032 0.149514
H22   H     H_    0.059703 0.474191 0.230642 0.096553
H23   H     H_    0.095035 0.452188 0.318453 0.105485
H24   H     H_    0.167085 0.326177 0.387957 0.131354
H25   H     H_    0.476084 0.290410 0.382504 0.137805
H26   H     H_    0.402216 0.409157 0.311491 0.106687
H27   H     H_    0.862027 0.066455 0.148120 0.142471
H28   H     H_    0.483226 0.774546 0.794194 0.107851
H29   H     H_    0.941223 0.966564 0.220161 0.099640
H30   H     H_    0.934384 0.952363 0.307660 0.161782
H31   H     H_    0.552635 0.596283 0.723160 0.110396
H32   H     H_    0.757014 0.463502 0.776445 0.125783
H33   H     H_    0.254940 0.971765 0.793358 0.098317
H34   H     H_    0.076555 0.052192 0.721603 0.110549
O1    O     O_R   0.301710 0.195650 0.554160 -0.504450
O2    O     O_R   0.658900 0.818120 0.449760 -0.499255
O3    O     O_R   0.503220 0.801620 0.445520 -0.513509
O4    O     O_R   0.319370 0.022040 0.450020 -0.522048
O5    O     O_3   0.499990 0.000010 0.499990 -0.269001
O6    O     O_R   0.818720 0.150820 0.967160 -0.511716
O7    O     O_R   0.006410 0.181720 0.970200 -0.497658
O8    O     O_R   0.027890 0.334070 0.964920 -0.499986
O9    O     O_R   0.809600 0.521790 0.967960 -0.494095
O10   O     O_R   0.635520 0.542770 0.964420 -0.507686
O11   O     O_R   0.665950 0.325030 0.970100 -0.487413
O12   O     O_R   0.522390 0.158990 0.550460 -0.490972
O13   O     O_R   0.816620 0.158530 0.074540 -0.541918
O14   O     O_R   0.004460 0.188870 0.069750 -0.507465
O15   O     O_R   0.025800 0.341780 0.072300 -0.500119
O16   O     O_R   0.807650 0.528950 0.067500 -0.435926
O17   O     O_R   0.633420 0.550490 0.071810 -0.534339
O18   O     O_R   0.664000 0.332180 0.069640 -0.447010
O19   O     O_3   0.826350 0.346390 0.019210 -0.263649
O20   O     O_R   0.694390 0.003530 0.554040 -0.508535
O21   O     O_R   0.657700 0.819660 0.549320 -0.488652
O22   O     O_R   0.501930 0.803280 0.552920 -0.499760
O23   O     O_R   0.318170 0.023580 0.549580 -0.491819
O24   O     O_R   0.303010 0.193990 0.446760 -0.520123
O25   O     O_R   0.523600 0.157450 0.450900 -0.509326
O26   O     O_R   0.695690 0.001860 0.446640 -0.501545
C97   C     C_R   0.809894 0.754641 0.798019 0.032294
C98   C     C_R   0.921374 0.719077 0.781821 -0.093685
C99   C     C_R   0.983064 0.768004 0.801844 -0.115031
C100  C     C_R   0.934469 0.851666 0.838396 -0.100865
C101  C     C_R   0.823900 0.886864 0.854877 -0.104876
C102  C     C_R   0.761426 0.839229 0.834554 -0.101465
H35   H     H_    0.960410 0.654597 0.753507 0.093159
H36   H     H_    0.068462 0.741313 0.788930 0.098162
H37   H     H_    0.982332 0.889423 0.853849 0.113863
H38   H     H_    0.786339 0.951472 0.883230 0.119092
H39   H     H_    0.675263 0.868300 0.847246 0.096722
C103  C     C_R   0.249776 0.292509 0.802242 0.046650
C104  C     C_R   0.330542 0.240986 0.839621 -0.099435
C105  C     C_R   0.377929 0.300749 0.862769 -0.101269
C106  C     C_R   0.346146 0.411779 0.848392 -0.056438
C107  C     C_R   0.266782 0.463227 0.810862 -0.104125
C108  C     C_R   0.218203 0.404171 0.787944 -0.098065
H40   H     H_    0.356182 0.154850 0.851070 0.090503
H41   H     H_    0.439436 0.260848 0.891802 0.112832
H42   H     H_    0.383404 0.457724 0.866181 0.148751
H43   H     H_    0.242904 0.548923 0.799556 0.103323
H44   H     H_    0.156535 0.445664 0.759126 0.092801
O27   O     O_3   0.553036 0.399805 0.787342 -0.713976
H45   H     H_    0.514523 0.443753 0.757721 0.307820
O28   O     O_3   0.870588 0.626852 0.132059 -0.686360
H46   H     H_    0.929789 0.599627 0.157740 0.303999
O29   O     O_3   0.492233 0.339265 0.130722 -0.695675
H47   H     H_    0.426940 0.335952 0.145390 0.332730
C109  C     C_R   0.384749 0.469317 0.218511 0.030225
C110  C     C_R   0.406376 0.537282 0.186443 -0.040973
C111  C     C_R   0.315770 0.630477 0.163286 -0.102800
C112  C     C_R   0.203060 0.663641 0.175336 -0.105210
C113  C     C_R   0.180672 0.601362 0.209428 -0.116381
C114  C     C_R   0.270631 0.503775 0.230308 -0.111368
H48   H     H_    0.493234 0.515647 0.177901 0.143992
H49   H     H_    0.332788 0.678065 0.136340 0.099264
H50   H     H_    0.133147 0.737714 0.158372 0.107086
H51   H     H_    0.093533 0.628027 0.219286 0.087716
H52   H     H_    0.251301 0.454611 0.255474 0.109336
O30   O     O_3   0.852394 0.007034 0.389793 -0.713267
H53   H     H_    0.847135 0.036232 0.423558 0.338053
O31   O     O_3   0.381323 0.065410 0.738474 -0.712400
H54   H     H_    0.421299 0.037119 0.769976 0.297575

loop_
_geom_bond_atom_site_label_1
_geom_bond_atom_site_label_2
_ccdc_geom_bond_type
C66   C68   A    
C49   C50   A    
C40   C41   A    
C59   H18   S    
Cr3   O23   S    
C41   C42   A    
C83   C87   A    
C97   C98   A    
C33   H5    S    
C74   C83   A    
C43   C44   A    
C34   O25   A    
C2    C12   S    
C68   H22   S    
C107  C108  A    
C85   H29   S    
C101  H38   S    
C25   H3    S    
C7    C8    S    
C47   C49   A    
Cr4   O6    S    
C55   H17   S    
C85   C86   A    
C5    H31   S    
C11   C19   S    
C99   C100  A    
Cr2   O2    S    
C71   H21   S    
C98   C99   A    
C19   C21   S    
C73   C90   A    
C18   C19   S    
C5    C6    S    
C56   O4    A    
C26   O27   S    
C86   C88   A    
C8    H19   S    
Cr5   O19   S    
C84   H30   S    
C111  H49   S    
C45   O3    A    
C17   C20   S    
C50   H13   S    
C73   C74   A    
C69   C71   A    
C109  C114  A    
C7    H28   S    
C42   H11   S    
C103  C104  A    
C44   C53   A    
C16   H2    S    
C40   C43   A    
C20   C103  S    
C47   C48   A    
C68   C69   A    
C56   C72   S    
C41   H10   S    
C23   O23   A    
C1    C28   S    
O31   H54   S    
C31   C33   S    
C40   C52   A    
C12   O21   A    
C80   C96   S    
Cr6   O18   S    
C55   C72   A    
C61   C62   A    
C25   C32   S    
C15   C23   S    
C112  C113  A    
C61   H16   S    
C59   C60   A    
C96   O18   A    
C8    C78   S    
C102  H39   S    
C13   H33   S    
C21   O31   S    
Cr3   O3    S    
C98   H35   S    
O29   H47   S    
C67   C78   S    
C88   H27   S    
C4    C7    S    
C95   O17   A    
Cr1   O1    S    
Cr2   O26   S    
C23   O1    A    
C113  H51   S    
C39   C42   A    
C91   O7    A    
C76   C77   A    
C25   C29   S    
C105  H41   S    
Cr2   O20   S    
C32   C37   S    
O30   H53   S    
C92   O10   A    
C109  C110  A    
Cr1   O24   S    
C84   C85   A    
C9    C89   T    
C101  C102  A    
C5    C7    S    
C86   C87   A    
C16   C17   S    
C57   C60   A    
C6    C8    S    
Cr4   O14   S    
C25   C26   S    
C73   H25   S    
C74   C77   A    
C81   C82   A    
C113  C114  A    
C46   H15   S    
C51   C53   A    
C64   C66   A    
C91   O8    A    
C1    O20   A    
C75   C76   A    
C34   C90   S    
C4    C78   S    
C29   C30   S    
Cr6   O11   S    
C11   C16   S    
C67   H8    S    
C104  C105  A    
C38   C54   A    
Cr2   O21   S    
C43   O28   S    
C29   C31   S    
Cr5   O9    S    
C46   C54   A    
C50   C51   A    
C13   C21   S    
C110  H48   S    
C63   C72   A    
C89   C92   S    
C60   H20   S    
C78   C97   S    
C106  H42   S    
Cr6   O17   S    
Cr1   O5    S    
C104  H40   S    
C77   H26   S    
C100  H37   S    
C81   C90   A    
Cr4   O19   S    
C75   C87   A    
C105  C106  A    
C45   C54   S    
C111  C112  A    
C82   C84   A    
C62   C94   S    
Cr2   O5    S    
C100  C101  A    
C27   C36   T    
Cr1   O12   S    
Cr3   O4    S    
C27   C93   S    
C3    C4    S    
C2    C10   T    
C31   H6    S    
C3    C5    S    
C53   H12   S    
C108  H44   S    
C29   H7    S    
C99   H36   S    
C46   C47   A    
C15   C24   T    
C30   C33   S    
C92   O9    A    
C19   C24   S    
Cr3   O5    S    
C31   C32   S    
C58   C70   A    
C32   C35   S    
C107  H43   S    
C57   C65   A    
C63   C64   A    
C34   O26   A    
Cr4   O7    S    
C6    C10   S    
C26   C30   S    
C81   O30   S    
C30   C36   S    
Cr4   O13   S    
C94   O14   A    
Cr5   O16   S    
Cr1   O25   S    
C17   C22   S    
C94   O15   A    
C66   H23   S    
C13   C17   S    
C56   O24   A    
C3    H32   S    
C12   O22   A    
C110  C111  A    
C14   C22   T    
C55   C57   A    
C97   C102  A    
C58   C59   A    
C51   C52   A    
C80   C88   A    
C76   C109  S    
C6    C67   S    
C11   H34   S    
C64   C65   A    
C38   H9    S    
C114  H52   S    
C11   C13   S    
O27   H45   S    
C38   C39   A    
C3    C67   S    
C28   C37   T    
C58   C61   A    
C96   O13   A    
Cr6   O19   S    
C45   O2    A    
C33   C35   S    
Cr5   O15   S    
C62   C71   A    
C93   O11   A    
C18   C20   S    
C18   H1    S    
C69   C70   A    
C14   C91   S    
C63   H24   S    
C93   O6    A    
C79   C80   A    
C112  H50   S    
C26   C35   S    
C48   C52   A    
C49   H14   S    
C20   C21   S    
C16   C18   S    
C106  C107  A    
C79   O29   S    
Cr3   O22   S    
C35   H4    S    
C44   C95   S    
C1    O12   A    
O28   H46   S    
C95   O16   A    
C82   C83   A    
C4    C9    S    
C75   C79   A    
C103  C108  A    
Cr6   O10   S    
Cr5   O8    S    
C65   C70   A    
C39   C48   A    
