data_mof_unit_6402.cif
_audit_creation_date              2012-10-26T20:31:59-0400
_audit_creation_method            fapswitch 2.2
_symmetry_space_group_name_H-M    P1
_symmetry_Int_Tables_number       1
_space_group_crystal_system       triclinic
_cell_length_a                    10.622834
_cell_length_b                    10.830558
_cell_length_c                    9.608004
_cell_angle_alpha                 89.110754
_cell_angle_beta                  89.199336
_cell_angle_gamma                 90.938365
_cell_volume                      1105.01929825

loop_
_atom_site_label
_atom_site_type_symbol
_atom_type_description
_atom_site_fract_x
_atom_site_fract_y
_atom_site_fract_z
_atom_type_partial_charge
C1    C     C_R   0.506286 0.262708 0.500179 0.545574
C2    C     C_R   0.453588 0.934273 0.611092 0.001330
C3    C     C_3   0.494747 0.923119 0.759341 -0.110696
C4    C     C_R   0.259441 0.502205 0.500424 0.542851
C5    C     C_3   0.501814 0.063190 0.759277 -0.264111
C6    C     C_R   0.577396 0.578910 0.070763 0.160783
C7    C     C_R   0.415333 0.432146 0.079375 0.014151
C8    C     C_R   0.411580 0.433098 0.931555 0.107884
C9    C     C_R   0.577902 0.578454 0.923919 0.163006
C10   C     C_3   0.718179 0.582940 0.917256 -0.284083
C11   C     C_3   0.717553 0.584764 0.075033 -0.282649
C12   C     C_3   0.959322 0.423425 0.402820 -0.122694
C13   C     C_R   0.500394 0.737162 0.499170 0.538866
C14   C     C_R   0.740455 0.500069 0.499335 0.549287
C15   C     C_3   0.040149 0.582237 0.595440 -0.127378
C16   C     C_3   0.956043 0.466813 0.625305 -0.120929
C17   C     C_3   0.877311 0.501253 0.498479 0.050966
C18   C     C_3   0.959008 0.616605 0.468769 -0.129056
C19   C     C_3   0.043431 0.538729 0.373288 -0.114859
C20   C     C_3   0.311028 0.349366 0.871600 -0.226442
C21   C     C_3   0.178692 0.405019 0.876217 -0.291715
C22   C     C_3   0.118368 0.406124 0.021154 -0.462640
C23   C     C_3   0.040204 0.388732 0.529520 -0.136078
C24   C     C_R   0.627674 0.124042 0.265164 0.059547
C25   C     C_R   0.568142 0.166060 0.144332 -0.066891
C26   C     C_R   0.639786 0.218345 0.034508 -0.118059
C27   C     C_R   0.770873 0.224677 0.042307 -0.116676
C28   C     C_R   0.830775 0.179350 0.160513 -0.128086
C29   C     C_R   0.759525 0.130469 0.272404 -0.100552
C30   C     C_R   0.398253 0.869850 0.862547 0.052681
C31   C     C_R   0.425305 0.874348 0.005163 -0.116019
C32   C     C_R   0.338632 0.828138 0.104429 -0.104038
C33   C     C_R   0.224577 0.776327 0.062567 -0.103754
C34   C     C_3   0.122274 0.503944 0.500212 0.047534
C35   C     C_R   0.197130 0.769604 0.921357 -0.126249
C36   C     C_R   0.283512 0.815314 0.821226 -0.058231
C37   C     C_R   0.459052 0.061905 0.611653 -0.021057
C38   C     C_R   0.510070 0.128728 0.498314 -0.000823
C39   C     C_R   0.554365 0.064036 0.380128 -0.043295
C40   C     C_R   0.545984 0.935407 0.380048 -0.178200
C41   C     C_R   0.498672 0.870139 0.496647 -0.023717
Cu1   Cu    Cu3+1 0.499990 0.499980 0.640670 0.912807
Cu2   Cu    Cu3+1 0.500010 0.500020 0.359330 0.929122
H1    H     H_    0.918507 0.435795 0.728396 0.100161
H2    H     H_    0.075838 0.648434 0.672587 0.091785
H3    H     H_    0.922635 0.709692 0.443459 0.096925
H4    H     H_    0.080609 0.570691 0.270800 0.102514
H5    H     H_    0.923372 0.359928 0.323122 0.115960
H6    H     H_    0.076215 0.295368 0.554145 0.093570
H7    H     H_    0.584539 0.885994 0.292282 0.126641
H8    H     H_    0.123794 0.313912 0.072653 0.144232
H9    H     H_    0.165865 0.476555 0.084978 0.159422
H10   H     H_    0.017749 0.431267 0.012921 0.129387
H11   H     H_    0.181416 0.500718 0.833564 0.192950
H12   H     H_    0.588624 0.879778 0.768874 0.125441
H13   H     H_    0.117213 0.347729 0.809793 0.143241
H14   H     H_    0.331819 0.323897 0.764408 0.198328
H15   H     H_    0.308713 0.259818 0.929809 0.081300
H16   H     H_    0.466740 0.158977 0.135776 0.093094
H17   H     H_    0.594037 0.253458 0.942777 0.114461
H18   H     H_    0.825987 0.264093 0.956514 0.097791
H19   H     H_    0.932461 0.182587 0.165760 0.096654
H20   H     H_    0.807022 0.096022 0.363812 0.095344
H21   H     H_    0.513489 0.914351 0.039252 0.101927
H22   H     H_    0.359086 0.833110 0.213987 0.133585
H23   H     H_    0.599800 0.099560 0.768065 0.126519
H24   H     H_    0.157065 0.742142 0.139626 0.098777
H25   H     H_    0.108179 0.729702 0.890163 0.089515
H26   H     H_    0.259847 0.808676 0.712417 0.107509
H27   H     H_    0.431982 0.106803 0.829085 0.125263
H28   H     H_    0.351977 0.372802 0.140126 0.124296
H29   H     H_    0.758220 0.496797 0.875758 0.142060
H30   H     H_    0.755255 0.670005 0.868168 0.121285
H31   H     H_    0.759019 0.500587 0.122171 0.161775
H32   H     H_    0.752853 0.673535 0.117448 0.118155
N1    N     N_R   0.500800 0.500930 0.147930 -0.240550
N2    N     N_R   0.500800 0.500890 0.852020 -0.232156
O1    O     O_R   0.500000 0.319640 0.618810 -0.528219
O2    O     O_R   0.500010 0.319680 0.381230 -0.495647
O3    O     O_R   0.316850 0.499950 0.618770 -0.521652
O4    O     O_R   0.316860 0.499990 0.381190 -0.511214
O5    O     O_R   0.499990 0.680320 0.618770 -0.494036
O6    O     O_R   0.500000 0.680360 0.381190 -0.509258
O7    O     O_R   0.683140 0.500010 0.618810 -0.511356
O8    O     O_R   0.683150 0.500050 0.381230 -0.503192

loop_
_geom_bond_atom_site_label_1
_geom_bond_atom_site_label_2
_ccdc_geom_bond_type
C15   C18   S    
C29   H20   S    
Cu1   O3    S    
C5    C37   S    
Cu2   O6    S    
C35   C36   A    
Cu1   O5    S    
C14   O7    A    
C12   H5    S    
C6    C9    A    
C13   C41   S    
C7    C8    A    
C12   C23   S    
C26   C27   A    
C8    C20   S    
C28   C29   A    
C37   C38   A    
C4    O3    A    
C7    H28   S    
C21   H11   S    
C10   H30   S    
C19   H4    S    
C23   H6    S    
C2    C41   A    
Cu2   O2    S    
C15   C16   S    
C24   C39   S    
C18   C19   S    
C24   C29   A    
C27   H18   S    
C3    H12   S    
C4    O4    A    
C16   C17   S    
C12   C17   S    
C9    C10   S    
C16   H1    S    
C15   C34   S    
C21   C22   S    
C1    O1    A    
C14   C17   S    
C18   H3    S    
C22   H10   S    
C38   C39   A    
C4    C34   S    
Cu2   O8    S    
Cu1   O7    S    
C24   C25   A    
C39   C40   A    
C25   C26   A    
C13   O5    A    
C11   H31   S    
C3    C30   S    
C5    H27   S    
C31   C32   A    
C23   C34   S    
C17   C18   S    
C40   H7    S    
C9    N2    A    
C1    C38   S    
C40   C41   A    
Cu1   O1    S    
C16   C23   S    
C8    N2    A    
Cu2   O4    S    
Cu1   Cu2   S    
C15   H2    S    
C20   H15   S    
C6    C11   S    
C36   H26   S    
C33   H24   S    
C22   H9    S    
Cu2   N1    S    
C31   H21   S    
C14   O8    A    
C5    H23   S    
C3    C5    S    
C19   C34   S    
C21   H13   S    
C6    N1    A    
C7    N1    A    
C13   O6    A    
C30   C36   A    
C32   C33   A    
C2    C3    S    
C11   H32   S    
C2    C37   A    
C30   C31   A    
C35   H25   S    
C1    O2    A    
C12   C19   S    
C33   C35   A    
C10   C11   S    
C20   C21   S    
Cu1   N2    S    
C27   C28   A    
C22   H8    S    
C25   H16   S    
C20   H14   S    
C26   H17   S    
C28   H19   S    
C32   H22   S    
C10   H29   S    
