data_mof_unit_56901.cif
_audit_creation_date              2012-12-10T18:59:58-0500
_audit_creation_method            fapswitch 2.2
_symmetry_space_group_name_H-M    P1
_symmetry_Int_Tables_number       1
_space_group_crystal_system       triclinic
_cell_length_a                    10.743596
_cell_length_b                    10.676215
_cell_length_c                    9.828641
_cell_angle_alpha                 90.065968
_cell_angle_beta                  90.992608
_cell_angle_gamma                 90.133299
_cell_volume                      1127.18134555

loop_
_atom_site_label
_atom_site_type_symbol
_atom_type_description
_atom_site_fract_x
_atom_site_fract_y
_atom_site_fract_z
_atom_type_partial_charge
C1    C     C_R   0.500144 0.259907 0.499912 0.894149
C2    C     C_R   0.500252 0.740096 0.500108 0.893657
C3    C     C_R   0.872608 0.500525 0.504402 -0.065316
C4    C     C_R   0.127507 0.498661 0.495192 -0.066168
C5    C     C_R   0.941283 0.457308 0.618393 0.085222
C6    C     C_R   0.059003 0.543427 0.381819 0.107137
C7    C     C_R   0.534877 0.064041 0.382186 -0.113577
C8    C     C_R   0.467077 0.935996 0.618169 -0.078401
C9    C     C_R   0.535063 0.935872 0.382357 -0.096062
C10   C     C_R   0.466856 0.064121 0.617986 -0.086142
C11   C     C_R   0.500857 0.872486 0.500229 -0.049292
C12   C     C_R   0.500593 0.127523 0.499968 -0.045611
C13   C     C_R   0.526815 0.606751 0.072537 -0.070292
C14   C     C_R   0.472943 0.393293 0.927468 -0.066645
C15   C     C_R   0.526184 0.606845 0.928776 -0.040301
C16   C     C_R   0.473219 0.393275 0.071239 -0.031155
C17   C     C_R   0.259943 0.500379 0.498434 0.902522
C18   C     C_R   0.740100 0.499635 0.501533 0.893535
C19   C     C_R   0.200857 0.778301 0.143332 0.549399
C20   C     C_R   0.798248 0.242692 0.877493 0.460924
C21   C     C_R   0.144810 0.724282 0.256615 -0.294075
C22   C     C_R   0.852851 0.287528 0.758744 -0.228883
C23   C     C_R   0.116166 0.595942 0.258302 -0.078519
C24   C     C_R   0.884993 0.414501 0.746575 -0.063957
C25   C     C_R   0.143036 0.520578 0.143922 0.524499
C26   C     C_R   0.862893 0.497897 0.855726 0.405281
C27   C     C_R   0.199042 0.576009 0.030999 -0.325123
C28   C     C_R   0.809979 0.451147 0.974893 -0.188562
C29   C     C_R   0.227531 0.703755 0.030625 -0.232142
C30   C     C_R   0.777961 0.324776 0.985664 -0.232564
C31   C     C_R   0.931512 0.544755 0.388462 -0.124950
C32   C     C_R   0.068629 0.453461 0.610617 -0.209350
H1    H     H_    0.270711 0.744515 0.942271 0.187257
H2    H     H_    0.736249 0.291098 0.078265 0.168737
H3    H     H_    0.562119 0.113045 0.290827 0.157441
H4    H     H_    0.439816 0.887046 0.709552 0.172385
H5    H     H_    0.562427 0.886798 0.291108 0.176749
H6    H     H_    0.439395 0.113150 0.709229 0.175575
N1    N     N_R   0.499970 0.499970 0.857200 -0.108490
N2    N     N_R   0.500030 0.500030 0.142800 -0.104795
O1    O     O_R   0.499990 0.316750 0.614620 -0.639362
O2    O     O_R   0.500010 0.683250 0.385380 -0.640161
O3    O     O_R   0.499990 0.316780 0.385290 -0.617956
O4    O     O_R   0.500010 0.683220 0.614710 -0.618134
O5    O     O_R   0.316760 0.500000 0.614660 -0.638131
O6    O     O_R   0.683240 0.500000 0.385340 -0.632151
O7    O     O_R   0.316760 0.500020 0.385330 -0.589979
O8    O     O_R   0.683240 0.499980 0.614670 -0.594378
Zn1   Zn    Zn3+2 0.500000 0.499980 0.653120 0.980473
Zn2   Zn    Zn3+2 0.500000 0.500020 0.346880 0.983179
H7    H     H_    0.546243 0.692696 0.875358 0.194974
H8    H     H_    0.452341 0.307609 0.124698 0.175505
S1    S     S_3+6 0.236331 0.939350 0.141001 0.046773
O9    O     O_2   0.139328 0.005897 0.056364 -0.188324
O10   O     O_2   0.237496 0.991795 0.283045 -0.296809
O11   O     O_3   0.376479 0.960815 0.071091 -0.576833
H9    H     H_    0.390284 0.052568 0.073885 0.396801
S2    S     S_3+6 0.754516 0.084202 0.891794 0.061417
O12   O     O_2   0.623245 0.075671 0.941416 -0.365151
O13   O     O_2   0.762506 0.019310 0.756443 -0.222659
O14   O     O_3   0.850224 0.012607 0.004096 -0.413822
H10   H     H_    0.832048 0.051618 0.093036 0.340551
H11   H     H_    0.123735 0.781720 0.344152 0.199664
H12   H     H_    0.869479 0.224218 0.674839 0.188489
S3    S     S_3+6 0.115219 0.356803 0.141892 0.025227
O15   O     O_2   0.113843 0.308896 0.997970 -0.304091
O16   O     O_2   0.217525 0.292708 0.221045 -0.268447
O17   O     O_3   0.978497 0.322715 0.213812 -0.588144
H13   H     H_    0.974688 0.230038 0.215573 0.397813
S4    S     S_3+6 0.889217 0.661722 0.843695 0.063251
O18   O     O_2   0.774601 0.721407 0.783280 -0.222473
O19   O     O_2   0.912462 0.716039 0.983042 -0.278494
O20   O     O_3   0.009819 0.697082 0.743925 -0.511701
H14   H     H_    0.083531 0.660543 0.790329 0.342505
H15   H     H_    0.221698 0.520221 0.942873 0.187352
H16   H     H_    0.791414 0.513060 0.059369 0.185189
H17   H     H_    0.878314 0.581077 0.302360 0.169333
H18   H     H_    0.121902 0.417731 0.696994 0.180410
H19   H     H_    0.548329 0.692269 0.127026 0.169179
H20   H     H_    0.451218 0.307830 0.872976 0.165017

loop_
_geom_bond_atom_site_label_1
_geom_bond_atom_site_label_2
_ccdc_geom_bond_type
O4    Zn1   S    
C13   H19   S    
C27   C29   A    
O20   H14   S    
C20   C30   A    
S1    O9    D    
C19   C21   A    
C24   C26   A    
S2    O13   D    
C29   H1    S    
O11   H9    S    
C3    C18   S    
C8    H4    S    
C13   N2    A    
C14   N1    A    
C1    O3    A    
C2    O4    A    
O17   H13   S    
S3    O16   D    
S4    O18   D    
C14   H20   S    
C5    C32   A    
C19   S1    S    
S2    O14   S    
C6    C31   A    
C1    C12   S    
C27   H15   S    
C2    C11   S    
C18   O6    A    
O1    Zn1   S    
C31   H17   S    
O7    Zn2   S    
S1    O10   D    
C7    C12   A    
C30   H2    S    
C16   H8    S    
C25   S3    S    
C4    C6    A    
S2    O12   D    
C22   H12   S    
O5    Zn1   S    
S3    O17   S    
S4    O20   S    
C9    H5    S    
C3    C31   A    
C9    C11   A    
C15   N1    A    
C4    C32   A    
C10   C12   A    
O2    Zn2   S    
C4    C17   S    
C1    O1    A    
O8    Zn1   S    
N1    Zn1   S    
C20   C22   A    
C15   H7    S    
C13   C15   A    
C26   S4    S    
C22   C24   A    
C20   S2    S    
C28   H16   S    
C16   N2    A    
S1    O11   S    
C7    C9    A    
C7    H3    S    
C17   O7    A    
C17   O5    A    
C3    C5    A    
C18   O8    A    
O3    Zn2   S    
C25   C27   A    
O6    Zn2   S    
C26   C28   A    
C10   H6    S    
C21   C23   A    
C5    C24   S    
C2    O2    A    
C8    C11   A    
N2    Zn2   S    
C6    C23   S    
C28   C30   A    
C14   C16   A    
C23   C25   A    
O14   H10   S    
C21   H11   S    
C32   H18   S    
C8    C10   A    
S3    O15   D    
S4    O19   D    
C19   C29   A    
