data_mof_unit_15662.cif
_audit_creation_date              2013-03-05T15:43:49-0500
_audit_creation_method            fapswitch 2.2
_symmetry_space_group_name_H-M    P1
_symmetry_Int_Tables_number       1
_space_group_crystal_system       triclinic
_cell_length_a                    21.497458
_cell_length_b                    21.495986
_cell_length_c                    22.342679
_cell_angle_alpha                 89.999808
_cell_angle_beta                  90.005537
_cell_angle_gamma                 90.001936
_cell_volume                      10324.7542516

loop_
_atom_site_label
_atom_site_type_symbol
_atom_site_description
_atom_site_fract_x
_atom_site_fract_y
_atom_site_fract_z
_atom_type_partial_charge
C1    C     C_R   0.914998 0.156594 0.084564 -0.071569
C2    C     C_R   0.058899 0.867707 0.886326 -0.115323
C3    C     C_R   0.132295 0.058903 0.113675 -0.115311
C4    C     C_R   0.843382 0.914915 0.915535 -0.071476
C5    C     C_R   0.085077 0.843380 0.084467 -0.071453
C6    C     C_R   0.941095 0.132286 0.886322 -0.115334
C7    C     C_R   0.867698 0.941075 0.113666 -0.115165
C8    C     C_R   0.156615 0.085083 0.915538 -0.071459
C9    C     C_R   0.916418 0.842344 0.918683 -0.099341
C10   C     C_R   0.060068 0.133131 0.113729 -0.079638
C11   C     C_R   0.133124 0.939944 0.886272 -0.079715
C12   C     C_R   0.842395 0.083568 0.081440 -0.099306
C13   C     C_R   0.083581 0.157656 0.918685 -0.099337
C14   C     C_R   0.939943 0.866861 0.113724 -0.079732
C15   C     C_R   0.866871 0.060049 0.886269 -0.079838
C16   C     C_R   0.157651 0.916417 0.081318 -0.099354
C17   C     C_R   0.414929 0.656617 0.584475 -0.071459
C18   C     C_R   0.558876 0.367706 0.386335 -0.115300
C19   C     C_R   0.632288 0.558902 0.613679 -0.115298
C20   C     C_R   0.343380 0.414915 0.415540 -0.071449
C21   C     C_R   0.585079 0.343380 0.584465 -0.071473
C22   C     C_R   0.441097 0.632286 0.386322 -0.115340
C23   C     C_R   0.367710 0.441089 0.613672 -0.115300
C24   C     C_R   0.656617 0.585086 0.415546 -0.071874
C25   C     C_R   0.416412 0.342342 0.418693 -0.099311
C26   C     C_R   0.560051 0.633122 0.613732 -0.079695
C27   C     C_R   0.633075 0.439965 0.386238 -0.079858
C28   C     C_R   0.342355 0.583579 0.581327 -0.099342
C29   C     C_R   0.583582 0.657658 0.418693 -0.099250
C30   C     C_R   0.439948 0.366868 0.613728 -0.079709
C31   C     C_R   0.366873 0.560048 0.386268 -0.079713
C32   C     C_R   0.657652 0.416417 0.581317 -0.099334
H1    H     H_    0.936748 0.201895 0.083842 0.102101
H2    H     H_    0.026828 0.831552 0.874175 0.144828
H3    H     H_    0.168449 0.026834 0.125826 0.144823
H4    H     H_    0.798085 0.936660 0.916288 0.101930
H5    H     H_    0.063329 0.798081 0.083716 0.102026
H6    H     H_    0.973164 0.168440 0.874169 0.144821
H7    H     H_    0.831528 0.973122 0.125810 0.144898
H8    H     H_    0.201910 0.063335 0.916291 0.102006
H9    H     H_    0.937672 0.797689 0.926599 0.146400
H10   H     H_    0.030285 0.171249 0.125591 0.161263
H11   H     H_    0.171227 0.969752 0.874410 0.161328
H12   H     H_    0.797692 0.062347 0.073659 0.145828
H13   H     H_    0.062329 0.202311 0.926598 0.146418
H14   H     H_    0.969754 0.828759 0.125584 0.161359
H15   H     H_    0.828768 0.030238 0.874409 0.161337
H16   H     H_    0.202306 0.937668 0.073403 0.146397
H17   H     H_    0.436675 0.701918 0.583727 0.102039
H18   H     H_    0.526810 0.331540 0.374214 0.144779
H19   H     H_    0.668444 0.526836 0.625831 0.144819
H20   H     H_    0.298083 0.436661 0.416292 0.102016
H21   H     H_    0.563330 0.298081 0.583713 0.102023
H22   H     H_    0.473166 0.668439 0.374171 0.144823
H23   H     H_    0.331553 0.473152 0.625820 0.144835
H24   H     H_    0.701913 0.563338 0.416301 0.102067
H25   H     H_    0.437660 0.297685 0.426616 0.146360
H26   H     H_    0.530242 0.671223 0.625594 0.161342
H27   H     H_    0.671144 0.469801 0.374331 0.161382
H28   H     H_    0.297697 0.562327 0.573422 0.146364
H29   H     H_    0.562329 0.702312 0.426611 0.146409
H30   H     H_    0.469758 0.328766 0.625588 0.161359
H31   H     H_    0.328771 0.530236 0.374406 0.161343
H32   H     H_    0.702305 0.437671 0.573401 0.146425
N1    N     N_R   0.940200 0.105310 0.059970 -0.050422
N2    N     N_R   0.059800 0.894690 0.940030 -0.055028
N3    N     N_R   0.105310 0.059800 0.059970 -0.055026
N4    N     N_R   0.894690 0.940200 0.940030 -0.050387
N5    N     N_R   0.059800 0.894690 0.059970 -0.050387
N6    N     N_R   0.940200 0.105310 0.940030 -0.055029
N7    N     N_R   0.894690 0.940200 0.059970 -0.055064
N8    N     N_R   0.105310 0.059800 0.940030 -0.050391
N9    N     N_R   0.940200 0.894690 0.940030 -0.053361
N10   N     N_R   0.059800 0.105310 0.059970 -0.061761
N11   N     N_R   0.105310 0.940200 0.940030 -0.061769
N12   N     N_R   0.894690 0.059800 0.059970 -0.053278
N13   N     N_R   0.059800 0.105310 0.940030 -0.053368
N14   N     N_R   0.940200 0.894690 0.059970 -0.061772
N15   N     N_R   0.894690 0.059800 0.940030 -0.061773
N16   N     N_R   0.105310 0.940200 0.059970 -0.053361
N17   N     N_R   0.440200 0.605310 0.559970 -0.050404
N18   N     N_R   0.559800 0.394690 0.440030 -0.055035
N19   N     N_R   0.605310 0.559800 0.559970 -0.055006
N20   N     N_R   0.394690 0.440200 0.440030 -0.050397
N21   N     N_R   0.559800 0.394690 0.559970 -0.050400
N22   N     N_R   0.440200 0.605310 0.440030 -0.055028
N23   N     N_R   0.394690 0.440200 0.559970 -0.055031
N24   N     N_R   0.605310 0.559800 0.440030 -0.050379
N25   N     N_R   0.440200 0.394690 0.440030 -0.053367
N26   N     N_R   0.559800 0.605310 0.559970 -0.061767
N27   N     N_R   0.605310 0.440200 0.440030 -0.061742
N28   N     N_R   0.394690 0.559800 0.559970 -0.053358
N29   N     N_R   0.559800 0.605310 0.440030 -0.053372
N30   N     N_R   0.440200 0.394690 0.559970 -0.061777
N31   N     N_R   0.394690 0.559800 0.440030 -0.061768
N32   N     N_R   0.605310 0.440200 0.559970 -0.053370
C33   C     C_R   0.103472 0.247635 0.322741 -0.091255
C34   C     C_R   0.815523 0.646389 0.810207 -0.112391
C35   C     C_R   0.353582 0.815539 0.189817 -0.112435
C36   C     C_R   0.752318 0.103459 0.677285 -0.091299
C37   C     C_R   0.896516 0.752316 0.322721 -0.091251
C38   C     C_R   0.184470 0.353594 0.810183 -0.112390
C39   C     C_R   0.646831 0.184089 0.190520 -0.112953
C40   C     C_R   0.247644 0.896514 0.677289 -0.091295
C41   C     C_R   0.603471 0.747653 0.822726 -0.091287
C42   C     C_R   0.315536 0.146393 0.310208 -0.112410
C43   C     C_R   0.853593 0.315528 0.689797 -0.112390
C44   C     C_R   0.252328 0.603461 0.177279 -0.091286
C45   C     C_R   0.396517 0.252312 0.822710 -0.091316
C46   C     C_R   0.684470 0.853603 0.310210 -0.112448
C47   C     C_R   0.146473 0.684402 0.689893 -0.112419
C48   C     C_R   0.747490 0.396405 0.177199 -0.091232
C49   C     C_R   0.794429 0.703672 0.832939 -0.038276
C50   C     C_R   0.126911 0.196234 0.290813 -0.049060
C51   C     C_R   0.803729 0.126897 0.709203 -0.049082
C52   C     C_R   0.296303 0.794437 0.167079 -0.038261
C53   C     C_R   0.205565 0.296313 0.832924 -0.038272
C54   C     C_R   0.873077 0.803721 0.290794 -0.049079
C55   C     C_R   0.196254 0.873065 0.709221 -0.049077
C56   C     C_R   0.704014 0.205278 0.167650 -0.038543
C57   C     C_R   0.294435 0.203672 0.332946 -0.038263
C58   C     C_R   0.626904 0.696245 0.790806 -0.049070
C59   C     C_R   0.303735 0.626901 0.209202 -0.049082
C60   C     C_R   0.796310 0.294429 0.667064 -0.038269
C61   C     C_R   0.705566 0.796323 0.332951 -0.038233
C62   C     C_R   0.373082 0.303720 0.790786 -0.049059
C63   C     C_R   0.696171 0.372932 0.209218 -0.049106
C64   C     C_R   0.203735 0.705520 0.667142 -0.038293
C65   C     C_R   0.730150 0.717313 0.831944 0.034106
C66   C     C_R   0.189461 0.178305 0.300226 0.036587
C67   C     C_R   0.821663 0.189449 0.699789 0.036587
C68   C     C_R   0.282664 0.730152 0.168070 0.034106
C69   C     C_R   0.269843 0.282664 0.831926 0.034107
C70   C     C_R   0.810534 0.821662 0.300211 0.036571
C71   C     C_R   0.178345 0.810501 0.699831 0.036589
C72   C     C_R   0.717449 0.269613 0.168370 0.034279
C73   C     C_R   0.230155 0.217306 0.331954 0.034106
C74   C     C_R   0.689452 0.678311 0.800220 0.036584
C75   C     C_R   0.321665 0.689455 0.199793 0.036586
C76   C     C_R   0.782664 0.230146 0.668064 0.034106
C77   C     C_R   0.769843 0.782673 0.331949 0.034150
C78   C     C_R   0.310537 0.321658 0.800197 0.036583
C79   C     C_R   0.678377 0.310311 0.199991 0.036565
C80   C     C_R   0.217352 0.769810 0.668115 0.034117
C81   C     C_R   0.643512 0.785462 0.855885 -0.181434
C82   C     C_R   0.274500 0.105869 0.282591 -0.171875
C83   C     C_R   0.894112 0.274489 0.717414 -0.171877
C84   C     C_R   0.214519 0.643501 0.144121 -0.181377
C85   C     C_R   0.356480 0.214509 0.855873 -0.181406
C86   C     C_R   0.725503 0.894113 0.282578 -0.171771
C87   C     C_R   0.105942 0.725434 0.717496 -0.171877
C88   C     C_R   0.785324 0.356374 0.144069 -0.181399
C89   C     C_R   0.143510 0.285444 0.355904 -0.181385
C90   C     C_R   0.774483 0.605865 0.782594 -0.171870
C91   C     C_R   0.394104 0.774501 0.217430 -0.171899
C92   C     C_R   0.714510 0.143499 0.644126 -0.181383
C93   C     C_R   0.856481 0.714518 0.355892 -0.181393
C94   C     C_R   0.225507 0.394109 0.782562 -0.171853
C95   C     C_R   0.606189 0.225128 0.217964 -0.171754
C96   C     C_R   0.285457 0.856479 0.644137 -0.181389
H33   H     H_    0.625037 0.826716 0.877362 0.145179
H34   H     H_    0.292469 0.063299 0.263121 0.169913
H35   H     H_    0.936687 0.292458 0.736878 0.169919
H36   H     H_    0.173266 0.625021 0.122642 0.145238
H37   H     H_    0.374956 0.173256 0.877353 0.145200
H38   H     H_    0.707537 0.936685 0.263106 0.169936
H39   H     H_    0.063381 0.707454 0.736970 0.169888
H40   H     H_    0.826491 0.374896 0.122481 0.145225
H41   H     H_    0.125032 0.326694 0.377386 0.145235
H42   H     H_    0.792448 0.563290 0.763129 0.169928
H43   H     H_    0.436677 0.792471 0.236899 0.169901
H44   H     H_    0.673254 0.125020 0.622651 0.145231
H45   H     H_    0.874958 0.673265 0.377373 0.145227
H46   H     H_    0.207541 0.436683 0.763093 0.169926
H47   H     H_    0.563674 0.207119 0.237508 0.169805
H48   H     H_    0.326695 0.874969 0.622647 0.145230
H49   H     H_    0.730961 0.856966 0.902819 0.144999
H50   H     H_    0.196554 0.050592 0.213191 0.188701
H51   H     H_    0.949393 0.196538 0.786804 0.188693
H52   H     H_    0.143018 0.730950 0.097185 0.145063
H53   H     H_    0.269036 0.143021 0.902819 0.145045
H54   H     H_    0.803429 0.949359 0.213158 0.188937
H55   H     H_    0.050635 0.803392 0.786846 0.188660
H56   H     H_    0.856876 0.268987 0.097102 0.145017
H57   H     H_    0.230956 0.356954 0.402841 0.145054
H58   H     H_    0.696527 0.550579 0.713209 0.188712
H59   H     H_    0.449393 0.696546 0.286810 0.188682
H60   H     H_    0.643012 0.230949 0.597191 0.145057
H61   H     H_    0.769038 0.643030 0.402842 0.145056
H62   H     H_    0.303453 0.449383 0.713175 0.188732
H63   H     H_    0.550658 0.303239 0.286979 0.188656
H64   H     H_    0.356967 0.769044 0.597198 0.145061
Ni1   Ni    Ni4+2 0.000000 0.104370 0.000000 0.232277
Ni2   Ni    Ni4+2 0.000000 0.895630 0.000000 0.232279
Ni3   Ni    Ni4+2 0.104370 0.000000 0.000000 0.232271
Ni4   Ni    Ni4+2 0.895630 0.000000 0.000000 0.232121
Ni5   Ni    Ni4+2 0.500000 0.604370 0.500000 0.232266
Ni6   Ni    Ni4+2 0.500000 0.395630 0.500000 0.232240
Ni7   Ni    Ni4+2 0.604370 0.500000 0.500000 0.232275
Ni8   Ni    Ni4+2 0.395630 0.500000 0.500000 0.232245
C97   C     C_R   0.853655 0.143428 0.100388 0.146588
C98   C     C_R   0.102949 0.896608 0.850049 0.113601
C99   C     C_R   0.103393 0.102951 0.149954 0.113549
C100  C     C_R   0.856519 0.853513 0.899812 0.145832
C101  C     C_R   0.146477 0.856517 0.100191 0.145791
C102  C     C_R   0.897044 0.103376 0.850043 0.113602
C103  C     C_R   0.896604 0.897021 0.149943 0.113604
C104  C     C_R   0.143477 0.146485 0.899816 0.145783
C105  C     C_R   0.353536 0.643475 0.600208 0.145854
C106  C     C_R   0.602892 0.396610 0.350032 0.113622
C107  C     C_R   0.603378 0.602946 0.649959 0.113532
C108  C     C_R   0.356514 0.353512 0.399823 0.145814
C109  C     C_R   0.646479 0.356517 0.600188 0.145780
C110  C     C_R   0.397047 0.603376 0.350043 0.113566
C111  C     C_R   0.396617 0.397035 0.649950 0.113576
C112  C     C_R   0.643480 0.646490 0.399831 0.145783
H65   H     H_    0.054990 0.260681 0.320481 0.187846
H66   H     H_    0.863951 0.633121 0.811394 0.192989
H67   H     H_    0.366848 0.863971 0.188633 0.192971
H68   H     H_    0.739265 0.054975 0.679547 0.187836
H69   H     H_    0.944994 0.739259 0.320456 0.187826
H70   H     H_    0.136044 0.366866 0.811372 0.192984
H71   H     H_    0.633711 0.135614 0.189527 0.192963
H72   H     H_    0.260676 0.945005 0.679534 0.187827
H73   H     H_    0.554990 0.760703 0.820465 0.187821
H74   H     H_    0.363964 0.133130 0.311395 0.192976
H75   H     H_    0.866864 0.363959 0.688606 0.192989
H76   H     H_    0.239279 0.554976 0.179537 0.187834
H77   H     H_    0.444997 0.239257 0.820450 0.187809
H78   H     H_    0.636045 0.866878 0.311404 0.192968
H79   H     H_    0.133224 0.635965 0.688724 0.192984
H80   H     H_    0.760443 0.444920 0.179353 0.187740
C113  C     C_R   0.836418 0.749398 0.852137 0.304654
C114  C     C_R   0.091645 0.164731 0.246668 0.290489
C115  C     C_R   0.835239 0.091628 0.753339 0.290542
C116  C     C_R   0.250580 0.836425 0.147879 0.304660
C117  C     C_R   0.163576 0.250595 0.852134 0.304682
C118  C     C_R   0.908340 0.835217 0.246649 0.290577
C119  C     C_R   0.164741 0.908338 0.753347 0.290536
C120  C     C_R   0.749852 0.163372 0.148556 0.304353
C121  C     C_R   0.336420 0.249402 0.352142 0.304661
C122  C     C_R   0.591633 0.664738 0.746667 0.290550
C123  C     C_R   0.335245 0.591630 0.253337 0.290549
C124  C     C_R   0.750590 0.336419 0.647863 0.304662
C125  C     C_R   0.663578 0.750606 0.352160 0.304665
C126  C     C_R   0.408350 0.335225 0.746651 0.290571
C127  C     C_R   0.664636 0.408250 0.253292 0.290638
C128  C     C_R   0.249466 0.663544 0.647942 0.304650
C129  C     C_R   0.813431 0.805330 0.877795 -0.053403
C130  C     C_R   0.120900 0.117248 0.212683 -0.031503
C131  C     C_R   0.882734 0.120881 0.787317 -0.031512
C132  C     C_R   0.194653 0.813430 0.122215 -0.053418
C133  C     C_R   0.186564 0.194663 0.877796 -0.053422
C134  C     C_R   0.879088 0.882706 0.212663 -0.031620
C135  C     C_R   0.117261 0.879080 0.787332 -0.031504
C136  C     C_R   0.805561 0.186461 0.122578 -0.053009
C137  C     C_R   0.313428 0.305328 0.377807 -0.053423
C138  C     C_R   0.620882 0.617245 0.712689 -0.031496
C139  C     C_R   0.382738 0.620884 0.287317 -0.031489
C140  C     C_R   0.694657 0.313428 0.622208 -0.053417
C141  C     C_R   0.686567 0.694673 0.377819 -0.053434
C142  C     C_R   0.379103 0.382721 0.712670 -0.031535
C143  C     C_R   0.617191 0.379012 0.287330 -0.031517
C144  C     C_R   0.305369 0.686553 0.622253 -0.053379
C145  C     C_R   0.749001 0.815013 0.882437 -0.243257
C146  C     C_R   0.176329 0.091099 0.233931 -0.226528
C147  C     C_R   0.908881 0.176313 0.766069 -0.226592
C148  C     C_R   0.184970 0.748994 0.117571 -0.243220
C149  C     C_R   0.250995 0.184974 0.882434 -0.243216
C150  C     C_R   0.823660 0.908856 0.233904 -0.225860
C151  C     C_R   0.091135 0.823627 0.766105 -0.226577
C152  C     C_R   0.815055 0.250898 0.117697 -0.243573
C153  C     C_R   0.248997 0.315004 0.382455 -0.243218
C154  C     C_R   0.676308 0.591093 0.733941 -0.226594
C155  C     C_R   0.408881 0.676320 0.266073 -0.226579
C156  C     C_R   0.684967 0.248992 0.617570 -0.243208
C157  C     C_R   0.750997 0.684984 0.382458 -0.243246
C158  C     C_R   0.323675 0.408870 0.733912 -0.226514
C159  C     C_R   0.591139 0.323478 0.266211 -0.226554
C160  C     C_R   0.315031 0.750991 0.617599 -0.243226
C161  C     C_R   0.707375 0.772498 0.857674 0.141212
C162  C     C_R   0.212617 0.123497 0.274211 0.120946
C163  C     C_R   0.876478 0.212604 0.725796 0.120948
C164  C     C_R   0.227481 0.707370 0.142335 0.141171
C165  C     C_R   0.292618 0.227480 0.857663 0.141199
C166  C     C_R   0.787379 0.876470 0.274191 0.120707
C167  C     C_R   0.123548 0.787332 0.725849 0.120950
C168  C     C_R   0.772513 0.292472 0.142467 0.141301
C169  C     C_R   0.207375 0.272487 0.357690 0.141179
C170  C     C_R   0.712602 0.623497 0.774214 0.120941
C171  C     C_R   0.376476 0.712613 0.225804 0.120961
C172  C     C_R   0.727478 0.207366 0.642335 0.141175
C173  C     C_R   0.792620 0.727490 0.357686 0.141174
C174  C     C_R   0.287386 0.376471 0.774184 0.120920
C175  C     C_R   0.623640 0.287105 0.226090 0.120920
C176  C     C_R   0.272517 0.792606 0.642366 0.141182
N33   N     N_R   0.901105 0.742734 0.837341 0.210815
O1    O     O_R   0.925697 0.778029 0.796390 -0.403697
O2    O     O_R   0.935281 0.701180 0.864087 -0.447834
N34   N     N_R   0.027952 0.181226 0.235568 0.218077
O3    O     O_R   0.985653 0.137986 0.233250 -0.368400
O4    O     O_R   0.013078 0.238055 0.221444 -0.427063
N35   N     N_R   0.818739 0.027932 0.764438 0.218075
O5    O     O_R   0.761917 0.013063 0.778578 -0.427162
O6    O     O_R   0.861970 0.985626 0.766738 -0.368802
N36   N     N_R   0.257242 0.901118 0.162680 0.210817
O7    O     O_R   0.221950 0.925708 0.203629 -0.403753
O8    O     O_R   0.298793 0.935299 0.135941 -0.447886
N37   N     N_R   0.098885 0.257267 0.837346 0.210809
O9    O     O_R   0.064725 0.298826 0.864095 -0.447804
O10   O     O_R   0.074277 0.221981 0.796393 -0.403776
N38   N     N_R   0.972028 0.818710 0.235552 0.218068
O11   O     O_R   0.014339 0.861939 0.233265 -0.368781
O12   O     O_R   0.986885 0.761883 0.221410 -0.427097
N39   N     N_R   0.181222 0.972043 0.764429 0.218077
O13   O     O_R   0.137978 0.014334 0.766726 -0.368820
O14   O     O_R   0.238044 0.986934 0.778560 -0.427102
N40   N     N_R   0.743607 0.098743 0.163795 0.211015
O15   O     O_R   0.779599 0.074500 0.204393 -0.402621
O16   O     O_R   0.702054 0.064166 0.137538 -0.448861
N41   N     N_R   0.401106 0.242753 0.337332 0.210809
O17   O     O_R   0.435296 0.201203 0.364065 -0.447962
O18   O     O_R   0.425682 0.278062 0.296383 -0.403582
N42   N     N_R   0.527942 0.681239 0.735565 0.218066
O19   O     O_R   0.485638 0.638004 0.733259 -0.368812
O20   O     O_R   0.513077 0.738067 0.721429 -0.427104
N43   N     N_R   0.318747 0.527933 0.264433 0.218071
O21   O     O_R   0.261925 0.513062 0.278570 -0.427092
O22   O     O_R   0.361979 0.485629 0.266731 -0.368786
N44   N     N_R   0.757262 0.401113 0.662655 0.210810
O23   O     O_R   0.721984 0.425711 0.703613 -0.403805
O24   O     O_R   0.798812 0.435286 0.635907 -0.447807
N45   N     N_R   0.598887 0.757278 0.337371 0.210802
O25   O     O_R   0.564725 0.798833 0.364121 -0.447808
O26   O     O_R   0.574283 0.721998 0.296410 -0.403794
N46   N     N_R   0.472039 0.318719 0.735557 0.218058
O27   O     O_R   0.514349 0.361949 0.733270 -0.368863
O28   O     O_R   0.486898 0.261892 0.721413 -0.427114
N47   N     N_R   0.681107 0.471965 0.264305 0.218048
O29   O     O_R   0.737912 0.486864 0.278485 -0.427027
O30   O     O_R   0.637867 0.514276 0.266433 -0.368646
N48   N     N_R   0.242842 0.598853 0.662766 0.210819
O31   O     O_R   0.278189 0.574287 0.703694 -0.403669
O32   O     O_R   0.201289 0.564644 0.636059 -0.447925

loop_
_geom_bond_atom_site_label_1
_geom_bond_atom_site_label_2
_geom_bond_distance
_ccdc_geom_bond_type
N32   Ni7   1.856908 S    
C4    H4    1.080292 S    
C5    H5    1.080293 S    
C62   C126  1.416324 A    
C2    C98   1.392760 A    
C53   C69   1.412789 A    
C114  C130  1.419174 A    
C75   C171  1.404905 A    
C145  C161  1.393518 A    
N35   O6    1.301313 A    
C31   C110  1.394042 A    
C23   C111  1.392776 A    
N45   O25   1.301794 A    
N25   Ni6   1.856884 S    
C122  N42   1.435971 S    
C118  C134  1.419174 A    
C91   H43   1.084399 S    
C18   C106  1.392610 A    
C95   C175  1.395904 A    
C112  C141  1.473956 S    
N18   Ni6   1.857063 S    
C96   C176  1.401476 A    
N21   N32   1.383524 A    
C37   H69   1.080500 S    
N23   N30   1.383571 A    
C108  C137  1.473950 S    
C90   H42   1.084393 S    
N13   Ni1   1.857062 S    
C67   C76   1.403766 A    
C46   H78   1.079765 S    
C39   H71   1.079730 S    
C30   C111  1.394059 A    
C94   H46   1.084397 S    
N42   O19   1.301312 A    
C60   C124  1.401709 A    
C127  N47   1.435891 S    
C2    H2    1.073765 S    
N37   O10   1.300884 A    
C53   C117  1.401713 A    
N9    Ni2   1.856884 S    
C122  C138  1.419174 A    
C36   C51   1.408438 A    
C153  C169  1.393523 A    
C43   C60   1.407098 A    
C150  C166  1.379608 A    
N2    Ni2   1.857063 S    
N44   O23   1.300893 A    
C113  C129  1.420736 A    
C50   C114  1.416330 A    
C35   C52   1.407096 A    
N48   O31   1.300897 A    
C44   H76   1.080506 S    
C28   C105  1.376025 A    
N18   N27   1.383524 A    
C16   N16   1.324724 A    
C126  N46   1.435963 S    
H49   C145  1.082187 S    
C99   C130  1.483331 S    
N35   O5    1.301592 A    
H58   C154  1.077976 S    
N36   O7    1.300871 A    
N3    N10   1.383571 A    
C63   C79   1.414496 A    
C64   C80   1.412803 A    
C113  N33   1.436562 S    
C34   H66   1.079764 S    
C119  C135  1.419169 A    
C26   N26   1.341758 A    
C36   C92   1.396507 A    
C131  C147  1.400407 A    
N34   O3    1.301311 A    
C38   H70   1.079764 S    
C105  C144  1.473933 S    
C4    N4    1.345872 A    
H62   C158  1.077974 S    
N6    N15   1.383524 A    
C114  N34   1.435975 S    
N46   O27   1.301311 A    
C46   C86   1.384774 A    
C87   C167  1.395855 A    
C88   C168  1.401417 A    
C23   H23   1.073759 S    
C24   H24   1.080297 S    
C50   C66   1.414510 A    
C9    H9    1.077709 S    
C30   N30   1.341760 A    
C70   C77   1.403757 A    
C13   H13   1.077708 S    
C79   C175  1.404841 A    
C81   H33   1.083723 S    
C80   C176  1.406250 A    
N6    Ni1   1.856885 S    
C87   H39   1.084394 S    
C70   C166  1.404897 A    
C134  C150  1.400418 A    
C20   C108  1.394727 A    
C15   C102  1.394034 A    
N22   N31   1.383524 A    
N21   Ni6   1.856882 S    
C12   H12   1.077860 S    
N41   O17   1.301802 A    
C7    H7    1.073724 S    
C8    H8    1.080291 S    
C123  N43   1.435976 S    
C127  C143  1.419075 A    
C128  C144  1.420708 A    
C34   C90   1.384792 A    
C138  C154  1.400408 A    
C47   H79   1.079766 S    
C124  C140  1.420732 A    
C125  C141  1.420729 A    
C38   C94   1.384785 A    
C67   C163  1.404907 A    
C22   H22   1.073761 S    
C68   C75   1.403763 A    
C57   C121  1.401703 A    
C69   C78   1.403766 A    
N8    N13   1.383571 A    
C37   C54   1.408437 A    
N24   Ni7   1.856910 S    
C72   C79   1.403643 A    
C31   N31   1.341763 A    
C86   H38   1.084399 S    
C59   C75   1.414516 A    
N38   O11   1.301311 A    
C129  C145  1.404494 A    
C48   C63   1.408399 A    
N40   O16   1.301703 A    
C18   N18   1.332711 A    
N17   N28   1.383524 A    
C15   N15   1.341757 A    
C61   C77   1.412789 A    
C43   H75   1.079766 S    
C1    N1    1.345681 A    
C6    H6    1.073766 S    
C27   N27   1.341972 A    
C41   H73   1.080501 S    
C119  N39   1.435978 S    
C54   C70   1.414506 A    
N11   Ni3   1.856919 S    
C40   C55   1.408436 A    
C146  C162  1.379623 A    
N33   O2    1.301802 A    
C111  C142  1.483340 S    
C25   H25   1.077717 S    
C116  C132  1.420726 A    
C19   N19   1.332888 A    
H52   C148  1.082187 S    
H53   C149  1.082190 S    
C28   H28   1.077720 S    
C29   H29   1.077709 S    
C120  C136  1.420413 A    
H55   C151  1.077980 S    
C84   H36   1.083725 S    
C31   H31   1.073195 S    
C85   H37   1.083725 S    
C32   H32   1.077707 S    
C7    C103  1.392764 A    
C16   C101  1.376022 A    
C17   H17   1.080296 S    
N43   O22   1.301308 A    
C92   H44   1.083726 S    
C11   C98   1.394058 A    
N29   Ni5   1.857062 S    
C9    C100  1.376027 A    
C52   C68   1.412797 A    
C3    H3    1.073763 S    
C13   C104  1.376046 A    
C154  C170  1.379636 A    
C38   C53   1.407100 A    
C100  C129  1.473974 S    
C20   N20   1.345871 A    
C109  C140  1.473965 S    
C21   C109  1.394746 A    
C110  C139  1.483331 S    
C104  C133  1.473971 S    
C128  N48   1.436575 S    
C106  C143  1.483342 S    
C32   N32   1.324721 A    
C2    N2    1.332867 A    
C82   C162  1.395849 A    
H50   C146  1.077975 S    
C97   C136  1.473305 S    
C101  C132  1.473952 S    
C83   H35   1.084396 S    
C24   C112  1.394739 A    
C55   C119  1.416333 A    
C3    N3    1.332875 A    
C160  C176  1.393528 A    
C41   C58   1.408435 A    
C6    C102  1.392776 A    
C37   C93   1.396502 A    
C140  C156  1.404498 A    
C45   C62   1.408438 A    
C141  C157  1.404497 A    
C36   H68   1.080501 S    
N42   O20   1.301590 A    
C47   C64   1.407089 A    
C86   C166  1.395850 A    
C44   C84   1.396506 A    
C33   C50   1.408437 A    
N28   Ni8   1.856915 S    
C40   H72   1.080504 S    
H51   C147  1.077981 S    
H59   C155  1.077979 S    
C10   H10   1.073150 S    
C3    C99   1.392741 A    
C61   C125  1.401697 A    
C39   C56   1.407046 A    
C1    C97   1.394346 A    
C51   C115  1.416325 A    
C116  N36   1.436572 S    
C14   H14   1.073191 S    
N26   Ni5   1.856881 S    
C49   C113  1.401717 A    
C82   H34   1.084394 S    
N1    N12   1.383524 A    
N44   O24   1.301791 A    
C19   C107  1.392777 A    
N23   Ni8   1.856910 S    
C117  C133  1.420731 A    
C103  C134  1.483334 S    
C17   C105  1.394727 A    
N17   Ni5   1.857063 S    
N48   O32   1.301791 A    
C92   C172  1.401473 A    
N14   Ni2   1.857062 S    
C93   C173  1.401471 A    
C5    N5    1.345867 A    
N12   Ni4   1.856915 S    
C45   H77   1.080500 S    
C132  C148  1.404496 A    
C89   C169  1.401470 A    
N31   Ni8   1.856908 S    
C35   C91   1.384785 A    
N36   O8    1.301797 A    
C48   C88   1.396444 A    
C139  C155  1.400412 A    
C33   C89   1.396507 A    
C10   C99   1.394025 A    
C126  C142  1.419171 A    
C91   C171  1.395852 A    
C54   C118  1.416318 A    
N10   Ni1   1.856881 S    
C81   C161  1.401471 A    
N39   O13   1.301315 A    
C14   C103  1.394053 A    
C115  N35   1.435974 S    
C40   C96   1.396510 A    
C59   C123  1.416328 A    
C88   H40   1.083718 S    
N34   O4    1.301590 A    
N1    Ni1   1.857063 S    
N45   O26   1.300884 A    
C21   N21   1.345869 A    
C8    N8    1.345853 A    
H56   C152  1.082256 S    
C58   C74   1.414508 A    
N46   O28   1.301590 A    
C115  C131  1.419173 A    
C34   C49   1.407102 A    
C51   C67   1.414510 A    
C62   C78   1.414508 A    
C27   C106  1.394208 A    
C55   C71   1.414517 A    
C56   C72   1.412864 A    
C25   C108  1.376012 A    
C76   C172  1.406245 A    
C83   C163  1.395853 A    
C77   C173  1.406244 A    
N47   O29   1.301561 A    
C147  C163  1.379630 A    
C41   C81   1.396506 A    
C52   C116  1.401707 A    
N4    Ni4   1.856915 S    
C123  C139  1.419171 A    
C73   C169  1.406246 A    
C102  C131  1.483334 S    
C26   H26   1.073184 S    
C130  C146  1.400403 A    
C121  C137  1.420726 A    
C56   C120  1.401643 A    
C68   C164  1.406245 A    
C35   H67   1.079764 S    
C69   C165  1.406244 A    
C12   N12   1.324807 A    
C33   H65   1.080500 S    
C63   C127  1.416249 A    
C44   C59   1.408433 A    
C18   H18   1.073706 S    
C117  N37   1.436553 S    
C6    N6    1.332884 A    
N16   Ni3   1.856908 S    
C121  N41   1.436566 S    
C60   C76   1.412792 A    
C151  C167  1.379625 A    
C25   N25   1.324732 A    
C48   H80   1.080483 S    
C78   C174  1.404905 A    
N43   O21   1.301588 A    
C74   C170  1.404905 A    
C155  C171  1.379628 A    
C29   N29   1.324723 A    
C143  C159  1.400460 A    
N2    N11   1.383524 A    
N5    Ni2   1.856882 S    
N38   O12   1.301589 A    
C17   N17   1.345876 A    
C22   N22   1.332872 A    
N22   Ni5   1.856885 S    
C107  C138  1.483343 S    
C20   H20   1.080295 S    
C89   H41   1.083725 S    
C11   N11   1.341771 A    
C66   C73   1.403761 A    
C93   H45   1.083729 S    
C158  C174  1.379628 A    
N33   O1    1.300879 A    
C15   H15   1.073191 S    
C16   H16   1.077712 S    
N8    Ni3   1.856910 S    
C1    H1    1.080316 S    
C58   C122  1.416327 A    
C135  C151  1.400416 A    
N37   O9    1.301796 A    
N20   Ni8   1.856915 S    
C136  C152  1.404322 A    
C49   C65   1.412788 A    
C148  C164  1.393517 A    
C149  C165  1.393515 A    
C125  N45   1.436557 S    
C7    N7    1.332853 A    
C4    C100  1.394749 A    
C57   C73   1.412790 A    
C142  C158  1.400416 A    
C43   C83   1.384784 A    
C8    C104  1.394741 A    
C65   C74   1.403766 A    
C98   C135  1.483334 S    
N41   O18   1.300881 A    
C124  N44   1.436563 S    
C42   H74   1.079762 S    
C11   H11   1.073200 S    
C26   C107  1.394036 A    
N27   Ni7   1.856919 S    
C14   N14   1.341758 A    
C118  N38   1.435960 S    
C23   N23   1.332865 A    
C96   H48   1.083723 S    
C9    N9    1.324731 A    
N3    Ni3   1.856912 S    
C13   N13   1.324738 A    
N39   O14   1.301590 A    
C64   C128  1.401706 A    
C94   C174  1.395851 A    
C29   C112  1.376028 A    
H60   C156  1.082190 S    
N4    N9    1.383571 A    
C120  N40   1.436673 S    
C90   C170  1.395850 A    
N15   Ni4   1.856908 S    
N30   Ni6   1.857062 S    
C45   C85   1.396502 A    
N40   O15   1.301101 A    
H57   C153  1.082189 S    
C24   N24   1.345852 A    
H63   C159  1.077931 S    
C28   N28   1.324728 A    
C12   C97   1.376042 A    
C65   C161  1.406244 A    
H64   C160  1.082191 S    
C32   C109  1.376027 A    
C71   C80   1.403767 A    
N47   O30   1.301387 A    
C22   C110  1.392772 A    
C71   C167  1.404902 A    
N20   N25   1.383571 A    
N19   Ni7   1.856912 S    
C72   C168  1.406302 A    
C133  C149  1.404497 A    
N19   N26   1.383571 A    
N24   N29   1.383571 A    
C84   C164  1.401477 A    
H54   C150  1.077963 S    
C85   C165  1.401472 A    
H61   C157  1.082190 S    
C47   C87   1.384782 A    
C152  C168  1.393366 A    
C137  C153  1.404490 A    
C42   C82   1.384782 A    
C30   H30   1.073191 S    
C66   C162  1.404905 A    
C27   H27   1.073244 S    
C21   H21   1.080293 S    
C10   N10   1.341780 A    
C39   C95   1.384823 A    
N7    Ni4   1.856910 S    
C42   C57   1.407097 A    
C144  C160  1.404492 A    
C159  C175  1.379567 A    
C46   C61   1.407096 A    
C5    C101  1.394737 A    
C156  C172  1.393519 A    
C19   H19   1.073767 S    
C157  C173  1.393510 A    
N5    N16   1.383524 A    
C95   H47   1.084395 S    
N7    N14   1.383571 A    
