data_mof_unit_53946.cif
_audit_creation_date              2012-10-26T20:15:03-0400
_audit_creation_method            fapswitch 2.2
_symmetry_space_group_name_H-M    P1
_symmetry_Int_Tables_number       1
_space_group_crystal_system       monoclinic
_cell_length_a                    17.7958
_cell_length_b                    9.098276
_cell_length_c                    7.774311
_cell_angle_alpha                 90.0
_cell_angle_beta                  89.999937
_cell_angle_gamma                 90.0
_cell_volume                      1258.74724607

loop_
_atom_site_label
_atom_site_type_symbol
_atom_type_description
_atom_site_fract_x
_atom_site_fract_y
_atom_site_fract_z
_atom_type_partial_charge
C1    C     C_R   0.500000 0.219969 0.500000 0.546430
C2    C     C_R   0.846066 0.446965 0.354093 -0.010344
C3    C     C_R   0.767309 0.551005 0.644356 0.285595
C4    C     C_R   0.232691 0.551005 0.355644 0.285594
C5    C     C_R   0.232691 0.448996 0.644356 0.285594
C6    C     C_R   0.767309 0.448996 0.355644 0.285594
C7    C     C_R   0.727712 0.500000 0.500000 0.029435
C8    C     C_R   0.272287 0.500000 0.500000 0.029435
C9    C     C_R   0.885667 0.500001 0.500000 -0.053092
C10   C     C_R   0.114333 0.500001 0.500000 -0.053092
C11   C     C_1   0.966295 0.500001 0.500000 0.205323
C12   C     C_R   0.500000 0.780031 0.500000 0.546430
C13   C     C_1   0.033705 0.500001 0.500000 0.205324
C14   C     C_2   0.883812 0.612115 0.803107 0.320371
C15   C     C_2   0.116188 0.612115 0.196892 0.320371
C16   C     C_2   0.116188 0.387887 0.803108 0.320370
C17   C     C_2   0.883812 0.387887 0.196892 0.320370
C18   C     C_1   0.500000 0.065352 0.500000 -0.002923
C19   C     C_1   0.500000 0.934648 0.500000 -0.002923
C20   C     C_R   0.355153 0.500000 0.500000 0.600319
C21   C     C_R   0.644847 0.500000 0.500000 0.600319
C22   C     C_R   0.846065 0.553037 0.645906 -0.010344
C23   C     C_R   0.153935 0.553037 0.354094 -0.010344
C24   C     C_R   0.153934 0.446965 0.645907 -0.010344
Cu1   Cu    Cu3+1 0.500000 0.500000 0.669080 1.170330
Cu2   Cu    Cu3+1 0.500000 0.500000 0.330920 1.170330
F1    F     F_    0.729000 0.603652 0.782693 -0.606388
F2    F     F_    0.271000 0.603652 0.217307 -0.606388
F3    F     F_    0.271000 0.396349 0.782693 -0.606388
F4    F     F_    0.729000 0.396349 0.217307 -0.606388
H1    H     H_    0.851123 0.633421 0.918286 0.181157
H2    H     H_    0.148877 0.633421 0.081713 0.181157
H3    H     H_    0.148877 0.366579 0.918287 0.181157
H4    H     H_    0.851123 0.366579 0.081713 0.181157
N1    N     N_1   0.500000 0.500000 0.076820 -0.034007
N2    N     N_1   0.500000 0.500000 0.923180 -0.034007
O1    O     O_R   0.500000 0.288390 0.642760 -0.501500
O2    O     O_2   0.049199 0.640532 0.193161 -0.449410
O3    O     O_2   0.049199 0.359472 0.806841 -0.449411
O4    O     O_2   0.950801 0.359471 0.193159 -0.449411
O5    O     O_R   0.500000 0.711610 0.357240 -0.501499
O6    O     O_R   0.500000 0.711610 0.642760 -0.501499
O7    O     O_R   0.500000 0.288390 0.357240 -0.501500
O8    O     O_R   0.391250 0.500000 0.642840 -0.450387
O9    O     O_R   0.608750 0.500000 0.357160 -0.450388
O10   O     O_R   0.608750 0.500000 0.642840 -0.450388
O11   O     O_R   0.391250 0.500000 0.357160 -0.450387
O12   O     O_2   0.950800 0.640533 0.806839 -0.449410

loop_
_geom_bond_atom_site_label_1
_geom_bond_atom_site_label_2
_ccdc_geom_bond_type
Cu1   O6    S    
C5    C8    A    
C14   O12   D    
C10   C13   S    
C15   O2    D    
C6    C7    A    
C10   C23   A    
C9    C11   S    
C21   O9    A    
N1    N2    T    
C1    O1    A    
C14   H1    S    
C4    C8    A    
Cu1   O1    S    
C14   C22   S    
C15   C23   S    
C15   H2    S    
C16   C24   S    
C8    C20   S    
C2    C17   S    
C11   C13   T    
C1    C18   S    
C2    C6    A    
C5    C24   A    
Cu2   O11   S    
Cu1   O8    S    
C3    F1    S    
C6    F4    S    
Cu2   O7    S    
C20   O8    A    
C3    C7    A    
C16   H3    S    
C9    C22   A    
C20   O11   A    
C17   H4    S    
Cu1   N2    S    
C21   O10   A    
C5    F3    S    
Cu2   N1    S    
C12   C19   S    
C12   O5    A    
C18   C19   T    
C4    F2    S    
C4    C23   A    
C3    C22   A    
C12   O6    A    
C16   O3    D    
Cu2   O9    S    
C10   C24   A    
Cu1   Cu2   S    
C7    C21   S    
C2    C9    A    
Cu1   O10   S    
C1    O7    A    
Cu2   O5    S    
C17   O4    D    
