data_mof_unit_50440.cif
_audit_creation_date              2012-12-10T17:47:13-0500
_audit_creation_method            fapswitch 2.2
_symmetry_space_group_name_H-M    P1
_symmetry_Int_Tables_number       1
_space_group_crystal_system       triclinic
_cell_length_a                    11.720128
_cell_length_b                    14.80213
_cell_length_c                    14.847424
_cell_angle_alpha                 64.393785
_cell_angle_beta                  104.356673
_cell_angle_gamma                 103.949014
_cell_volume                      2223.67068418

loop_
_atom_site_label
_atom_site_type_symbol
_atom_type_description
_atom_site_fract_x
_atom_site_fract_y
_atom_site_fract_z
_atom_type_partial_charge
C1    C     C_R   0.484324 0.120388 0.311825 0.845655
C2    C     C_R   0.512671 0.880457 0.687165 0.869260
C3    C     C_R   0.475668 0.324678 0.996853 0.005718
C4    C     C_R   0.408975 0.664872 0.967621 0.007241
C5    C     C_R   0.435453 0.459979 0.032009 0.036280
C6    C     C_R   0.463848 0.531879 0.937129 0.037754
C7    C     C_R   0.480709 0.495993 0.868339 -0.164504
C8    C     C_R   0.378620 0.489714 0.085712 -0.167852
C9    C     C_R   0.482294 0.393535 0.896165 0.145268
C10   C     C_R   0.364104 0.590099 0.054122 0.144120
C11   C     C_R   0.728180 0.307205 0.629422 -0.225176
C12   C     C_R   0.271595 0.691323 0.372399 -0.213775
C13   C     C_R   0.680396 0.214296 0.624597 0.368295
C14   C     C_R   0.318536 0.784487 0.376951 0.372950
C15   C     C_R   0.509740 0.281037 0.514025 0.097590
C16   C     C_R   0.491883 0.719983 0.484328 0.078698
C17   C     C_R   0.546541 0.373993 0.528178 -0.017435
C18   C     C_R   0.455000 0.626248 0.471254 -0.018246
C19   C     C_R   0.665082 0.388878 0.577132 -0.020271
C20   C     C_R   0.335878 0.610337 0.423812 -0.016645
C21   C     C_R   0.474061 0.452606 0.494279 -0.096538
C22   C     C_R   0.527441 0.547438 0.505405 -0.100104
C23   C     C_R   0.283926 0.999464 0.499834 0.820615
C24   C     C_R   0.716091 0.000469 0.500290 0.821847
C25   C     C_R   0.652134 0.561011 0.545318 0.462793
C26   C     C_R   0.348768 0.437611 0.456937 0.473231
C27   C     C_R   0.719950 0.484290 0.574293 0.112451
C28   C     C_R   0.280837 0.514185 0.428624 0.134721
C29   C     C_1   0.161887 0.998601 0.499739 -0.118433
C30   C     C_1   0.838189 0.001192 0.500681 -0.127596
C31   C     C_1   0.059704 0.999216 0.500058 0.047340
C32   C     C_1   0.940410 0.000517 0.500533 0.044086
C33   C     C_R   0.479921 0.189533 0.202807 -0.203041
C34   C     C_R   0.494251 0.813339 0.791497 -0.188654
C35   C     C_R   0.488794 0.223218 0.028883 -0.165837
C36   C     C_R   0.397846 0.767059 0.935457 -0.166727
C37   C     C_R   0.489666 0.155677 0.129597 0.115085
C38   C     C_R   0.435175 0.840328 0.846157 0.091453
C39   C     C_R   0.471517 0.293276 0.171620 0.391616
C40   C     C_R   0.519305 0.714107 0.830283 0.410170
C41   C     C_R   0.458031 0.358848 0.067261 -0.031959
C42   C     C_R   0.463999 0.636471 0.910709 -0.035536
Cu1   Cu    Cu3+1 0.469550 0.918260 0.475690 1.010959
Cu2   Cu    Cu3+1 0.530450 0.081740 0.524310 1.008474
H1    H     H_    0.501374 0.195293 0.976340 0.213051
H2    H     H_    0.354985 0.790675 0.976490 0.213081
H3    H     H_    0.484464 0.545668 0.790023 0.200540
H4    H     H_    0.337613 0.434112 0.149139 0.191806
H5    H     H_    0.569655 0.734820 0.533467 0.199470
H6    H     H_    0.433793 0.268200 0.462281 0.198329
H7    H     H_    0.813487 0.313736 0.676899 0.195214
H8    H     H_    0.185568 0.683839 0.326135 0.200693
N1    N     N_R   0.576230 0.204580 0.560790 -0.220729
N2    N     N_R   0.423770 0.795420 0.439210 -0.222003
O1    O     O_R   0.459870 0.022090 0.338120 -0.542895
O2    O     O_R   0.540130 0.977910 0.661880 -0.545810
O3    O     O_R   0.511290 0.160150 0.379180 -0.556183
O4    O     O_R   0.488710 0.839850 0.620820 -0.569435
O5    O     O_R   0.311490 0.930960 0.479480 -0.565109
O6    O     O_R   0.688510 0.069040 0.520520 -0.567641
O7    O     O_R   0.362910 0.069020 0.520540 -0.566694
O8    O     O_R   0.637090 0.930980 0.479460 -0.570142
I1    I     I_    0.499214 0.351147 0.780892 -0.362021
I2    I     I_    0.273622 0.621139 0.142957 -0.411195
O9    O     O_3   0.712712 0.651698 0.549795 -0.577452
C43   C     C_3   0.733815 0.641926 0.651580 -0.282148
H9    H     H_    0.802529 0.593382 0.699965 0.195464
H10   H     H_    0.650834 0.611187 0.685585 0.184186
H11   H     H_    0.766969 0.718393 0.652444 0.204147
O10   O     O_3   0.287895 0.344839 0.457658 -0.564010
C44   C     C_3   0.258856 0.350362 0.357004 -0.296675
H12   H     H_    0.184685 0.393741 0.312059 0.211638
H13   H     H_    0.229675 0.272323 0.359512 0.196891
H14   H     H_    0.337282 0.384118 0.317305 0.177186
O11   O     O_3   0.604226 0.695739 0.792732 -0.618327
C45   C     C_3   0.714747 0.703384 0.856127 -0.318933
H15   H     H_    0.711768 0.647214 0.935470 0.181031
H16   H     H_    0.743287 0.781569 0.854047 0.188138
H17   H     H_    0.783577 0.686556 0.828686 0.183897
O12   O     O_3   0.483371 0.331599 0.244196 -0.611435
C46   C     C_3   0.602241 0.378967 0.259984 -0.250783
H18   H     H_    0.624991 0.446247 0.191075 0.165923
H19   H     H_    0.666535 0.324987 0.284909 0.173500
H20   H     H_    0.612329 0.405922 0.320991 0.187184
I3    I     I_    0.391088 0.987286 0.799027 -0.228753
I4    I     I_    0.524131 0.008765 0.161580 -0.244533
I5    I     I_    0.911394 0.520506 0.597681 -0.272302
I6    I     I_    0.089596 0.476725 0.412279 -0.269097
I7    I     I_    0.214855 0.901768 0.283534 -0.243571
I8    I     I_    0.781009 0.095378 0.719876 -0.258833

loop_
_geom_bond_atom_site_label_1
_geom_bond_atom_site_label_2
_ccdc_geom_bond_type
C43   H10   S    
C21   C26   A    
C4    C36   A    
C13   I8    S    
C45   H17   S    
Cu1   Cu2   S    
C9    I1    S    
C46   H18   S    
C1    C33   S    
C39   C41   A    
C23   O5    A    
C11   C19   A    
C33   C39   A    
C34   C40   A    
C23   C29   S    
C35   C37   A    
C45   H16   S    
C5    C6    A    
C43   H11   S    
C7    C9    A    
C15   H6    S    
Cu1   O4    S    
C46   H19   S    
Cu2   N1    S    
C22   C25   A    
C28   I6    S    
C36   H2    S    
O10   C44   S    
C19   C27   A    
Cu1   O5    S    
C2    C34   S    
C40   C42   A    
C43   H9    S    
C34   C38   A    
C21   C22   A    
C12   H8    S    
C13   N1    A    
C38   I3    S    
C37   I4    S    
C25   O9    S    
C45   H15   S    
C44   H13   S    
C20   C28   A    
C33   C37   A    
C7    H3    S    
O11   C45   S    
C8    H4    S    
C14   I7    S    
C3    C9    A    
C1    O3    A    
C5    C8    A    
Cu2   O2    S    
Cu1   N2    S    
C31   C32   S    
C3    C35   A    
Cu2   O3    S    
C24   O6    A    
C12   C20   A    
C16   C18   A    
C16   H5    S    
C27   I5    S    
Cu1   O1    S    
C14   N2    A    
C12   C14   A    
C26   O10   S    
C4    C10   A    
C35   H1    S    
C15   N1    A    
C46   H20   S    
C15   C17   A    
C5    C41   A    
C3    C41   A    
C24   O8    A    
C18   C22   A    
C10   I2    S    
O12   C46   S    
C44   H14   S    
C2    O4    A    
C6    C7    A    
Cu2   O7    S    
C25   C27   A    
C26   C28   A    
C40   O11   S    
C39   O12   S    
C16   N2    A    
C36   C38   A    
C1    O1    A    
C44   H12   S    
C29   C31   T    
C2    O2    A    
C30   C32   T    
C11   C13   A    
C4    C42   A    
Cu2   O6    S    
C17   C19   A    
C18   C20   A    
C24   C30   S    
C11   H7    S    
C23   O7    A    
C8    C10   A    
O9    C43   S    
C6    C42   A    
Cu1   O8    S    
C17   C21   A    
