data_mof_unit_31696.cif
_audit_creation_date              2012-10-26T19:58:21-0400
_audit_creation_method            fapswitch 2.2
_symmetry_space_group_name_H-M    P1
_symmetry_Int_Tables_number       1
_space_group_crystal_system       triclinic
_cell_length_a                    7.424173
_cell_length_b                    8.694437
_cell_length_c                    13.404535
_cell_angle_alpha                 94.024361
_cell_angle_beta                  77.113851
_cell_angle_gamma                 103.169732
_cell_volume                      821.103718557

loop_
_atom_site_label
_atom_site_type_symbol
_atom_type_description
_atom_site_fract_x
_atom_site_fract_y
_atom_site_fract_z
_atom_type_partial_charge
C1    C     C_R   0.545257 0.800224 0.503181 0.543331
C2    C     C_R   0.332439 0.489419 0.808211 -0.022564
C3    C     C_2   0.570713 0.968095 0.504875 -0.153685
C4    C     C_R   0.398008 0.495439 0.694950 0.531429
C5    C     C_2   0.428927 0.031906 0.495790 -0.155176
C6    C     C_R   0.454570 0.199779 0.497125 0.553057
C7    C     C_R   0.602178 0.510878 0.305780 0.541670
C8    C     C_R   0.879205 0.677525 0.051974 -0.130101
C9    C     C_R   0.664148 0.535402 0.195306 -0.008203
C10   C     C_R   0.145388 0.409804 0.853191 -0.027491
C11   C     C_R   0.096134 0.380166 0.957445 -0.139611
C12   C     C_R   0.417424 0.501253 0.976364 0.031694
C13   C     C_R   0.229795 0.421407 0.017768 -0.138677
C14   C     C_1   0.999679 0.353710 0.795316 0.215257
C15   C     C_R   0.463038 0.548317 0.872833 0.021277
C16   C     C_R   0.560020 0.539438 0.035326 0.032923
C17   C     C_R   0.738820 0.636730 0.993806 0.047713
C18   C     C_R   0.773330 0.696556 0.896086 -0.131401
C19   C     C_R   0.636822 0.655532 0.837293 -0.105949
C20   C     C_R   0.529957 0.484548 0.134907 -0.131232
C21   C     C_R   0.841434 0.628260 0.152766 -0.142085
Cu1   Cu    Cu3+1 0.321300 0.483160 0.488710 0.966590
Cu2   Cu    Cu3+1 0.678700 0.516840 0.511290 0.965531
H1    H     H_    0.946974 0.668562 0.198570 0.132534
H2    H     H_    0.667996 0.713387 0.764781 0.140030
H3    H     H_    0.707332 0.039526 0.513517 0.140847
H4    H     H_    0.292279 0.960473 0.487207 0.133020
H5    H     H_    0.010620 0.617201 0.579532 0.239808
H6    H     H_    0.989237 0.382600 0.420614 0.235771
H7    H     H_    0.906272 0.776495 0.865032 0.108439
H8    H     H_    0.016023 0.751785 0.020533 0.116943
H9    H     H_    0.400738 0.404401 0.168941 0.115308
H10   H     H_    0.179014 0.393430 0.097552 0.107592
H11   H     H_    0.953009 0.320918 0.992473 0.129135
N1    N     N_2   0.947230 0.542220 0.528320 -0.245610
N2    N     N_2   0.052770 0.457780 0.471680 -0.250198
N3    N     N_1   0.882378 0.308781 0.749402 -0.271811
O1    O     O_R   0.383920 0.714220 0.492660 -0.507433
O2    O     O_R   0.685730 0.742660 0.511730 -0.505326
O3    O     O_R   0.275440 0.478800 0.636790 -0.490227
O4    O     O_R   0.577250 0.507240 0.655860 -0.489693
O5    O     O_R   0.314270 0.257340 0.488270 -0.494019
O6    O     O_R   0.616080 0.285780 0.507340 -0.495633
O7    O     O_R   0.422750 0.492760 0.344140 -0.504544
O8    O     O_R   0.724560 0.521200 0.363210 -0.509233

loop_
_geom_bond_atom_site_label_1
_geom_bond_atom_site_label_2
_ccdc_geom_bond_type
C2    C4    S    
C13   H10   S    
C18   H7    S    
Cu1   N2    S    
C9    C20   A    
C8    C17   A    
Cu2   O4    S    
C12   C15   A    
C16   C20   A    
Cu1   O3    S    
C8    C21   A    
C10   C11   A    
C7    O7    A    
C14   N3    T    
C15   C19   A    
C2    C15   A    
C11   C13   A    
H6    N2    S    
C9    C21   A    
Cu1   O5    S    
C12   C16   A    
C1    O1    A    
Cu2   O8    S    
C7    O8    A    
C17   C18   A    
Cu2   N1    S    
C6    O6    A    
C11   H11   S    
C6    O5    A    
C5    C6    S    
C19   H2    S    
Cu2   O2    S    
C4    O4    A    
C1    O2    A    
Cu1   O1    S    
C4    O3    A    
Cu2   O6    S    
C12   C13   A    
C18   C19   A    
C20   H9    S    
C21   H1    S    
C7    C9    S    
Cu1   Cu2   S    
C3    C5    D    
C5    H4    S    
C8    H8    S    
C3    H3    S    
Cu1   O7    S    
N1    N2    D    
H5    N1    S    
C10   C14   S    
C16   C17   A    
C1    C3    S    
C2    C10   A    
