data_mof_unit_51655.cif
_audit_creation_date              2013-03-05T15:40:18-0500
_audit_creation_method            fapswitch 2.2
_symmetry_space_group_name_H-M    P1
_symmetry_Int_Tables_number       1
_space_group_crystal_system       triclinic
_cell_length_a                    28.179896
_cell_length_b                    18.538591
_cell_length_c                    17.081466
_cell_angle_alpha                 89.88486
_cell_angle_beta                  60.673163
_cell_angle_gamma                 89.826186
_cell_volume                      7779.93449437

loop_
_atom_site_label
_atom_site_type_symbol
_atom_site_description
_atom_site_fract_x
_atom_site_fract_y
_atom_site_fract_z
_atom_type_partial_charge
O1    O     O_R   0.746490 0.236330 0.638080 -0.628401
O2    O     O_R   0.253510 0.763670 0.361920 -0.650732
O3    O     O_R   0.253510 0.236330 0.361920 -0.633293
O4    O     O_R   0.746490 0.763670 0.638080 -0.625939
O5    O     O_R   0.246490 0.736330 0.638080 -0.630333
O6    O     O_R   0.753510 0.263670 0.361920 -0.628226
O7    O     O_R   0.753510 0.736330 0.361920 -0.640221
O8    O     O_R   0.246490 0.263670 0.638080 -0.652297
O9    O     O_R   0.674170 0.186160 0.516270 -0.647179
O10   O     O_R   0.325830 0.813840 0.483730 -0.645192
O11   O     O_R   0.325830 0.186160 0.483730 -0.649066
O12   O     O_R   0.674170 0.813840 0.516270 -0.648795
O13   O     O_R   0.174170 0.686160 0.516270 -0.654308
O14   O     O_R   0.825830 0.313840 0.483730 -0.657756
O15   O     O_R   0.825830 0.686160 0.483730 -0.650269
O16   O     O_R   0.174170 0.313840 0.516270 -0.657601
O17   O     O_R   0.739960 0.127620 0.525000 -0.555389
O18   O     O_R   0.260040 0.872380 0.475000 -0.556202
O19   O     O_R   0.260040 0.127620 0.475000 -0.557600
O20   O     O_R   0.739960 0.872380 0.525000 -0.560145
O21   O     O_R   0.239960 0.627620 0.525000 -0.562063
O22   O     O_R   0.760040 0.372380 0.475000 -0.555246
O23   O     O_R   0.760040 0.627620 0.475000 -0.549735
O24   O     O_R   0.239960 0.372380 0.525000 -0.554977
O25   O     O_R   0.680700 0.294870 0.629350 -0.637354
O26   O     O_R   0.319300 0.705130 0.370650 -0.636743
O27   O     O_R   0.319300 0.294870 0.370650 -0.623753
O28   O     O_R   0.680700 0.705130 0.629350 -0.624897
O29   O     O_R   0.180700 0.794870 0.629350 -0.612298
O30   O     O_R   0.819300 0.205130 0.370650 -0.637516
O31   O     O_R   0.819300 0.794870 0.370650 -0.641599
O32   O     O_R   0.180700 0.205130 0.629350 -0.628730
C1    C     C_R   0.701733 0.268640 0.675879 0.884118
C2    C     C_R   0.298184 0.731204 0.324170 0.862650
C3    C     C_R   0.298229 0.268724 0.324188 0.900996
C4    C     C_R   0.701743 0.731334 0.675827 0.901140
C5    C     C_R   0.201737 0.768653 0.675872 0.909996
C6    C     C_R   0.798268 0.231362 0.324119 0.884377
C7    C     C_R   0.798152 0.768863 0.324232 0.865385
C8    C     C_R   0.201846 0.231144 0.675769 0.865506
C9    C     C_R   0.690555 0.130177 0.538088 0.912179
C10   C     C_R   0.306729 0.871992 0.471836 0.905892
C11   C     C_R   0.297545 0.129808 0.498294 0.926988
C12   C     C_R   0.695327 0.872476 0.521565 0.916937
C13   C     C_R   0.195297 0.627875 0.521555 0.924897
C14   C     C_R   0.808845 0.370528 0.464120 0.915606
C15   C     C_R   0.809454 0.629707 0.462391 0.911276
C16   C     C_R   0.191037 0.370546 0.534732 0.919550
Zn1   Zn    Zn3+2 0.792340 0.208750 0.507670 1.004649
Zn2   Zn    Zn3+2 0.207660 0.791250 0.492330 1.013687
Zn3   Zn    Zn3+2 0.207660 0.208750 0.492330 1.012724
Zn4   Zn    Zn3+2 0.792340 0.791250 0.507670 1.009886
Zn5   Zn    Zn3+2 0.292340 0.708750 0.507670 1.012854
Zn6   Zn    Zn3+2 0.707660 0.291250 0.492330 1.016853
Zn7   Zn    Zn3+2 0.707660 0.708750 0.492330 1.017090
Zn8   Zn    Zn3+2 0.292340 0.291250 0.507670 1.006891
H1    H     H_    0.024504 0.255597 0.544674 0.142027
H2    H     H_    0.000446 0.737501 0.378198 0.140431
H3    H     H_    0.958159 0.253051 0.490997 0.141723
H4    H     H_    0.084378 0.732846 0.388325 0.139003
H5    H     H_    0.588936 0.787984 0.367146 0.138898
H6    H     H_    0.409853 0.227597 0.637997 0.138576
H7    H     H_    0.505022 0.786584 0.357338 0.141305
H8    H     H_    0.494039 0.229189 0.646775 0.141165
C17   C     C_R   0.522269 0.125116 0.583122 0.108631
C18   C     C_R   0.474726 0.888298 0.426449 0.111672
C19   C     C_R   0.425728 0.123555 0.572237 0.108328
C20   C     C_R   0.571326 0.889670 0.438437 0.108138
C21   C     C_R   0.073121 0.622261 0.435521 0.103112
C22   C     C_R   0.960014 0.368552 0.469708 0.097903
C23   C     C_R   0.978027 0.626540 0.419357 0.105633
C24   C     C_R   0.039038 0.370570 0.524159 0.101756
C25   C     C_R   0.485605 0.183124 0.616612 -0.205718
C26   C     C_R   0.512708 0.831857 0.389558 -0.205244
C27   C     C_R   0.437575 0.182195 0.611609 -0.210086
C28   C     C_R   0.560674 0.832686 0.395144 -0.208618
C29   C     C_R   0.059163 0.685101 0.404985 -0.209019
C30   C     C_R   0.976163 0.304055 0.493168 -0.205873
C31   C     C_R   0.011268 0.687774 0.399089 -0.206085
C32   C     C_R   0.013793 0.305527 0.523991 -0.207091
C33   C     C_R   0.462072 0.064940 0.538636 0.027389
C34   C     C_R   0.534312 0.947394 0.473449 0.028496
C35   C     C_R   0.510240 0.065545 0.544655 0.025604
C36   C     C_R   0.486162 0.946878 0.467059 0.026412
C37   C     C_R   0.993983 0.562421 0.444169 0.028817
C38   C     C_R   0.025288 0.434314 0.495201 0.027276
C39   C     C_R   0.040070 0.561189 0.456320 0.030338
C40   C     C_R   0.983173 0.433971 0.473563 0.028569
C41   C     C_R   0.965326 0.498657 0.453103 -0.038746
C42   C     C_R   0.053996 0.498044 0.486564 -0.037643
C43   C     C_R   0.449738 0.005214 0.500659 -0.038699
C44   C     C_R   0.545874 0.006138 0.513566 -0.037693
C45   C     C_R   0.893975 0.433398 0.441722 0.018359
C46   C     C_R   0.129005 0.560648 0.490151 0.014655
C47   C     C_R   0.110978 0.434555 0.536330 0.017757
C48   C     C_R   0.897012 0.565223 0.432368 0.020061
C49   C     C_R   0.386425 0.942575 0.463567 0.016813
C50   C     C_R   0.606704 0.066439 0.556650 0.018357
C51   C     C_R   0.626707 0.943803 0.498144 0.012526
C52   C     C_R   0.366555 0.064588 0.524599 0.017404
C53   C     C_R   0.843805 0.434668 0.439966 -0.237394
C54   C     C_R   0.167554 0.562098 0.522150 -0.237327
C55   C     C_R   0.157332 0.435060 0.549296 -0.212735
C56   C     C_R   0.845041 0.565103 0.436366 -0.229632
C57   C     C_R   0.332421 0.939229 0.475022 -0.239905
C58   C     C_R   0.656439 0.065779 0.558595 -0.215938
C59   C     C_R   0.667166 0.939480 0.525795 -0.243041
C60   C     C_R   0.320655 0.064366 0.511968 -0.220700
C61   C     C_R   0.823257 0.499947 0.427523 0.231770
C62   C     C_R   0.178340 0.499974 0.557390 0.222783
C63   C     C_R   0.298810 0.000219 0.504997 0.229490
C64   C     C_R   0.679513 0.000553 0.560674 0.232570
C65   C     C_R   0.918761 0.499168 0.441999 0.065030
C66   C     C_R   0.097554 0.498040 0.505478 0.064949
C67   C     C_R   0.400945 0.003970 0.496407 0.069704
C68   C     C_R   0.592813 0.005241 0.523379 0.067283
C69   C     C_R   0.078572 0.372462 0.550834 -0.204446
C70   C     C_R   0.929425 0.628054 0.414949 -0.211490
C71   C     C_R   0.920986 0.368670 0.442494 -0.207842
C72   C     C_R   0.119495 0.619521 0.445598 -0.215625
C73   C     C_R   0.617818 0.889106 0.448661 -0.217781
C74   C     C_R   0.378171 0.122769 0.565834 -0.208206
C75   C     C_R   0.425376 0.886581 0.424387 -0.219749
C76   C     C_R   0.570556 0.125658 0.587849 -0.205132
H9    H     H_    0.082824 0.325151 0.583950 0.172975
H10   H     H_    0.919011 0.677593 0.393410 0.169934
H11   H     H_    0.913871 0.317430 0.420538 0.178577
H12   H     H_    0.147563 0.663752 0.416786 0.176135
H13   H     H_    0.646888 0.846167 0.416151 0.170785
H14   H     H_    0.349440 0.166642 0.596235 0.162117
H15   H     H_    0.418277 0.841822 0.390973 0.164436
H16   H     H_    0.578495 0.170973 0.619679 0.160719
H17   H     H_    0.649174 0.247774 0.083534 0.134412
H18   H     H_    0.350320 0.751633 0.917112 0.134390
H19   H     H_    0.351481 0.247993 0.915753 0.131384
H20   H     H_    0.648528 0.751921 0.084336 0.130827
H21   H     H_    0.148589 0.746610 0.083853 0.133050
H22   H     H_    0.850904 0.252309 0.916375 0.133777
H23   H     H_    0.850295 0.749991 0.916717 0.135005
H24   H     H_    0.149709 0.250154 0.083125 0.133448
C77   C     C_R   0.720615 0.264088 0.953508 0.114014
C78   C     C_R   0.278834 0.734907 0.046972 0.113583
C79   C     C_R   0.279932 0.263730 0.045869 0.112736
C80   C     C_R   0.720038 0.736378 0.954133 0.114168
C81   C     C_R   0.220103 0.763247 0.953976 0.114830
C82   C     C_R   0.779459 0.236007 0.046407 0.114028
C83   C     C_R   0.778814 0.765614 0.046904 0.115572
C84   C     C_R   0.221230 0.234325 0.953036 0.116983
C85   C     C_R   0.777893 0.264505 0.907836 -0.169275
C86   C     C_R   0.221552 0.734336 0.092557 -0.172854
C87   C     C_R   0.222636 0.263425 0.091527 -0.171816
C88   C     C_R   0.777334 0.736756 0.908408 -0.168890
C89   C     C_R   0.277370 0.763789 0.908434 -0.168000
C90   C     C_R   0.722184 0.235584 0.092072 -0.169219
C91   C     C_R   0.721502 0.765274 0.092672 -0.170109
C92   C     C_R   0.278541 0.234610 0.907326 -0.169117
H25   H     H_    0.800450 0.277046 0.836886 0.134851
H26   H     H_    0.198965 0.721619 0.163467 0.129943
H27   H     H_    0.199946 0.275909 0.162465 0.135080
H28   H     H_    0.800001 0.724384 0.837440 0.135077
H29   H     H_    0.299965 0.776562 0.837553 0.136070
H30   H     H_    0.699627 0.223034 0.163018 0.135041
H31   H     H_    0.698846 0.777597 0.163668 0.126562
H32   H     H_    0.301220 0.222181 0.836357 0.127554
C93   C     C_R   0.806868 0.250670 0.953607 -0.168698
C94   C     C_R   0.192626 0.748314 0.046722 -0.170702
C95   C     C_R   0.193755 0.248941 0.045827 -0.170659
C96   C     C_R   0.806250 0.751153 0.954075 -0.167599
C97   C     C_R   0.306286 0.749835 0.954248 -0.172944
C98   C     C_R   0.693209 0.249420 0.046303 -0.168596
C99   C     C_R   0.692576 0.750851 0.046985 -0.168670
C100  C     C_R   0.307433 0.249116 0.953048 -0.172276
C101  C     C_R   0.643347 0.325902 0.946049 -0.200770
C102  C     C_R   0.356265 0.673447 0.054272 -0.200257
C103  C     C_R   0.356884 0.325969 0.053705 -0.200462
C104  C     C_R   0.643085 0.674107 0.946310 -0.201153
C105  C     C_R   0.143036 0.825432 0.946321 -0.202155
C106  C     C_R   0.856703 0.174163 0.053902 -0.201544
C107  C     C_R   0.856138 0.827143 0.054363 -0.199844
C108  C     C_R   0.143933 0.172742 0.945567 -0.201248
H33   H     H_    0.630159 0.347070 0.012657 0.151944
H34   H     H_    0.369459 0.652263 0.987668 0.151802
H35   H     H_    0.370189 0.347005 0.986949 0.150278
H36   H     H_    0.629811 0.653029 0.013037 0.150545
H37   H     H_    0.129736 0.846386 0.013061 0.149995
H38   H     H_    0.869907 0.153018 0.987278 0.151176
H39   H     H_    0.869312 0.848443 0.987768 0.151651
H40   H     H_    0.130726 0.151506 0.012202 0.150730
C109  C     C_R   0.616263 0.346756 0.898566 -0.066662
C110  C     C_R   0.383529 0.652934 0.101582 -0.067278
C111  C     C_R   0.383723 0.346961 0.101488 -0.067239
C112  C     C_R   0.616248 0.653096 0.898530 -0.067649
C113  C     C_R   0.116185 0.846683 0.898606 -0.069088
C114  C     C_R   0.883753 0.153258 0.101421 -0.065738
C115  C     C_R   0.883392 0.847410 0.101737 -0.066162
C116  C     C_R   0.116697 0.152443 0.898176 -0.070562
C117  C     C_R   0.632863 0.321813 0.813464 -0.260687
C118  C     C_R   0.366961 0.677951 0.186626 -0.261755
C119  C     C_R   0.366962 0.322149 0.186736 -0.257085
C120  C     C_R   0.632987 0.677941 0.813298 -0.255527
C121  C     C_R   0.132941 0.822030 0.813338 -0.231520
C122  C     C_R   0.867130 0.178163 0.186546 -0.259128
C123  C     C_R   0.866820 0.822250 0.186766 -0.260441
C124  C     C_R   0.133312 0.177511 0.813105 -0.232508
H41   H     H_    0.611768 0.338582 0.777698 0.177622
H42   H     H_    0.388216 0.661480 0.222240 0.177540
H43   H     H_    0.387841 0.339030 0.222686 0.179850
H44   H     H_    0.612120 0.661031 0.777339 0.180253
H45   H     H_    0.112039 0.839147 0.777389 0.184391
H46   H     H_    0.888197 0.161347 0.222338 0.177907
H47   H     H_    0.888021 0.838548 0.222411 0.177604
H48   H     H_    0.112140 0.161160 0.777431 0.183425
C125  C     C_R   0.679306 0.281110 0.770990 -0.043738
C126  C     C_R   0.320410 0.718416 0.229201 -0.042485
C127  C     C_R   0.320704 0.281319 0.229023 -0.053496
C128  C     C_R   0.679226 0.718814 0.771020 -0.050483
C129  C     C_R   0.179260 0.781090 0.770999 -0.050810
C130  C     C_R   0.820704 0.218898 0.229000 -0.046072
C131  C     C_R   0.820382 0.781796 0.229239 -0.038311
C132  C     C_R   0.179704 0.218044 0.770682 -0.032636
C133  C     C_R   0.707473 0.259318 0.816901 -0.175906
C134  C     C_R   0.292002 0.739774 0.183526 -0.198867
C135  C     C_R   0.292818 0.259409 0.182845 -0.191978
C136  C     C_R   0.707084 0.740785 0.817221 -0.178272
C137  C     C_R   0.207220 0.758941 0.817110 -0.178714
C138  C     C_R   0.792568 0.240738 0.183054 -0.178222
C139  C     C_R   0.792076 0.760607 0.183478 -0.182964
C140  C     C_R   0.208020 0.239223 0.816426 -0.185526
H49   H     H_    0.743893 0.226561 0.783145 0.158101
H50   H     H_    0.255463 0.772298 0.217387 0.150922
H51   H     H_    0.256572 0.226533 0.216499 0.153831
H52   H     H_    0.743300 0.773717 0.783584 0.158312
H53   H     H_    0.243576 0.726056 0.783428 0.158148
H54   H     H_    0.756158 0.273514 0.216797 0.158531
H55   H     H_    0.755690 0.728004 0.217277 0.156553
H56   H     H_    0.244402 0.271834 0.782631 0.155617
C141  C     C_R   0.689548 0.281695 0.905557 0.068442
C142  C     C_R   0.309914 0.717371 0.094903 0.072643
C143  C     C_R   0.310814 0.281696 0.094046 0.072229
C144  C     C_R   0.689123 0.718447 0.905994 0.069800
C145  C     C_R   0.189164 0.781102 0.905893 0.071610
C146  C     C_R   0.810512 0.218385 0.094379 0.069324
C147  C     C_R   0.809876 0.783215 0.094884 0.068973
C148  C     C_R   0.190205 0.216645 0.905028 0.070726
O33   O     O_R   0.062020 0.072840 0.007170 -0.629952
O34   O     O_R   0.937980 0.927160 0.992830 -0.627846
O35   O     O_R   0.937980 0.072840 0.992830 -0.628529
O36   O     O_R   0.062020 0.927160 0.007170 -0.630289
O37   O     O_R   0.562020 0.572840 0.007170 -0.627998
O38   O     O_R   0.437980 0.427160 0.992830 -0.628075
O39   O     O_R   0.437980 0.572840 0.992830 -0.626596
O40   O     O_R   0.562020 0.427160 0.007170 -0.626646
O41   O     O_R   0.947860 0.073950 0.109290 -0.623347
O42   O     O_R   0.052140 0.926050 0.890710 -0.612759
O43   O     O_R   0.052140 0.073950 0.890710 -0.613505
O44   O     O_R   0.947860 0.926050 0.109290 -0.623821
O45   O     O_R   0.447860 0.573950 0.109290 -0.623210
O46   O     O_R   0.552140 0.426050 0.890710 -0.622474
O47   O     O_R   0.552140 0.573950 0.890710 -0.620652
O48   O     O_R   0.447860 0.426050 0.109290 -0.621468
C149  C     C_R   0.074146 0.099411 0.933825 0.916839
C150  C     C_R   0.925888 0.900540 0.066143 0.907133
C151  C     C_R   0.926009 0.099652 0.065971 0.907481
C152  C     C_R   0.073982 0.900346 0.934034 0.917380
C153  C     C_R   0.574026 0.599565 0.933929 0.909583
C154  C     C_R   0.425972 0.400441 0.066070 0.908637
C155  C     C_R   0.425963 0.599593 0.066006 0.909466
C156  C     C_R   0.573995 0.400351 0.934025 0.910509
Zn9   Zn    Zn3+2 0.505960 0.500000 0.080520 0.948492
Zn10  Zn    Zn3+2 0.494040 0.500000 0.919480 0.949859
Zn11  Zn    Zn3+2 0.005960 0.000000 0.080520 0.944594
Zn12  Zn    Zn3+2 0.994040 0.000000 0.919480 0.967048
N1    N     N_R   0.783251 0.500117 0.398265 0.227546
O49   O     O_R   0.731392 0.499513 0.456046 -0.360679
O50   O     O_R   0.799008 0.507956 0.313315 -0.397625
N2    N     N_R   0.208033 0.502437 0.606064 0.224785
O51   O     O_R   0.261041 0.501924 0.563421 -0.359805
O52   O     O_R   0.182207 0.491003 0.692237 -0.397387
N3    N     N_R   0.240815 0.996802 0.538868 0.233466
O53   O     O_R   0.207868 0.004821 0.624482 -0.408571
O54   O     O_R   0.221177 0.998376 0.483876 -0.364604
N4    N     N_R   0.712956 0.996914 0.602822 0.228743
O55   O     O_R   0.765823 0.997660 0.554434 -0.361833
O56   O     O_R   0.690652 0.007534 0.688921 -0.399581

loop_
_geom_bond_atom_site_label_1
_geom_bond_atom_site_label_2
_geom_bond_distance
_ccdc_geom_bond_type
O4    C4    1.253674 A    
O44   C150  1.265074 A    
C118  H42   1.084951 S    
C59   C64   1.402166 A    
C6    C130  1.444769 S    
O7    Zn7   2.018173 S    
O31   Zn4   2.077855 S    
O8    Zn8   2.018173 S    
C107  C115  1.413374 A    
C110  C118  1.371257 A    
N4    O55   1.302561 A    
C105  C113  1.411730 A    
H22   C93   1.082741 S    
O33   Zn11  1.989009 S    
O34   Zn12  1.989009 S    
C38   C40   1.405296 A    
C115  C123  1.370892 A    
C113  C121  1.371463 A    
C90   C98   1.402466 A    
O48   Zn9   2.006064 S    
C126  C134  1.419484 A    
O20   C12   1.287514 A    
H18   C97   1.082740 S    
C109  C156  1.435720 S    
C36   C43   1.403991 A    
C110  C155  1.435439 S    
C49   C67   1.416966 A    
C83   C91   1.408114 A    
C108  C116  1.413348 A    
C51   C73   1.420476 A    
C49   C57   1.437671 A    
O2    C2    1.250877 A    
C79   C87   1.407716 A    
C120  H44   1.084897 S    
C8    C132  1.444011 S    
C25   C27   1.397496 A    
C52   C67   1.404399 A    
O6    Zn6   2.018455 S    
H21   C94   1.082778 S    
O44   Zn11  2.006064 S    
C81   C94   1.408511 A    
C29   C31   1.402500 A    
C41   C65   1.414811 A    
C79   C143  1.499969 S    
C38   C42   1.400095 A    
C45   C53   1.428851 A    
C51   C68   1.409751 A    
C1    C125  1.444683 S    
O27   C3    1.297044 A    
C89   H29   1.082592 S    
C63   N3    1.443572 S    
H17   C98   1.082733 S    
C128  C136  1.419545 A    
C82   C90   1.407240 A    
H20   C99   1.082731 S    
C83   C147  1.499983 S    
C124  H48   1.084954 S    
C64   N4    1.440520 S    
H19   C100  1.082745 S    
C44   C68   1.412460 A    
O47   Zn10  2.006063 S    
H2    C31   1.083390 S    
O30   Zn1   2.078010 S    
C34   C36   1.413580 A    
C48   C56   1.432347 A    
H6    C27   1.083738 S    
O48   C154  1.264944 A    
C118  C126  1.369012 A    
O39   C155  1.228776 A    
C103  H35   1.083151 S    
C109  C117  1.371516 A    
C104  H36   1.083143 S    
C15   C56   1.481843 S    
C20   C73   1.403969 A    
O23   Zn7   2.022080 S    
H7    C26   1.083494 S    
O24   Zn8   2.022080 S    
O9    C9    1.262275 A    
C50   C58   1.418110 A    
C60   C63   1.372622 A    
O12   C12   1.265872 A    
C135  C143  1.404945 A    
O13   C13   1.256382 A    
O35   Zn12  1.985917 S    
O36   Zn11  1.985919 S    
C87   C95   1.403003 A    
C11   C60   1.446932 S    
C112  C120  1.371188 A    
C13   C54   1.447834 S    
C106  H38   1.083208 S    
C40   C41   1.407117 A    
C46   C54   1.435793 A    
C84   C95   1.408363 A    
O7    C7    1.253188 A    
O9    Zn6   2.117393 S    
O8    C8    1.253176 A    
C137  C145  1.404606 A    
C130  C138  1.419452 A    
C107  C147  1.400732 A    
O11   Zn8   2.113633 S    
O36   C152  1.228969 A    
C105  C145  1.399442 A    
C21   C29   1.406995 A    
O45   C155  1.263745 A    
O16   Zn3   2.113633 S    
O46   C156  1.263677 A    
C102  H34   1.083209 S    
C23   C31   1.404688 A    
C19   C27   1.403787 A    
C105  H37   1.083225 S    
O22   Zn6   2.027848 S    
C47   C69   1.415629 A    
C42   C66   1.414046 A    
C50   C76   1.410921 A    
C80   C99   1.408731 A    
O30   C6    1.295236 A    
C26   C28   1.401032 A    
C55   C62   1.379487 A    
C119  C127  1.369433 A    
C7    C131  1.444440 S    
C79   C100  1.408776 A    
O18   C10   1.290078 A    
C30   C32   1.396278 A    
O40   Zn9   1.985919 S    
C138  C146  1.404525 A    
C133  H49   1.082819 S    
C18   C26   1.404505 A    
C76   H16   1.083299 S    
C17   C76   1.402098 A    
O37   C153  1.228409 A    
O2    Zn2   2.018455 S    
C46   C72   1.427181 A    
O43   C149  1.265021 A    
H8    C25   1.083595 S    
O6    C6    1.251267 A    
O41   C151  1.263657 A    
H24   C95   1.082706 S    
N3    O54   1.303268 A    
O42   C152  1.263553 A    
H1    C32   1.083606 S    
C123  H47   1.084941 S    
H3    C30   1.083654 S    
C121  H45   1.084927 S    
C33   C35   1.410665 A    
C47   C55   1.427894 A    
O21   C13   1.288426 A    
O43   Zn12  2.006063 S    
H5    C28   1.083633 S    
C14   C53   1.470254 S    
C52   C60   1.411760 A    
O23   C15   1.301304 A    
O24   C16   1.305850 A    
C85   C93   1.402523 A    
O17   Zn1   2.027848 S    
C91   H31   1.082711 S    
C16   C55   1.468764 S    
C92   C100  1.403624 A    
C87   H27   1.082556 S    
O3    C3    1.253593 A    
C82   C146  1.497849 S    
C136  C144  1.404981 A    
C82   C93   1.408321 A    
C19   C33   1.406788 A    
C116  C124  1.370743 A    
O29   C5    1.295101 A    
C12   C59   1.454688 S    
C90   H30   1.082572 S    
O34   C150  1.228171 A    
C20   C28   1.405510 A    
N4    O56   1.300650 A    
C138  H54   1.082813 S    
C20   C34   1.405535 A    
C122  C130  1.369160 A    
C49   C75   1.416511 A    
C4    C128  1.445390 S    
C103  C143  1.400646 A    
N1    O50   1.300865 A    
C112  C153  1.437380 S    
O35   C151  1.228973 A    
O12   Zn7   2.113633 S    
C101  H33   1.083204 S    
O13   Zn2   2.117393 S    
O45   Zn9   2.000617 S    
N2    O51   1.302343 A    
C134  H50   1.082850 S    
C84   C148  1.499798 S    
C18   C75   1.408731 A    
C45   C71   1.422569 A    
C69   H9    1.080458 S    
O25   C1    1.295229 A    
C71   H11   1.076776 S    
C19   C74   1.397111 A    
O10   C10   1.263303 A    
C117  H41   1.084940 S    
C5    C129  1.444692 S    
O14   C14   1.264239 A    
C106  C114  1.411781 A    
C124  C132  1.369159 A    
C116  C149  1.436905 S    
C107  H39   1.083124 S    
O5    C5    1.251302 A    
C47   C66   1.412819 A    
C53   C61   1.400080 A    
C114  C122  1.371512 A    
C34   C44   1.409103 A    
C132  C140  1.419612 A    
O10   Zn5   2.117393 S    
C108  H40   1.083130 S    
C125  C133  1.419442 A    
O40   C156  1.228987 A    
C135  H51   1.082756 S    
N3    O53   1.301069 A    
C21   C39   1.398630 A    
C57   C63   1.399429 A    
O33   C149  1.228083 A    
O39   Zn10  1.985917 S    
C88   C96   1.403050 A    
O19   C11   1.299698 A    
C113  C152  1.435471 S    
C9    C58   1.465481 S    
C77   C85   1.407292 A    
C114  C151  1.435665 S    
O37   Zn9   1.989009 S    
C115  C150  1.437150 S    
O25   Zn6   2.078010 S    
O38   C154  1.228343 A    
C2    C126  1.444101 S    
C37   C41   1.398967 A    
O27   Zn8   2.077855 S    
O32   Zn3   2.077855 S    
C108  C148  1.400685 A    
C45   C65   1.408181 A    
O15   Zn4   2.113633 S    
C102  C110  1.411810 A    
C78   C97   1.408164 A    
C104  C144  1.400718 A    
C48   C65   1.412669 A    
C54   C62   1.398351 A    
C117  C125  1.369180 A    
O18   Zn2   2.027848 S    
C48   C70   1.420696 A    
C78   C142  1.497574 S    
O3    Zn3   2.018173 S    
C86   H26   1.082768 S    
C75   H15   1.081231 S    
C73   H13   1.079492 S    
C24   C38   1.404959 A    
C72   H12   1.077570 S    
C51   C59   1.433945 A    
C21   C72   1.399963 A    
C137  H53   1.082822 S    
C78   C86   1.407455 A    
C102  C142  1.399492 A    
C103  C111  1.413298 A    
O41   Zn11  2.000617 S    
O42   Zn12  2.000618 S    
C77   C98   1.408270 A    
C43   C67   1.412252 A    
C101  C141  1.399557 A    
H23   C96   1.082690 S    
O46   Zn10  2.000618 S    
C10   C57   1.457811 S    
C17   C35   1.410539 A    
C83   C96   1.408353 A    
C33   C43   1.411966 A    
O28   C4    1.297070 A    
C24   C32   1.402584 A    
C39   C42   1.408755 A    
C89   C97   1.402120 A    
C84   C92   1.408099 A    
C131  C139  1.419680 A    
C85   H25   1.082591 S    
C61   N1    1.439682 S    
C80   C88   1.407724 A    
C106  C146  1.399522 A    
C86   C94   1.402717 A    
C88   H28   1.082522 S    
C22   C30   1.403825 A    
O15   C15   1.268994 A    
C22   C40   1.395817 A    
O16   C16   1.257646 A    
C46   C66   1.406741 A    
O1    C1    1.251254 A    
C58   C64   1.379830 A    
C35   C44   1.405887 A    
C80   C144  1.500085 S    
O4    Zn4   2.018173 S    
O5    Zn5   2.018455 S    
C111  C119  1.371114 A    
C136  H52   1.082753 S    
C139  C147  1.404456 A    
C56   C61   1.398123 A    
C104  C112  1.413325 A    
O14   Zn1   2.117393 S    
C17   C25   1.402822 A    
C120  C128  1.369498 A    
C23   C37   1.405759 A    
O26   C2    1.295203 A    
C133  C141  1.404452 A    
C140  C148  1.404353 A    
C24   C69   1.395539 A    
O11   C11   1.264264 A    
C81   C89   1.407064 A    
C122  H46   1.084932 S    
O28   Zn7   2.077855 S    
O29   Zn2   2.078010 S    
C37   C39   1.412156 A    
H4    C29   1.083535 S    
C134  C142  1.404142 A    
O47   C153  1.264955 A    
O19   Zn3   2.022080 S    
C50   C68   1.409470 A    
C22   C71   1.387951 A    
C119  H43   1.084901 S    
N1    O49   1.302688 A    
C81   C145  1.497626 S    
C62   N2    1.440593 S    
N2    O52   1.300597 A    
C111  C154  1.437224 S    
O38   Zn10  1.989009 S    
O26   Zn5   2.078010 S    
C77   C141  1.497842 S    
C23   C70   1.408201 A    
O22   C14   1.294827 A    
C127  C135  1.419561 A    
C139  H55   1.082785 S    
C123  C131  1.369324 A    
C121  C129  1.369055 A    
O20   Zn4   2.022080 S    
O21   Zn5   2.027848 S    
C3    C127  1.445302 S    
C101  C109  1.411807 A    
O31   C7    1.297092 A    
C52   C74   1.413392 A    
O32   C8    1.297097 A    
O17   C9    1.298172 A    
C140  H56   1.082804 S    
C18   C36   1.410168 A    
C91   C99   1.403671 A    
C92   H32   1.082773 S    
C129  C137  1.419315 A    
C70   H10   1.080598 S    
O1    Zn1   2.018455 S    
C74   H14   1.082831 S    
