data_mof_unit_25074.cif
_audit_creation_date              2012-12-11T14:50:30-0500
_audit_creation_method            fapswitch 2.2
_symmetry_space_group_name_H-M    P1
_symmetry_Int_Tables_number       1
_space_group_crystal_system       triclinic
_cell_length_a                    11.083277
_cell_length_b                    11.077488
_cell_length_c                    18.861383
_cell_angle_alpha                 89.732668
_cell_angle_beta                  88.926622
_cell_angle_gamma                 60.771299
_cell_volume                      2020.48154475

loop_
_atom_site_label
_atom_site_type_symbol
_atom_type_description
_atom_site_fract_x
_atom_site_fract_y
_atom_site_fract_z
_atom_type_partial_charge
C1    C     C_R   0.231940 0.647251 0.607800 0.611048
C2    C     C_3   0.686451 0.546574 0.799677 -0.081814
C3    C     C_3   0.711349 0.672436 0.809378 -0.069138
C4    C     C_3   0.671840 0.645282 0.674923 0.025867
C5    C     C_3   0.807550 0.657010 0.681477 0.118371
C6    C     C_3   0.700371 0.513127 0.719764 -0.249033
C7    C     C_R   0.781675 0.167219 0.709615 0.048739
C8    C     C_R   0.791064 0.148172 0.783003 -0.149605
C9    C     C_R   0.685425 0.142075 0.821608 0.012499
C10   C     C_R   0.566752 0.158346 0.785550 0.081446
C11   C     C_R   0.552849 0.189484 0.715779 -0.119992
C12   C     C_R   0.651220 0.618570 0.601470 0.602934
C13   C     C_R   0.659517 0.188556 0.676003 0.021772
C14   C     C_R   0.189688 0.557736 0.721238 -0.107867
C15   C     C_R   0.148355 0.579408 0.792153 0.052752
C16   C     C_R   0.100073 0.711628 0.822837 -0.009541
C17   C     C_R   0.076804 0.822166 0.779327 -0.120921
C18   C     C_R   0.102919 0.802187 0.707047 -0.053816
C19   C     C_R   0.165266 0.669937 0.677788 0.048487
C20   C     C_R   0.805857 0.597248 0.291722 0.091125
C21   C     C_R   0.821607 0.621972 0.221068 -0.111968
C22   C     C_R   0.707740 0.710608 0.180779 -0.011665
C23   C     C_R   0.625512 0.233241 0.603378 0.588682
C24   C     C_R   0.577371 0.785524 0.213416 -0.147591
C25   C     C_R   0.560485 0.765970 0.285163 -0.157365
C26   C     C_R   0.672772 0.667907 0.324418 0.031112
C27   C     C_R   0.580722 0.117078 0.293489 -0.109560
C28   C     C_R   0.581075 0.101964 0.221089 -0.112604
C29   C     C_R   0.650481 0.150847 0.176723 0.045077
C30   C     C_R   0.717721 0.217522 0.205085 -0.106925
C31   C     C_R   0.716920 0.233630 0.277870 -0.109225
C32   C     C_R   0.647357 0.184191 0.322187 0.051349
C33   C     C_R   0.088899 0.797124 0.305338 0.044607
C34   C     C_R   0.222605 0.647963 0.402135 0.570101
C35   C     C_R   0.092990 0.811108 0.232267 0.049064
C36   C     C_R   0.127894 0.692590 0.187927 0.004493
C37   C     C_R   0.186242 0.560448 0.217679 0.035232
C38   C     C_R   0.211271 0.547182 0.289487 -0.122234
C39   C     C_R   0.161653 0.664663 0.333382 -0.015049
C40   C     C_R   0.703856 0.095758 0.894921 0.557543
C41   C     C_R   0.733785 0.693121 0.885377 0.552758
C42   C     C_R   0.058998 0.740290 0.897463 0.544759
C43   C     C_R   0.674949 0.104892 0.104023 0.555566
C44   C     C_R   0.730587 0.717278 0.104684 0.548327
C45   C     C_R   0.645027 0.623648 0.393383 0.557795
C46   C     C_R   0.087478 0.714237 0.114055 0.577275
C47   C     C_R   0.616463 0.231997 0.394615 0.575984
C48   C     C_3   0.586856 0.802378 0.780593 -0.242717
C49   C     C_3   0.540662 0.777161 0.708324 0.103029
C50   C     C_3   0.835220 0.656017 0.761820 -0.233594
Cr1   Cr    Cr6+3 0.392930 0.397900 0.502230 1.098064
Cr2   Cr    Cr6+3 0.398240 0.708600 0.501260 1.116845
Cr3   Cr    Cr6+3 0.708800 0.393470 0.496460 1.104665
Cr4   Cr    Cr6+3 0.937620 0.938540 0.007640 1.066822
Cr5   Cr    Cr6+3 0.625150 0.937450 0.994520 1.084446
Cr6   Cr    Cr6+3 0.937990 0.625080 0.001190 1.108126
H1    H     H_    0.620472 0.880705 0.773018 0.169121
H2    H     H_    0.806969 0.431638 0.708723 0.204012
H3    H     H_    0.919662 0.554456 0.772464 0.210395
H4    H     H_    0.881840 0.134881 0.809672 0.183468
H5    H     H_    0.455736 0.212271 0.692424 0.190388
H6    H     H_    0.241423 0.453202 0.700406 0.173380
H7    H     H_    0.042490 0.922927 0.801707 0.165665
H8    H     H_    0.501959 0.837292 0.820882 0.199130
H9    H     H_    0.089531 0.886853 0.674652 0.204780
H10   H     H_    0.923142 0.565577 0.196306 0.172727
H11   H     H_    0.487879 0.854873 0.183170 0.166324
H12   H     H_    0.457364 0.820528 0.308430 0.170324
H13   H     H_    0.524482 0.080665 0.326818 0.156901
H14   H     H_    0.529167 0.049525 0.199818 0.153266
H15   H     H_    0.772278 0.254788 0.171091 0.162164
H16   H     H_    0.765759 0.289545 0.299042 0.168816
H17   H     H_    0.271922 0.444015 0.310731 0.186161
H18   H     H_    0.863721 0.736124 0.775048 0.118436
H19   H     H_    0.579498 0.578860 0.818433 0.149637
H20   H     H_    0.639440 0.462868 0.704554 0.167280
O1    O     O_R   0.507430 0.255570 0.581420 -0.504296
O2    O     O_R   0.524460 0.695920 0.424060 -0.507369
O3    O     O_R   0.736530 0.504260 0.414810 -0.481668
O4    O     O_R   0.691460 0.277160 0.422180 -0.504956
O5    O     O_3   0.499990 0.499990 0.499980 -0.309646
O6    O     O_R   0.089490 0.825610 0.930610 -0.483536
O7    O     O_R   0.818370 0.054540 0.929880 -0.534531
O8    O     O_R   0.605870 0.077310 0.915530 -0.471602
O9    O     O_R   0.646440 0.806700 0.917570 -0.498900
O10   O     O_R   0.837200 0.593290 0.915250 -0.458523
O11   O     O_R   0.065330 0.635370 0.931590 -0.461143
O12   O     O_R   0.280190 0.527390 0.578910 -0.493568
O13   O     O_R   0.068300 0.828790 0.091860 -0.478878
O14   O     O_R   0.798730 0.057480 0.079370 -0.496955
O15   O     O_R   0.584680 0.080480 0.076790 -0.497674
O16   O     O_R   0.626790 0.809640 0.067050 -0.488266
O17   O     O_R   0.816010 0.596460 0.076500 -0.484961
O18   O     O_R   0.045680 0.638310 0.081070 -0.493022
O19   O     O_3   0.833590 0.833690 0.001120 -0.348160
O20   O     O_R   0.260310 0.739740 0.584580 -0.475231
O21   O     O_R   0.532250 0.695150 0.573830 -0.470236
O22   O     O_R   0.744930 0.503430 0.576380 -0.478741
O23   O     O_R   0.699250 0.276390 0.571950 -0.477940
O24   O     O_R   0.499020 0.256400 0.419850 -0.512803
O25   O     O_R   0.272400 0.528160 0.429140 -0.501573
O26   O     O_R   0.251910 0.740570 0.423020 -0.487674
I1    I     I_    0.991539 0.489212 0.629499 -0.240752
I2    I     I_    0.955062 0.163023 0.655810 -0.232559
I3    I     I_    0.407037 0.114298 0.820891 -0.215182
I4    I     I_    0.142074 0.413761 0.844509 -0.165736
I5    I     I_    0.989562 0.438863 0.338849 -0.276813
C51   C     C_2   0.011998 0.918281 0.353359 0.614195
O27   O     O_2   0.917763 0.924504 0.390709 -0.504277
O28   O     O_R   0.051830 0.019578 0.359511 -0.643188
H21   H     H_    0.992015 0.094789 0.394886 0.354413
C52   C     C_2   0.415254 0.760389 0.724350 0.594259
O29   O     O_2   0.312259 0.857727 0.750764 -0.481862
O30   O     O_R   0.420180 0.633641 0.717820 -0.748473
H22   H     H_    0.376105 0.614867 0.760780 0.325053
I6    I     I_    0.076215 0.005329 0.196966 -0.254153
I7    I     I_    0.257171 0.375088 0.157709 -0.291137
I8    I     I_    0.450214 0.963913 0.642383 -0.194049
I9    I     I_    0.807006 0.830599 0.629414 -0.336040
C53   C     C_2   0.776529 0.420364 0.843257 0.587510
O31   O     O_2   0.899180 0.348244 0.828543 -0.479550
O32   O     O_R   0.718920 0.389342 0.902390 -0.680008
H23   H     H_    0.790336 0.307884 0.930055 0.353288

loop_
_geom_bond_atom_site_label_1
_geom_bond_atom_site_label_2
_ccdc_geom_bond_type
Cr6   O19   S    
C23   O23   A    
C5    I1    S    
C21   H10   S    
C40   O8    A    
C35   C36   A    
C42   O6    A    
C52   O30   S    
C30   H15   S    
C7    C8    A    
C46   O13   A    
Cr3   O23   S    
C18   H9    S    
Cr6   O18   S    
C41   O10   A    
C25   H12   S    
Cr2   O26   S    
C29   C30   A    
C5    I9    S    
C50   H3    S    
C15   I4    S    
C36   C37   A    
Cr3   O3    S    
Cr4   O14   S    
C50   H18   S    
C38   C39   A    
C48   H8    S    
C15   C16   A    
C14   H6    S    
Cr2   O21   S    
C51   O27   D    
C13   C23   S    
Cr3   O5    S    
C18   C19   A    
C6    H2    S    
O28   H21   S    
Cr4   O7    S    
Cr5   O15   S    
C44   O17   A    
C24   H11   S    
C22   C44   S    
C49   I8    S    
C8    C9    A    
C36   C46   S    
C45   O2    A    
C4    C12   S    
C9    C10   A    
Cr1   O5    S    
C12   O22   A    
C26   C45   S    
C20   I5    S    
C1    O12   A    
C21   C22   A    
C29   C43   S    
C40   O7    A    
C2    C6    S    
C33   C51   S    
C47   O4    A    
Cr2   O2    S    
C52   O29   D    
C3    C50   S    
C53   O32   S    
O30   H22   S    
Cr6   O17   S    
C1    C19   S    
C34   O25   A    
C34   C39   S    
C43   O14   A    
C48   H1    S    
Cr3   O4    S    
C24   C25   A    
Cr4   O13   S    
Cr5   O19   S    
C2    C53   S    
C16   C17   A    
Cr6   O11   S    
C25   C26   A    
C9    C40   S    
C43   O15   A    
C47   O24   A    
C34   O26   A    
Cr5   O9    S    
Cr1   O1    S    
C37   C38   A    
Cr6   O10   S    
C31   C32   A    
C46   O18   A    
C3    C48   S    
C17   C18   A    
C12   O21   A    
C35   I6    S    
C45   O3    A    
C33   C39   A    
C23   O1    A    
Cr4   O19   S    
C49   C52   S    
C4    C6    S    
C31   H16   S    
Cr5   O16   S    
C44   O16   A    
C7    I2    S    
C32   C47   S    
C22   C24   A    
C5    C50   S    
C28   C29   A    
C16   C42   S    
Cr4   O6    S    
C53   O31   D    
Cr1   O24   S    
C48   C49   S    
C27   C32   A    
C14   C19   A    
C28   H14   S    
C4    C5    S    
C11   H5    S    
C27   H13   S    
Cr1   O12   S    
C6    H20   S    
Cr3   O22   S    
Cr1   O25   S    
C41   O9    A    
C4    C49   S    
C2    C3    S    
O32   H23   S    
C17   H7    S    
C11   C13   A    
C30   C31   A    
C20   C26   A    
C1    O20   A    
C33   C35   A    
C51   O28   S    
Cr2   O20   S    
Cr2   O5    S    
C3    C41   S    
C10   C11   A    
C7    C13   A    
C37   I7    S    
C20   C21   A    
C27   C28   A    
C14   C15   A    
C10   I3    S    
C42   O11   A    
Cr5   O8    S    
C8    H4    S    
C2    H19   S    
C38   H17   S    
