data_mof_unit_64444.cif
_audit_creation_date              2012-10-26T20:22:51-0400
_audit_creation_method            fapswitch 2.2
_symmetry_space_group_name_H-M    P1
_symmetry_Int_Tables_number       1
_space_group_crystal_system       monoclinic
_cell_length_a                    19.438358
_cell_length_b                    14.430668
_cell_length_c                    13.14023
_cell_angle_alpha                 89.968993
_cell_angle_beta                  90.0
_cell_angle_gamma                 90.0
_cell_volume                      3685.94554583

loop_
_atom_site_label
_atom_site_type_symbol
_atom_type_description
_atom_site_fract_x
_atom_site_fract_y
_atom_site_fract_z
_atom_type_partial_charge
C1    C     C_1   0.500000 0.499998 0.050682 -0.018068
C2    C     C_R   0.500000 0.671296 0.499982 0.541843
C3    C     C_R   0.365894 0.500000 0.500000 0.526640
C4    C     C_R   0.634106 0.500000 0.500000 0.526640
C5    C     C_1   0.500000 0.227131 0.500037 -0.027314
C6    C     C_1   0.500000 0.772868 0.499963 -0.027314
C7    C     C_1   0.500000 0.142316 0.500026 -0.015636
C8    C     C_1   0.500000 0.857684 0.499974 -0.015636
C9    C     C_1   0.500000 0.042408 0.500008 0.024964
C10   C     C_1   0.500000 0.957592 0.499992 0.024964
C11   C     C_R   0.253703 0.566356 0.558462 0.209144
C12   C     C_1   0.500000 0.500002 0.949318 -0.018068
C13   C     C_R   0.746297 0.433644 0.441538 0.209144
C14   C     C_R   0.746297 0.566356 0.558462 0.209144
C15   C     C_R   0.253703 0.433644 0.441538 0.209144
C16   C     C_R   0.182026 0.564181 0.559102 -0.054496
C17   C     C_R   0.817974 0.435818 0.440898 -0.054496
C18   C     C_R   0.817974 0.564181 0.559102 -0.054496
C19   C     C_R   0.182026 0.435818 0.440898 -0.054496
C20   C     C_R   0.145633 0.500000 0.500000 -0.067852
C21   C     C_R   0.854367 0.500000 0.500000 -0.067852
C22   C     C_R   0.290482 0.500000 0.500000 -0.003223
C23   C     C_R   0.709518 0.500000 0.500000 -0.003224
C24   C     C_R   0.930216 0.500000 0.500000 0.349274
C25   C     C_R   0.069784 0.500000 0.500000 0.349274
C26   C     C_1   0.500000 0.499997 0.173617 0.155878
C27   C     C_1   0.500000 0.500003 0.826383 0.155878
C28   C     C_R   0.500000 0.328704 0.500018 0.541842
Cu1   Cu    Cu3+1 0.500000 0.500000 0.592680 1.013509
Cu2   Cu    Cu3+1 0.500000 0.500000 0.407320 1.013509
H1    H     H_    0.154820 0.614814 0.604732 0.184347
H2    H     H_    0.845179 0.385186 0.395268 0.184347
H3    H     H_    0.845179 0.614814 0.604732 0.184347
H4    H     H_    0.154820 0.385186 0.395268 0.184347
H5    H     H_    0.332612 0.645029 0.590254 0.337111
H6    H     H_    0.667388 0.354971 0.409745 0.337110
H7    H     H_    0.667388 0.645029 0.590254 0.337110
H8    H     H_    0.332612 0.354971 0.409745 0.337111
N1    N     N_1   0.500000 0.500000 0.268070 -0.153526
N2    N     N_1   0.500000 0.500000 0.731930 -0.153526
N3    N     N_R   0.034201 0.438322 0.442526 -0.211411
N4    N     N_R   0.965799 0.561678 0.557474 -0.211411
N5    N     N_R   0.965799 0.438322 0.442526 -0.211411
N6    N     N_R   0.034201 0.561678 0.557474 -0.211411
O1    O     O_R   0.500000 0.376050 0.578280 -0.470702
O2    O     O_3   0.714984 0.364505 0.385421 -0.673634
O3    O     O_3   0.714984 0.635495 0.614579 -0.673634
O4    O     O_3   0.285016 0.364505 0.385421 -0.673634
O5    O     O_R   0.500000 0.623950 0.421720 -0.470702
O6    O     O_R   0.500000 0.623950 0.578280 -0.477178
O7    O     O_R   0.500000 0.376050 0.421720 -0.477177
O8    O     O_R   0.400140 0.500000 0.578290 -0.480365
O9    O     O_R   0.599860 0.500000 0.421710 -0.480365
O10   O     O_R   0.599860 0.500000 0.578290 -0.480365
O11   O     O_R   0.400140 0.500000 0.421710 -0.480365
O12   O     O_3   0.285016 0.635495 0.614579 -0.673634

loop_
_geom_bond_atom_site_label_1
_geom_bond_atom_site_label_2
_ccdc_geom_bond_type
C14   C23   A    
Cu2   O7    S    
C19   H4    S    
H6    O2    S    
C14   O3    S    
C2    O5    A    
C4    O9    A    
H7    O3    S    
C5    C28   S    
C24   N4    A    
C9    C10   T    
C14   C18   A    
C11   C22   A    
H8    O4    S    
C19   C20   A    
C13   C17   A    
C27   N2    T    
C3    O8    A    
Cu1   O10   S    
C4    O10   A    
C16   H1    S    
C15   C19   A    
N3    N5    A    
C2    C6    S    
C1    C12   T    
N4    N6    A    
C15   O4    S    
C25   N6    A    
C8    C10   S    
C16   C20   A    
C28   O7    A    
Cu2   O5    S    
Cu2   N1    S    
C5    C7    T    
Cu1   O6    S    
C13   O2    S    
C28   O1    A    
Cu2   O9    S    
C26   N1    T    
C1    C26   S    
C18   H3    S    
C12   C27   S    
Cu1   Cu2   S    
C18   C21   A    
C24   N5    A    
C13   C23   A    
C7    C9    S    
C11   C16   A    
C21   C24   S    
C25   N3    A    
C17   H2    S    
C4    C23   S    
C3    C22   S    
C6    C8    T    
C2    O6    A    
Cu1   N2    S    
H5    O12   S    
C3    O11   A    
Cu2   O11   S    
Cu1   O8    S    
C15   C22   A    
C17   C21   A    
C11   O12   S    
Cu1   O1    S    
C20   C25   S    
