data_mof_unit_37154.cif
_audit_creation_date              2012-12-11T16:33:27-0500
_audit_creation_method            fapswitch 2.2
_symmetry_space_group_name_H-M    P1
_symmetry_Int_Tables_number       1
_space_group_crystal_system       triclinic
_cell_length_a                    6.942071
_cell_length_b                    18.280505
_cell_length_c                    20.134169
_cell_angle_alpha                 68.428741
_cell_angle_beta                  90.559307
_cell_angle_gamma                 90.655067
_cell_volume                      2375.96235845

loop_
_atom_site_label
_atom_site_type_symbol
_atom_type_description
_atom_site_fract_x
_atom_site_fract_y
_atom_site_fract_z
_atom_type_partial_charge
O1    O     O_R   0.488960 0.443750 0.941980 -0.533246
O2    O     O_R   0.823890 0.406510 0.087590 -0.538675
O3    O     O_R   0.999680 0.556250 0.058020 -0.532916
C1    C     C_R   0.655121 0.383460 0.115043 0.694152
O4    O     O_R   0.818360 0.434410 0.944340 -0.543254
O5    O     O_R   0.994110 0.584350 0.913750 -0.536316
C2    C     C_R   0.648895 0.420260 0.923851 0.724777
O6    O     O_R   0.494530 0.415650 0.086250 -0.537062
O7    O     O_3   0.662590 0.549160 0.990130 -0.367441
V1    V     V_3+5 0.935320 0.490880 0.001830 1.422636
O8    O     O_R   0.324180 0.593490 0.912410 -0.538434
C3    C     C_R   0.155118 0.616372 0.884858 0.695806
O9    O     O_R   0.329720 0.565590 0.055660 -0.544288
C4    C     C_R   0.161961 0.579460 0.076327 0.723737
V2    V     V_3+5 0.435990 0.509120 0.998170 1.420026
O10   O     O_3   0.158850 0.450840 0.009870 -0.367087
C5    C     C_3   0.998542 0.716852 0.298863 0.049123
C6    C     C_3   0.180716 0.674839 0.287702 -0.168695
H1    H     H_    0.219794 0.612885 0.319008 0.118887
H2    H     H_    0.445101 0.747525 0.309032 0.143647
C7    C     C_1   0.155281 0.625142 0.121780 -0.204320
C8    C     C_1   0.110889 0.874796 0.378062 -0.204281
C9    C     C_3   0.962573 0.751527 0.217279 -0.169642
C10   C     C_3   0.145626 0.710271 0.206234 0.112627
C11   C     C_3   0.085746 0.825122 0.212127 -0.168736
C12   C     C_3   0.120835 0.789689 0.293594 0.112634
C13   C     C_3   0.267914 0.783110 0.200964 0.049136
C14   C     C_3   0.303886 0.748433 0.282549 -0.169663
C15   C     C_1   0.150404 0.663367 0.159914 -0.069537
C16   C     C_1   0.115977 0.836580 0.339923 -0.069629
H3    H     H_    0.046701 0.887078 0.180824 0.118913
H4    H     H_    0.821362 0.752444 0.190785 0.143683
H5    H     H_    0.921434 0.528905 0.695277 0.110766
C17   C     C_R   0.262409 0.774036 0.874308 -0.136854
C18   C     C_R   0.314357 0.849103 0.871087 -0.127768
C19   C     C_R   0.303316 0.912755 0.806736 -0.122674
C20   C     C_R   0.239690 0.901873 0.745138 -0.139578
C21   C     C_R   0.187185 0.826228 0.746515 0.067961
C22   C     C_R   0.199210 0.760914 0.812490 0.071157
C23   C     C_R   0.119901 0.815346 0.683924 -0.185815
C24   C     C_R   0.065150 0.739040 0.687365 0.071189
C25   C     C_R   0.077133 0.673730 0.753344 0.067960
C26   C     C_R   0.144444 0.684613 0.815930 -0.185757
C27   C     C_R   0.002043 0.725906 0.625542 -0.136953
C28   C     C_R   0.950098 0.650836 0.628768 -0.127762
C29   C     C_R   0.961036 0.587194 0.693130 -0.122631
C30   C     C_R   0.024592 0.598086 0.754730 -0.139751
H6    H     H_    0.270985 0.726767 0.925918 0.100878
H7    H     H_    0.362194 0.857992 0.918918 0.117842
H8    H     H_    0.342905 0.971044 0.804593 0.110822
H9    H     H_    0.230735 0.953599 0.696758 0.108737
H10   H     H_    0.993550 0.773162 0.573923 0.100976
H11   H     H_    0.902336 0.641937 0.580933 0.117946
H12   H     H_    0.033468 0.546368 0.803121 0.108544
H13   H     H_    0.360643 0.354094 0.413521 0.109232
C31   C     C_R   0.762158 0.100581 0.257921 -0.137433
C32   C     C_R   0.837838 0.090835 0.197964 -0.133411
C33   C     C_R   0.847721 0.154182 0.133420 -0.124632
C34   C     C_R   0.783376 0.227917 0.128522 -0.131334
C35   C     C_R   0.710095 0.240215 0.188984 0.069242
C36   C     C_R   0.698665 0.175089 0.255080 0.069747
C37   C     C_R   0.644378 0.315305 0.184015 -0.187651
C38   C     C_R   0.566636 0.325110 0.245180 0.069857
C39   C     C_R   0.555159 0.259977 0.311271 0.069217
C40   C     C_R   0.620927 0.184896 0.316244 -0.187644
C41   C     C_R   0.503107 0.399611 0.242340 -0.137273
C42   C     C_R   0.427275 0.409335 0.302285 -0.133528
C43   C     C_R   0.417296 0.345973 0.366819 -0.124675
C44   C     C_R   0.481710 0.272246 0.371720 -0.131208
H14   H     H_    0.753003 0.048714 0.306121 0.112578
H15   H     H_    0.887547 0.033569 0.201583 0.107273
H16   H     H_    0.904236 0.146043 0.086707 0.109192
H17   H     H_    0.790585 0.274702 0.076634 0.106508
H18   H     H_    0.512327 0.451486 0.194148 0.112870
H19   H     H_    0.377503 0.466593 0.298665 0.107347
H20   H     H_    0.474391 0.225436 0.423593 0.106450
O11   O     O_R   0.770540 0.084530 0.414050 -0.536961
O12   O     O_R   0.445710 0.065660 0.555720 -0.543081
O13   O     O_R   0.270420 0.915650 0.586190 -0.536299
C45   C     C_R   0.614983 0.079850 0.576348 0.725572
O14   O     O_R   0.441140 0.093540 0.412470 -0.538718
O15   O     O_R   0.265820 0.943740 0.441930 -0.533017
C46   C     C_R   0.610012 0.116709 0.385183 0.693876
O16   O     O_R   0.775150 0.056440 0.558310 -0.533763
O17   O     O_3   0.602370 0.950960 0.510050 -0.367554
V3    V     V_3+5 0.329450 0.009140 0.498150 1.422728
O18   O     O_R   0.935790 0.934280 0.444060 -0.545081
C47   C     C_R   0.103757 0.920468 0.423514 0.723036
O19   O     O_R   0.940370 0.906390 0.587310 -0.538330
C48   C     C_R   0.109356 0.883581 0.614985 0.695966
V4    V     V_3+5 0.828810 0.990710 0.501460 1.420167
O20   O     O_3   0.105780 0.049100 0.489960 -0.366926
C49   C     C_3   0.756040 0.310536 0.725049 -0.139584
C50   C     C_3   0.577761 0.296727 0.683994 -0.136146
H21   H     H_    0.533614 0.335047 0.629181 0.107928
H22   H     H_    0.858789 0.360716 0.704625 0.103769
H23   H     H_    0.307421 0.300464 0.753970 0.108584
C51   C     C_1   0.624369 0.125575 0.621865 -0.193393
C52   C     C_1   0.639039 0.374500 0.878371 -0.194199
C53   C     C_3   0.809049 0.222441 0.748157 -0.138735
C54   C     C_3   0.630819 0.209244 0.707735 0.169926
C55   C     C_3   0.685258 0.203320 0.816268 -0.136192
C56   C     C_3   0.632201 0.290803 0.792526 0.169948
C57   C     C_3   0.506977 0.189509 0.775213 -0.139606
C58   C     C_3   0.453967 0.277607 0.752105 -0.138777
C59   C     C_1   0.628601 0.163419 0.660407 -0.066815
C60   C     C_1   0.634558 0.336638 0.839847 -0.066774
H24   H     H_    0.404234 0.139327 0.795637 0.103795
H25   H     H_    0.729414 0.165000 0.871080 0.107956
H26   H     H_    0.955594 0.199584 0.746294 0.108623
C61   C     C_R   0.842098 0.673706 0.350370 0.087373
C62   C     C_R   0.754524 0.607428 0.342896 -0.135343
C63   C     C_R   0.608602 0.566231 0.389471 -0.127766
C64   C     C_R   0.547580 0.591084 0.443562 -0.095635
C65   C     C_R   0.633307 0.656909 0.451433 -0.133863
C66   C     C_R   0.780212 0.698015 0.405263 -0.149844
H27   H     H_    0.799435 0.587627 0.300961 0.112968
H28   H     H_    0.542515 0.515088 0.383609 0.106384
H29   H     H_    0.433892 0.559368 0.479337 0.105846
H30   H     H_    0.585765 0.676205 0.493331 0.114887
H31   H     H_    0.842778 0.748557 0.412837 0.120779
C67   C     C_R   0.424338 0.826263 0.149452 0.087296
C68   C     C_R   0.512469 0.892348 0.157106 -0.135464
C69   C     C_R   0.658363 0.933553 0.110520 -0.127690
C70   C     C_R   0.718769 0.908907 0.056228 -0.095617
C71   C     C_R   0.632450 0.843285 0.048166 -0.133744
C72   C     C_R   0.485590 0.802169 0.094353 -0.149603
H32   H     H_    0.468029 0.911988 0.199195 0.112950
H33   H     H_    0.724911 0.984537 0.116532 0.106161
H34   H     H_    0.832424 0.940631 0.020439 0.105843
H35   H     H_    0.679473 0.824165 0.006098 0.114907
H36   H     H_    0.422489 0.751810 0.086607 0.120731

loop_
_geom_bond_atom_site_label_1
_geom_bond_atom_site_label_2
_ccdc_geom_bond_type
C11   H3    S    
C21   C23   A    
O18   C47   A    
C50   C58   S    
C53   H26   S    
C49   C50   S    
O18   V4    S    
C24   C25   A    
C61   C62   A    
C10   C13   S    
C1    O6    A    
C33   H16   S    
C49   C56   S    
C64   C65   A    
O17   V4    S    
C42   H19   S    
C68   C69   A    
C28   C29   A    
C71   C72   A    
C2    C52   S    
C6    C10   S    
C5    C12   S    
C4    C7    S    
C19   C20   A    
C6    H1    S    
C3    C26   S    
O5    C3    A    
C21   C22   A    
C20   H9    S    
O12   C45   A    
C40   C46   S    
O11   C46   A    
C65   C66   A    
C41   H18   S    
C1    C37   S    
C31   C32   A    
C44   H20   S    
C35   C37   A    
C17   C18   A    
C67   C72   A    
C10   C15   S    
C57   C58   S    
O13   C48   A    
C72   H36   S    
O8    V2    S    
C70   H34   S    
C18   C19   A    
C50   C54   S    
C43   C44   A    
C18   H7    S    
C9    C10   S    
C61   C66   A    
O1    V2    S    
O16   V4    S    
C8    C47   S    
O19   V4    S    
O7    V1    S    
C34   H17   S    
C64   H29   S    
C45   O16   A    
H23   C58   S    
C63   H28   S    
O12   V3    S    
C41   C42   A    
C38   C41   A    
C28   H11   S    
C34   C35   A    
O9    C4    A    
H5    C29   S    
C55   C56   S    
C5    C61   S    
C62   C63   A    
O14   C46   A    
C13   C67   S    
H13   C43   S    
C66   H31   S    
C42   C43   A    
C6    C14   S    
O19   C48   A    
V4    O20   S    
O4    C2    A    
C22   C26   A    
H2    C14   S    
C11   C12   S    
O17   V3    S    
C7    C15   T    
C17   C22   A    
C35   C36   A    
O2    C1    A    
C20   C21   A    
C37   C38   A    
C53   C55   S    
C5    C6    S    
C56   C58   S    
C5    C9    S    
C39   C44   A    
C32   H15   S    
C55   C57   S    
C49   C53   S    
O3    C4    A    
C30   H12   S    
C23   C24   A    
C12   C16   S    
O6    V2    S    
C31   H14   S    
O9    V2    S    
C70   C71   A    
C24   C27   A    
C11   C13   S    
C25   C26   A    
O2    V1    S    
C57   H24   S    
C19   H8    S    
C27   C28   A    
C63   C64   A    
C54   C59   S    
C29   C30   A    
O11   V4    S    
C8    C16   T    
C45   C51   S    
O1    C2    A    
O14   V3    S    
O5    V1    S    
C56   C60   S    
O8    C3    A    
C49   H22   S    
C52   C60   T    
C12   C14   S    
C51   C59   T    
C9    H4    S    
C33   C34   A    
O4    V1    S    
O3    V1    S    
V1    O10   S    
C39   C40   A    
O15   V3    S    
C27   H10   S    
C32   C33   A    
C62   H27   S    
C71   H35   S    
O15   C47   A    
C53   C54   S    
C69   H33   S    
C25   C30   A    
C9    C11   S    
O7    V2    S    
C50   H21   S    
C38   C39   A    
C36   C40   A    
C17   H6    S    
C65   H30   S    
C68   H32   S    
C13   C14   S    
C31   C36   A    
C55   H25   S    
V3    O20   S    
C54   C57   S    
C23   C48   S    
C67   C68   A    
O13   V3    S    
V2    O10   S    
C69   C70   A    
