data_mof_unit_44467.cif
_audit_creation_date              2012-12-11T14:50:31-0500
_audit_creation_method            fapswitch 2.2
_symmetry_space_group_name_H-M    P1
_symmetry_Int_Tables_number       1
_space_group_crystal_system       triclinic
_cell_length_a                    10.950956
_cell_length_b                    10.882702
_cell_length_c                    18.684092
_cell_angle_alpha                 90.285907
_cell_angle_beta                  89.728094
_cell_angle_gamma                 60.201208
_cell_volume                      1932.18143931

loop_
_atom_site_label
_atom_site_type_symbol
_atom_type_description
_atom_site_fract_x
_atom_site_fract_y
_atom_site_fract_z
_atom_type_partial_charge
C1    C     C_R   0.226356 0.650727 0.606673 0.560479
C2    C     C_3   0.701386 0.572839 0.801556 -0.217602
C3    C     C_3   0.730008 0.696945 0.806986 0.013169
C4    C     C_3   0.677751 0.664880 0.673054 0.035920
C5    C     C_3   0.831835 0.635144 0.680907 -0.278424
C6    C     C_3   0.663032 0.559417 0.724731 -0.038352
C7    C     C_R   0.787039 0.154175 0.709242 -0.143517
C8    C     C_R   0.799153 0.143683 0.783788 -0.151798
C9    C     C_R   0.683564 0.164360 0.825602 0.030214
C10   C     C_R   0.554457 0.205770 0.792911 -0.128714
C11   C     C_R   0.546320 0.202779 0.720068 -0.154888
C12   C     C_R   0.656070 0.627517 0.598992 0.558193
C13   C     C_R   0.660637 0.180793 0.676865 0.034524
C14   C     C_R   0.184622 0.555592 0.718720 -0.160219
C15   C     C_R   0.182474 0.561713 0.793181 -0.129494
C16   C     C_R   0.151122 0.688251 0.827957 0.070176
C17   C     C_R   0.124647 0.807319 0.787460 -0.084642
C18   C     C_R   0.128975 0.800670 0.713659 -0.116316
C19   C     C_R   0.166400 0.672710 0.678724 0.032236
C20   C     C_R   0.753859 0.537534 0.275561 -0.132981
C21   C     C_R   0.748329 0.543069 0.202505 -0.130456
C22   C     C_R   0.654722 0.669271 0.168431 0.031860
C23   C     C_R   0.629273 0.225523 0.602411 0.572945
C24   C     C_R   0.553566 0.784508 0.208959 -0.129385
C25   C     C_R   0.550995 0.773905 0.283300 -0.129213
C26   C     C_R   0.653599 0.650726 0.316901 0.036167
C27   C     C_R   0.484729 0.275629 0.272614 -0.131436
C28   C     C_R   0.504640 0.236543 0.201139 -0.127466
C29   C     C_R   0.634929 0.195047 0.168315 0.034715
C30   C     C_R   0.738122 0.210048 0.204894 -0.146537
C31   C     C_R   0.719065 0.246627 0.276684 -0.136683
C32   C     C_R   0.594584 0.273509 0.311605 0.035201
C33   C     C_R   0.076076 0.819849 0.308331 -0.123994
C34   C     C_R   0.217217 0.651480 0.402324 0.536838
C35   C     C_R   0.033160 0.841527 0.237827 -0.127604
C36   C     C_R   0.043358 0.729172 0.196392 0.029316
C37   C     C_R   0.077824 0.600227 0.229233 -0.130352
C38   C     C_R   0.120929 0.578416 0.300367 -0.139918
C39   C     C_R   0.130464 0.684970 0.338278 0.031073
C40   C     C_R   0.700816 0.105101 0.896985 0.534890
C41   C     C_R   0.757398 0.712486 0.883199 0.551458
C42   C     C_R   0.112829 0.709713 0.903505 0.548114
C43   C     C_R   0.672279 0.112756 0.102397 0.543580
C44   C     C_R   0.694183 0.689041 0.096894 0.551085
C45   C     C_R   0.642130 0.622707 0.391818 0.535070
C46   C     C_R   0.024215 0.748195 0.119070 0.568759
C47   C     C_R   0.579017 0.297148 0.388470 0.567150
C48   C     C_3   0.600593 0.834234 0.778644 -0.213271
C49   C     C_3   0.580288 0.825029 0.697199 -0.121588
C50   C     C_3   0.858510 0.662214 0.759254 -0.264838
Cr1   Cr    Cr6+3 0.392930 0.397900 0.502230 1.000802
Cr2   Cr    Cr6+3 0.398240 0.708600 0.501260 1.003480
Cr3   Cr    Cr6+3 0.708800 0.393470 0.496460 1.013645
Cr4   Cr    Cr6+3 0.937620 0.938540 0.007640 1.004851
Cr5   Cr    Cr6+3 0.625150 0.937450 0.994520 1.006518
Cr6   Cr    Cr6+3 0.937990 0.625080 0.001190 1.004666
H1    H     H_    0.613990 0.927136 0.789780 0.129808
H2    H     H_    0.740875 0.449415 0.707315 0.120143
H3    H     H_    0.949841 0.564538 0.779689 0.138000
H4    H     H_    0.908691 0.523468 0.666103 0.134730
H5    H     H_    0.874779 0.142999 0.677255 0.107349
H6    H     H_    0.898309 0.116514 0.808442 0.112040
H7    H     H_    0.461371 0.227759 0.823592 0.132200
H8    H     H_    0.444535 0.230973 0.698299 0.117002
H9    H     H_    0.211741 0.455917 0.692799 0.109635
H10   H     H_    0.199479 0.469827 0.823331 0.110084
H11   H     H_    0.100484 0.906396 0.812784 0.121605
H12   H     H_    0.505757 0.850332 0.808816 0.165292
H13   H     H_    0.113487 0.892853 0.684329 0.104783
H14   H     H_    0.835094 0.441120 0.299328 0.125545
H15   H     H_    0.827067 0.451551 0.173034 0.130417
H16   H     H_    0.481290 0.883719 0.183762 0.131781
H17   H     H_    0.470641 0.861380 0.314298 0.126983
H18   H     H_    0.386784 0.299132 0.298350 0.121604
H19   H     H_    0.422036 0.228870 0.173372 0.131034
H20   H     H_    0.837836 0.182866 0.179799 0.115820
H21   H     H_    0.804957 0.245634 0.305484 0.124002
H22   H     H_    0.077103 0.905762 0.337359 0.130379
H23   H     H_    0.001298 0.943585 0.214309 0.123630
H24   H     H_    0.080204 0.513811 0.199074 0.128085
H25   H     H_    0.156064 0.475614 0.323811 0.114650
H26   H     H_    0.623978 0.886986 0.671090 0.129792
H27   H     H_    0.881566 0.750815 0.761524 0.127388
H28   H     H_    0.851937 0.703496 0.644200 0.112129
H29   H     H_    0.797243 0.471653 0.816000 0.116777
H30   H     H_    0.620066 0.586484 0.841713 0.179373
O1    O     O_R   0.507430 0.255570 0.581420 -0.534830
O2    O     O_R   0.524460 0.695920 0.424060 -0.511348
O3    O     O_R   0.736530 0.504260 0.414810 -0.540668
O4    O     O_R   0.691460 0.277160 0.422180 -0.514810
O5    O     O_3   0.499990 0.499990 0.499980 -0.232538
O6    O     O_R   0.089490 0.825610 0.930610 -0.516271
O7    O     O_R   0.818370 0.054540 0.929880 -0.508024
O8    O     O_R   0.605870 0.077310 0.915530 -0.536099
O9    O     O_R   0.646440 0.806700 0.917570 -0.502143
O10   O     O_R   0.837200 0.593290 0.915250 -0.524168
O11   O     O_R   0.065330 0.635370 0.931590 -0.517646
O12   O     O_R   0.280190 0.527390 0.578910 -0.500782
O13   O     O_R   0.068300 0.828790 0.091860 -0.510059
O14   O     O_R   0.798730 0.057480 0.079370 -0.525715
O15   O     O_R   0.584680 0.080480 0.076790 -0.521259
O16   O     O_R   0.626790 0.809640 0.067050 -0.495830
O17   O     O_R   0.816010 0.596460 0.076500 -0.531293
O18   O     O_R   0.045680 0.638310 0.081070 -0.500269
O19   O     O_3   0.833590 0.833690 0.001120 -0.284589
O20   O     O_R   0.260310 0.739740 0.584580 -0.524495
O21   O     O_R   0.532250 0.695150 0.573830 -0.489736
O22   O     O_R   0.744930 0.503430 0.576380 -0.519803
O23   O     O_R   0.699250 0.276390 0.571950 -0.471492
O24   O     O_R   0.499020 0.256400 0.419850 -0.525019
O25   O     O_R   0.272400 0.528160 0.429140 -0.527667
O26   O     O_R   0.251910 0.740570 0.423020 -0.527264
C51   C     C_3   0.419560 0.903308 0.679112 -0.240005
C52   C     C_3   0.382337 0.002764 0.614367 -0.296658
C53   C     C_3   0.224263 0.082295 0.600325 -0.445982
H31   H     H_    0.165611 0.144786 0.648350 0.131995
H32   H     H_    0.201212 0.156164 0.555036 0.134824
H33   H     H_    0.187374 0.007195 0.586108 0.171976
H34   H     H_    0.415469 0.081865 0.625060 0.162572
H35   H     H_    0.438427 0.944547 0.565154 0.186925
H36   H     H_    0.380455 0.828351 0.671451 0.232036
H37   H     H_    0.356923 0.972250 0.724746 0.126518
C54   C     C_2   0.523581 0.567127 0.721592 0.541028
O27   O     O_2   0.431622 0.632530 0.766265 -0.555942
O28   O     O_R   0.503908 0.491303 0.668085 -0.651194
H38   H     H_    0.433915 0.462732 0.683371 0.336264

loop_
_geom_bond_atom_site_label_1
_geom_bond_atom_site_label_2
_ccdc_geom_bond_type
C49   C51   S    
C46   O13   A    
C34   O26   A    
C6    H2    S    
C35   C36   A    
C40   O7    A    
C20   H14   S    
C52   C53   S    
C54   O27   D    
C41   O9    A    
Cr5   O16   S    
C33   C39   A    
Cr5   O19   S    
C50   H3    S    
Cr6   O11   S    
C28   C29   A    
C3    C41   S    
C38   C39   A    
C33   H22   S    
C54   O28   S    
C41   O10   A    
Cr2   O26   S    
C53   H31   S    
C3    C48   S    
C13   C23   S    
C2    H29   S    
C18   C19   A    
C7    H5    S    
Cr4   O7    S    
C26   C45   S    
Cr1   O5    S    
C44   O17   A    
C22   C44   S    
C51   H37   S    
C10   H7    S    
Cr2   O21   S    
C8    C9    A    
C53   H32   S    
Cr3   O5    S    
C36   C46   S    
C4    C12   S    
C27   H18   S    
C45   O3    A    
C9    C10   A    
C25   H17   S    
C52   H34   S    
C5    H4    S    
C1    O20   A    
C18   H13   S    
Cr2   O20   S    
C23   O1    A    
C21   C22   A    
C29   C43   S    
C34   O25   A    
Cr4   O14   S    
C2    C6    S    
C6    C54   S    
Cr5   O8    S    
C3    C50   S    
C50   H27   S    
C31   H21   S    
C23   O23   A    
C37   H24   S    
C17   H11   S    
C1    C19   S    
C34   C39   S    
Cr2   O2    S    
C45   O2    A    
C24   C25   A    
Cr6   O18   S    
C4    C6    S    
C11   H8    S    
C42   O11   A    
Cr1   O1    S    
C12   O22   A    
C5    H28   S    
C44   O16   A    
C16   C17   A    
C25   C26   A    
C15   H10   S    
C46   O18   A    
C9    C40   S    
C48   H12   S    
C49   H26   S    
C43   O15   A    
Cr4   O6    S    
C37   C38   A    
C30   H20   S    
C31   C32   A    
C53   H33   S    
C17   C18   A    
C43   O14   A    
Cr5   O9    S    
C48   C49   S    
C21   H15   S    
Cr1   O24   S    
C38   H25   S    
Cr3   O3    S    
O28   H38   S    
C32   C47   S    
C22   C24   A    
C5    C50   S    
C16   C42   S    
Cr3   O4    S    
Cr6   O19   S    
C24   H16   S    
C51   C52   S    
Cr3   O23   S    
Cr6   O10   S    
C36   C37   A    
Cr1   O25   S    
Cr4   O19   S    
C27   C32   A    
C14   C19   A    
Cr6   O17   S    
C40   O8    A    
C4    C5    S    
C1    O12   A    
C12   O21   A    
C47   O24   A    
Cr5   O15   S    
C4    C49   S    
C2    C3    S    
C11   C13   A    
Cr3   O22   S    
C30   C31   A    
C20   C26   A    
Cr1   O12   S    
C35   H23   S    
C33   C35   A    
C14   H9    S    
C2    H30   S    
C42   O6    A    
Cr4   O13   S    
C47   O4    A    
C7    C8    A    
C10   C11   A    
C29   C30   A    
C7    C13   A    
C48   H1    S    
C51   H36   S    
C20   C21   A    
C27   C28   A    
C14   C15   A    
Cr2   O5    S    
C28   H19   S    
C52   H35   S    
C15   C16   A    
C8    H6    S    
