data_mof_unit_37389.cif
_audit_creation_date              2012-10-26T18:43:32-0400
_audit_creation_method            fapswitch 2.2
_symmetry_space_group_name_H-M    P1
_symmetry_Int_Tables_number       1
_space_group_crystal_system       triclinic
_cell_length_a                    10.812799
_cell_length_b                    10.910133
_cell_length_c                    9.551547
_cell_angle_alpha                 91.459757
_cell_angle_beta                  89.916873
_cell_angle_gamma                 89.836656
_cell_volume                      1126.41559809

loop_
_atom_site_label
_atom_site_type_symbol
_atom_type_description
_atom_site_fract_x
_atom_site_fract_y
_atom_site_fract_z
_atom_type_partial_charge
C1    C     C_R   0.496827 0.262789 0.498757 0.575338
C2    C     C_R   0.527765 0.942418 0.621036 0.009733
C3    C     C_3   0.649807 0.944640 0.697961 0.464254
C4    C     C_R   0.260378 0.496283 0.499764 0.623315
C5    C     C_3   0.650629 0.082514 0.687012 0.493350
C6    C     C_R   0.597091 0.548828 0.074741 0.181471
C7    C     C_R   0.412585 0.438223 0.073029 0.054868
C8    C     C_R   0.412640 0.437820 0.924247 0.493220
C9    C     C_R   0.596357 0.548745 0.927000 0.003151
C10   C     C_3   0.632763 0.678077 0.922803 -0.154986
C11   C     C_3   0.637726 0.679290 0.080565 0.277525
C12   C     C_3   0.879021 0.492934 0.498930 0.035074
C13   C     C_R   0.497676 0.738095 0.501525 0.581633
C14   C     C_R   0.740254 0.496579 0.499978 0.589665
C15   C     C_3   0.073603 0.454625 0.643958 -0.277951
C16   C     C_3   0.930968 0.450099 0.645052 -0.115224
C17   C     C_3   0.073697 0.622696 0.466944 0.681654
C18   C     C_3   0.075022 0.395641 0.384332 0.396263
C19   C     C_3   0.122946 0.491860 0.498099 0.049275
C20   C     C_3   0.931034 0.627211 0.485626 -0.049307
C21   C     C_3   0.928529 0.405720 0.374030 0.241021
C22   C     C_R   0.528785 0.069278 0.616230 0.045259
C23   C     C_R   0.487231 0.130421 0.499520 0.006383
C24   C     C_R   0.430198 0.063215 0.391023 -0.146410
C25   C     C_R   0.428453 0.934299 0.393121 0.087737
C26   C     C_R   0.486542 0.872210 0.504582 0.045589
Cu1   Cu    Cu3+1 0.499990 0.499980 0.640670 1.032292
Cu2   Cu    Cu3+1 0.500010 0.500020 0.359330 1.075496
F1    F     F_    0.107798 0.654887 0.332628 -0.542774
F2    F     F_    0.642515 0.911580 0.835888 -0.661034
F3    F     F_    0.742114 0.126819 0.600692 -0.650193
F4    F     F_    0.323505 0.374792 0.854017 -0.619674
F5    F     F_    0.757759 0.690747 0.127479 -0.600671
F6    F     F_    0.126543 0.707926 0.559160 -0.619228
F7    F     F_    0.126779 0.420923 0.254792 -0.621929
H1    H     H_    0.104411 0.522181 0.725983 0.197001
H2    H     H_    0.910751 0.394695 0.156427 0.246587
H3    H     H_    0.945428 0.534862 0.215031 0.353389
H4    H     H_    0.780206 0.715045 0.401980 0.251660
H5    H     H_    0.913772 0.784434 0.373657 0.304086
H6    H     H_    0.275201 0.893945 0.281044 0.279528
H7    H     H_    0.407535 0.893499 0.187042 0.233033
H8    H     H_    0.832425 0.903366 0.673032 0.285951
H9    H     H_    0.735553 0.788789 0.632633 0.197433
H10   H     H_    0.729754 0.141719 0.870285 0.259258
H11   H     H_    0.625583 0.239571 0.807680 0.234869
H12   H     H_    0.389352 0.110062 0.303630 0.136375
H13   H     H_    0.931192 0.306032 0.779627 0.247581
H14   H     H_    0.795094 0.332811 0.708697 0.284327
H15   H     H_    0.098081 0.212206 0.334166 0.256101
H16   H     H_    0.211846 0.269569 0.430994 0.228420
H17   H     H_    0.901857 0.232141 0.461291 0.329718
H18   H     H_    0.883685 0.233373 0.288866 0.232392
H19   H     H_    0.341144 0.389403 0.127631 0.197602
H20   H     H_    0.114121 0.364840 0.672788 0.217289
H21   H     H_    0.723834 0.690014 0.870763 0.193494
H22   H     H_    0.553687 0.731712 0.882698 0.189943
H23   H     H_    0.571384 0.743657 0.132287 0.153389
H24   H     H_    0.898764 0.516168 0.728705 0.148848
H25   H     H_    0.912095 0.677703 0.586226 0.114207
N1    N     N_R   0.500800 0.500930 0.147930 -0.310199
N2    N     N_3   0.867352 0.284802 0.380954 -0.527988
N3    N     N_R   0.500800 0.500890 0.852020 -0.255264
N4    N     N_3   0.893024 0.457984 0.238164 -0.483049
N5    N     N_3   0.872409 0.697892 0.375186 -0.488738
N6    N     N_3   0.368194 0.867437 0.281768 -0.541648
N7    N     N_3   0.749565 0.882657 0.621441 -0.581717
N8    N     N_3   0.642741 0.146840 0.823129 -0.528671
N9    N     N_3   0.888971 0.328343 0.685081 -0.563664
N10   N     N_3   0.115753 0.271218 0.419772 -0.618312
O1    O     O_R   0.500000 0.319640 0.618810 -0.478424
O2    O     O_R   0.500010 0.319680 0.381230 -0.517495
O3    O     O_R   0.317690 0.499960 0.618790 -0.454848
O4    O     O_R   0.317700 0.500000 0.381210 -0.423199
O5    O     O_R   0.499990 0.680320 0.618770 -0.513325
O6    O     O_R   0.500000 0.680360 0.381190 -0.478996
O7    O     O_R   0.682300 0.500000 0.618790 -0.556919
O8    O     O_R   0.682310 0.500040 0.381210 -0.434208

loop_
_geom_bond_atom_site_label_1
_geom_bond_atom_site_label_2
_ccdc_geom_bond_type
C18   N10   S    
C18   C21   S    
C17   F1    S    
H13   N9    S    
Cu2   O4    S    
C6    C9    A    
C7    C8    A    
C15   C19   S    
C1    O1    A    
C6    N1    A    
C15   C16   S    
C17   C20   S    
C18   C19   S    
C14   O7    A    
C7    N1    A    
C21   N4    S    
C4    C19   S    
C5    C22   S    
C13   O5    A    
C2    C22   A    
C23   C24   A    
H16   N10   S    
C20   H25   S    
C11   H23   S    
Cu2   O8    S    
C18   F7    S    
C4    O4    A    
Cu2   N1    S    
H14   N9    S    
H4    N5    S    
Cu2   O2    S    
C5    N8    S    
Cu1   O5    S    
H3    N4    S    
C1    O2    A    
C16   N9    S    
C8    F4    S    
C12   C16   S    
C20   N5    S    
C11   F5    S    
C10   H22   S    
C24   C25   A    
C6    C11   S    
C3    C5    S    
C25   C26   A    
C12   C21   S    
C16   H24   S    
C15   H20   S    
C3    F2    S    
H11   N8    S    
H18   N2    S    
C13   O6    A    
C12   C20   S    
H10   N8    S    
C4    O3    A    
C2    C26   A    
C21   N2    S    
Cu1   N3    S    
C10   H21   S    
C12   C14   S    
C1    C23   S    
H5    N5    S    
C13   C26   S    
C17   F6    S    
Cu2   O6    S    
C15   H1    S    
H2    N4    S    
Cu1   O1    S    
C9    C10   S    
C9    N3    A    
C24   H12   S    
C3    N7    S    
C25   N6    S    
Cu1   O7    S    
H6    N6    S    
C2    C3    S    
H15   N10   S    
H17   N2    S    
C17   C19   S    
C14   O8    A    
C10   C11   S    
C8    N3    A    
H8    N7    S    
Cu1   Cu2   S    
H7    N6    S    
C22   C23   A    
H9    N7    S    
C7    H19   S    
Cu1   O3    S    
C5    F3    S    
