data_mof_unit_23562.cif
_audit_creation_date              2012-12-10T18:22:35-0500
_audit_creation_method            fapswitch 2.2
_symmetry_space_group_name_H-M    P1
_symmetry_Int_Tables_number       1
_space_group_crystal_system       triclinic
_cell_length_a                    23.444126
_cell_length_b                    10.662199
_cell_length_c                    9.400065
_cell_angle_alpha                 89.489053
_cell_angle_beta                  90.022004
_cell_angle_gamma                 90.057995
_cell_volume                      2349.60125499

loop_
_atom_site_label
_atom_site_type_symbol
_atom_type_description
_atom_site_fract_x
_atom_site_fract_y
_atom_site_fract_z
_atom_type_partial_charge
C1    C     C_R   0.500016 0.259248 0.500562 0.785435
C2    C     C_R   0.499986 0.740752 0.499439 0.784959
C3    C     C_R   0.239792 0.510521 0.636652 -0.135033
C4    C     C_R   0.760221 0.518693 0.635696 -0.136103
C5    C     C_R   0.299091 0.510939 0.632619 -0.214657
C6    C     C_R   0.700913 0.517980 0.631764 -0.213934
C7    C     C_R   0.328004 0.500190 0.502309 -0.037852
C8    C     C_R   0.671974 0.501874 0.502190 -0.037343
C9    C     C_R   0.296285 0.489141 0.375931 -0.227717
C10   C     C_R   0.703649 0.486831 0.376414 -0.226468
C11   C     C_R   0.236664 0.488295 0.380393 -0.096366
C12   C     C_R   0.763267 0.486891 0.380833 -0.093621
C13   C     C_R   0.208359 0.499070 0.510948 0.354084
C14   C     C_R   0.791608 0.502887 0.510658 0.351696
C15   C     C_3   0.500040 0.039033 0.635562 -0.139738
C16   C     C_3   0.499963 0.960965 0.364447 -0.139374
C17   C     C_3   0.546860 0.957402 0.566932 -0.162413
C18   C     C_3   0.453143 0.042595 0.433077 -0.163018
C19   C     C_3   0.499992 0.877793 0.498466 0.017411
C20   C     C_3   0.500011 0.122205 0.501542 0.016855
C21   C     C_3   0.453172 0.957226 0.566998 -0.163315
C22   C     C_3   0.546831 0.042772 0.433012 -0.162544
C23   C     C_R   0.390855 0.500024 0.500201 0.792869
C24   C     C_R   0.609138 0.500462 0.500148 0.793056
C25   C     C_3   0.501117 0.613321 0.049244 -0.035921
C26   C     C_3   0.498882 0.386680 0.950754 -0.036791
C27   C     C_3   0.455952 0.558690 0.948679 -0.037489
C28   C     C_3   0.544048 0.441311 0.051318 -0.036438
C29   C     C_3   0.545206 0.554587 0.948968 -0.036986
C30   C     C_3   0.454793 0.445415 0.051031 -0.038063
C31   C     C_R   0.881112 0.610454 0.544563 0.576148
C32   C     C_R   0.118834 0.386671 0.505700 0.568689
C33   C     C_R   0.880451 0.388850 0.512455 0.533661
C34   C     C_R   0.119531 0.606548 0.550920 0.541336
C35   C     C_R   0.939558 0.382701 0.537696 -0.135861
C36   C     C_R   0.060405 0.605815 0.576384 -0.136535
C37   C     C_R   0.969961 0.495191 0.555346 -0.134889
C38   C     C_R   0.030025 0.493613 0.555327 -0.134155
C39   C     C_R   0.940383 0.609328 0.571460 -0.087747
C40   C     C_R   0.059538 0.380278 0.531647 -0.086398
C41   C     C_R   0.968948 0.267397 0.552459 0.417023
C42   C     C_R   0.030872 0.712498 0.626839 0.409234
C43   C     C_R   0.028966 0.265223 0.540477 0.165886
C44   C     C_R   0.970813 0.716543 0.618039 0.185755
Cu1   Cu    Cu3+1 0.500010 0.499990 0.643150 0.932235
Cu2   Cu    Cu3+1 0.499990 0.500010 0.356850 0.933269
H1    H     H_    0.418968 0.608213 0.900438 0.109294
H2    H     H_    0.581036 0.391800 0.099559 0.110317
H3    H     H_    0.502072 0.708895 0.094986 0.112072
H4    H     H_    0.497927 0.291106 0.905011 0.112180
H5    H     H_    0.583167 0.600723 0.901036 0.108824
H6    H     H_    0.416820 0.399323 0.098970 0.110360
H7    H     H_    0.218066 0.518683 0.737815 0.119373
H8    H     H_    0.781984 0.530689 0.736328 0.122507
H9    H     H_    0.322214 0.519824 0.731794 0.149547
H10   H     H_    0.677794 0.530168 0.730398 0.148764
H11   H     H_    0.317463 0.480591 0.274114 0.147707
H12   H     H_    0.682437 0.474092 0.275193 0.147738
H13   H     H_    0.212501 0.479520 0.282794 0.132459
H14   H     H_    0.787401 0.474445 0.283805 0.133170
H15   H     H_    0.585236 0.919590 0.621580 0.132460
H16   H     H_    0.414767 0.080404 0.378429 0.132605
H17   H     H_    0.500073 0.073295 0.746743 0.127843
H18   H     H_    0.499930 0.926704 0.253265 0.127915
H19   H     H_    0.414819 0.919270 0.621700 0.131967
H20   H     H_    0.585184 0.080726 0.378309 0.132995
N1    N     N_R   0.852682 0.501186 0.517918 -0.476912
N2    N     N_R   0.147269 0.498036 0.518040 -0.475400
N3    N     N_3   0.500040 0.499970 0.858290 -0.152889
N4    N     N_3   0.499960 0.500030 0.141710 -0.152921
O1    O     O_R   0.500030 0.316850 0.620870 -0.587068
O2    O     O_R   0.499970 0.683150 0.379130 -0.587166
O3    O     O_R   0.500000 0.316860 0.379090 -0.580871
O4    O     O_R   0.500000 0.683140 0.620910 -0.581117
O5    O     O_R   0.417890 0.499960 0.620920 -0.584702
O6    O     O_R   0.582110 0.500040 0.379080 -0.582951
O7    O     O_R   0.417870 0.499970 0.379140 -0.583174
O8    O     O_R   0.582130 0.500030 0.620860 -0.584558
O9    O     O_2   0.852083 0.719545 0.540842 -0.505175
O10   O     O_2   0.147935 0.283654 0.466368 -0.516870
O11   O     O_2   0.850964 0.283802 0.481447 -0.506652
O12   O     O_2   0.149099 0.715100 0.555605 -0.511861
O13   O     O_3   0.940442 0.156311 0.584206 -0.585351
C45   C     C_3   0.914888 0.162422 0.721434 0.130935
H21   H     H_    0.884342 0.083232 0.730546 0.186301
H22   H     H_    0.889161 0.248573 0.737337 0.140027
C46   C     C_3   0.958827 0.150596 0.841788 -0.458615
H23   H     H_    0.981785 0.060734 0.831604 0.224701
H24   H     H_    0.990168 0.228619 0.835054 0.222494
C47   C     C_3   0.930217 0.154020 0.987500 -0.869121
H25   H     H_    0.908155 0.245113 0.002443 0.257512
H26   H     H_    0.962992 0.142953 0.071998 0.269452
H27   H     H_    0.898777 0.076517 0.998235 0.257323
O14   O     O_3   0.059551 0.814438 0.683810 -0.601732
C48   C     C_3   0.086221 0.780971 0.814715 0.105523
H28   H     H_    0.122437 0.846611 0.830812 0.177481
H29   H     H_    0.104905 0.685011 0.815600 0.131984
C49   C     C_3   0.045141 0.793459 0.940326 -0.432752
H30   H     H_    0.027873 0.890198 0.942733 0.226897
H31   H     H_    0.009432 0.725972 0.927970 0.225550
C50   C     C_3   0.075012 0.766013 0.081540 -0.858556
H32   H     H_    0.092104 0.668861 0.083020 0.249042
H33   H     H_    0.044081 0.775569 0.170238 0.268021
H34   H     H_    0.110540 0.833295 0.098318 0.262621
N5    N     N_2   0.057971 0.147465 0.544607 -0.366926
H35   H     H_    0.035303 0.071074 0.508655 0.289880
C51   C     C_3   0.092284 0.121297 0.669953 -0.536746
H36   H     H_    0.070426 0.052455 0.739665 0.210146
H37   H     H_    0.100897 0.207154 0.732742 0.191436
H38   H     H_    0.133596 0.080145 0.636822 0.265762
N6    N     N_2   0.941462 0.826682 0.662252 -0.359360
H39   H     H_    0.963469 0.909846 0.651296 0.293899
C52   C     C_3   0.908127 0.816090 0.792048 -0.631599
H40   H     H_    0.928567 0.869744 0.878626 0.195852
H41   H     H_    0.903271 0.717013 0.828082 0.208729
H42   H     H_    0.865044 0.855894 0.773487 0.256553

loop_
_geom_bond_atom_site_label_1
_geom_bond_atom_site_label_2
_ccdc_geom_bond_type
C46   H23   S    
C50   H32   S    
C8    C24   S    
Cu1   O1    S    
C18   C21   S    
C51   H37   S    
C27   N3    S    
C36   C42   A    
C48   H28   S    
C45   C46   S    
Cu2   O6    S    
C48   C49   S    
Cu1   Cu2   S    
C31   N1    A    
N5    C51   S    
C1    O1    A    
C28   C29   S    
C10   H12   S    
C45   H22   S    
C26   H4    S    
C33   C35   A    
C2    O2    A    
C41   O13   S    
C11   C13   A    
C18   C20   S    
C15   C17   S    
C43   N5    S    
C22   H20   S    
C17   H15   S    
C40   C43   A    
N6    H39   S    
C51   H36   S    
Cu1   O8    S    
Cu2   O2    S    
C3    C13   A    
C32   N2    A    
C52   H42   S    
C21   H19   S    
C50   H33   S    
C27   C30   S    
C41   C43   A    
C42   C44   A    
C11   H13   S    
C30   N4    S    
C29   N3    S    
C6    H10   S    
C25   C29   S    
C15   C20   S    
Cu1   N3    S    
C45   H21   S    
C4    C6    A    
C34   N2    A    
C5    C7    A    
C24   O6    A    
C6    C8    A    
Cu1   O4    S    
C37   C38   A    
C32   O10   S    
C47   H26   S    
O13   C45   S    
C14   N1    S    
N6    C52   S    
C23   O7    A    
C9    C11   A    
C10   C12   A    
C24   O8    A    
C12   C14   A    
C26   C30   S    
C50   H34   S    
C49   H31   S    
C46   H24   S    
C51   H38   S    
C23   O5    A    
C33   N1    A    
C47   H27   S    
C52   H40   S    
C29   H5    S    
C27   H1    S    
C7    C9    A    
C30   H6    S    
C28   H2    S    
C1    C20   S    
C16   C22   S    
C4    H8    S    
C2    C19   S    
C42   O14   S    
C5    H9    S    
C8    C10   A    
C28   N4    S    
C20   C22   S    
C3    C5    A    
C2    O4    A    
Cu2   O7    S    
C48   H29   S    
C31   O9    S    
C39   C44   A    
C25   C27   S    
C49   C50   S    
C34   O12   S    
N5    H35   S    
C26   C28   S    
C17   C22   S    
Cu1   O5    S    
C1    O3    A    
C36   C38   A    
C35   C37   A    
C37   C39   A    
C38   C40   A    
C3    H7    S    
C47   H25   S    
C16   C19   S    
C7    C23   S    
C17   C19   S    
C34   C36   A    
C31   C39   A    
C9    H11   S    
C32   C40   A    
C4    C14   A    
O14   C48   S    
C35   C41   A    
C25   H3    S    
Cu2   N4    S    
C12   H14   S    
C44   N6    S    
C15   C21   S    
C16   C18   S    
C49   H30   S    
C46   C47   S    
C26   N3    S    
C15   H17   S    
C18   H16   S    
C25   N4    S    
C16   H18   S    
C52   H41   S    
C33   O11   S    
Cu2   O3    S    
C19   C21   S    
C13   N2    S    
