data_mof_unit_65266.cif
_audit_creation_date              2012-10-26T17:45:11-0400
_audit_creation_method            fapswitch 2.2
_symmetry_space_group_name_H-M    P1
_symmetry_Int_Tables_number       1
_space_group_crystal_system       triclinic
_cell_length_a                    32.239
_cell_length_b                    32.238982
_cell_length_c                    23.700715
_cell_angle_alpha                 89.999273
_cell_angle_beta                  89.999338
_cell_angle_gamma                 90.0
_cell_volume                      24633.398348

loop_
_atom_site_label
_atom_site_type_symbol
_atom_type_description
_atom_site_fract_x
_atom_site_fract_y
_atom_site_fract_z
_atom_type_partial_charge
C1    C     C_R   1.000000 0.420384 0.500000 0.554682
C2    C     C_1   0.161619 1.000000 0.500000 -0.056651
C3    C     C_R   0.728324 0.969967 0.469247 -0.104035
C4    C     C_R   0.030808 0.271676 0.529298 -0.104024
C5    C     C_R   0.728323 0.030033 0.530752 -0.104035
C6    C     C_R   0.969181 0.728323 0.529278 -0.104025
C7    C     C_R   0.271676 0.969541 0.529967 -0.104032
C8    C     C_R   0.469578 0.771677 0.969963 -0.104031
C9    C     C_R   0.771677 0.529910 0.969025 -0.104033
C10   C     C_R   0.530631 0.228323 0.970358 -0.104024
C11   C     C_R   0.228324 0.469320 0.970454 -0.104028
C12   C     C_R   0.530421 0.771676 0.030037 -0.104026
C13   C     C_1   0.000000 0.838381 0.500000 -0.056621
C14   C     C_R   0.228323 0.530680 0.029546 -0.104026
C15   C     C_R   0.469369 0.228323 0.029642 -0.104029
C16   C     C_R   0.771676 0.470091 0.030975 -0.104034
C17   C     C_R   1.000000 0.293535 0.500000 0.037844
C18   C     C_R   0.293535 0.000000 0.500000 0.037855
C19   C     C_R   1.000000 0.706465 0.500000 0.037844
C20   C     C_R   0.706465 0.000000 0.500000 0.037866
C21   C     C_R   0.500000 0.793535 0.000000 0.037854
C22   C     C_R   0.793535 0.500000 0.000000 0.037869
C23   C     C_R   0.500000 0.206465 1.000000 0.037849
C24   C     C_1   0.838381 1.000000 0.500000 -0.056659
C25   C     C_R   0.206465 0.500000 0.000000 0.037847
C26   C     C_1   0.500000 0.661619 0.999999 -0.056636
C27   C     C_1   0.661619 0.500000 1.000000 -0.056655
C28   C     C_1   0.500000 0.338381 0.000000 -0.056631
C29   C     C_1   0.338381 0.500000 0.000000 -0.056637
C30   C     C_1   1.000000 0.338300 0.500000 -0.055717
C31   C     C_1   0.338300 0.000000 0.500000 -0.055716
C32   C     C_1   1.000000 0.661700 0.500000 -0.055717
C33   C     C_R   0.420384 0.000000 0.500000 0.554664
C34   C     C_1   0.661700 0.000000 0.500000 -0.055711
C35   C     C_1   0.500000 0.838300 1.000000 -0.055714
C36   C     C_1   0.838300 0.500000 1.000000 -0.055704
C37   C     C_1   0.500000 0.161700 0.000000 -0.055716
C38   C     C_1   0.161700 0.500000 0.000000 -0.055713
C39   C     C_1   1.000000 0.375767 0.500000 -0.020958
C40   C     C_1   0.375767 0.000000 0.500000 -0.020961
C41   C     C_1   1.000000 0.624233 0.500000 -0.020958
C42   C     C_1   0.624233 0.000000 0.500000 -0.020962
C43   C     C_1   0.500000 0.875767 1.000000 -0.020960
C44   C     C_R   1.000000 0.579616 0.500000 0.554682
C45   C     C_1   0.875767 0.500000 1.000000 -0.020956
C46   C     C_1   0.500000 0.124233 0.000000 -0.020959
C47   C     C_1   0.124233 0.500000 0.000000 -0.020953
C48   C     C_1   0.000000 0.124151 0.499999 -0.022587
C49   C     C_1   0.124152 1.000000 0.499999 -0.022611
C50   C     C_1   0.000000 0.875848 0.500001 -0.022587
C51   C     C_1   0.875848 1.000000 0.500001 -0.022610
C52   C     C_1   0.500000 0.624151 0.999999 -0.022592
C53   C     C_1   0.624151 0.500000 0.999999 -0.022601
C54   C     C_1   0.500000 0.375848 0.000001 -0.022592
C55   C     C_R   0.579616 0.000000 0.500000 0.554648
C56   C     C_1   0.375848 0.500000 0.000001 -0.022601
C57   C     C_R   0.000000 0.500000 0.391686 0.552713
C58   C     C_R   0.500000 0.000000 0.391686 0.552687
C59   C     C_R   1.000000 0.500000 0.608314 0.552712
C60   C     C_R   0.500000 1.000000 0.608314 0.552687
C61   C     C_R   0.500000 0.000000 0.891686 0.552700
C62   C     C_R   0.000000 0.500000 0.891686 0.552687
C63   C     C_R   0.500000 1.000000 0.108314 0.552700
C64   C     C_R   1.000000 0.500000 0.108314 0.552687
C65   C     C_R   0.079535 1.000000 0.500000 0.553765
C66   C     C_R   0.500000 0.920384 0.000000 0.554665
C67   C     C_R   0.000000 0.920465 0.500000 0.553773
C68   C     C_R   0.920465 1.000000 0.500000 0.553781
C69   C     C_R   0.000000 0.079535 0.500000 0.553773
C70   C     C_R   0.579535 0.500000 1.000000 0.553797
C71   C     C_R   0.500000 0.420465 0.000000 0.553781
C72   C     C_R   0.420465 0.500000 0.000000 0.553771
C73   C     C_R   0.500000 0.579535 1.000000 0.553788
C74   C     C_1   0.000001 0.500000 0.330905 -0.014284
C75   C     C_1   0.500000 0.000001 0.330905 -0.014304
C76   C     C_1   0.999999 0.500000 0.669095 -0.014285
C77   C     C_R   0.920384 0.500000 0.000000 0.554641
C78   C     C_1   0.500000 0.999999 0.669095 -0.014304
C79   C     C_1   0.500001 1.000000 0.830905 -0.014298
C80   C     C_1   1.000000 0.500001 0.830905 -0.014293
C81   C     C_1   0.499999 0.000000 0.169095 -0.014298
C82   C     C_1   1.000000 0.499999 0.169095 -0.014293
C83   C     C_1   0.000001 0.500000 0.279899 -0.033584
C84   C     C_1   0.500000 0.000001 0.279899 -0.033601
C85   C     C_1   0.999999 0.500000 0.720101 -0.033584
C86   C     C_1   0.500000 0.999999 0.720101 -0.033601
C87   C     C_1   0.500001 1.000000 0.779899 -0.033599
C88   C     C_R   0.500000 0.079616 0.000000 0.554672
C89   C     C_1   1.000000 0.500001 0.779899 -0.033587
C90   C     C_1   0.499999 0.000000 0.220101 -0.033599
C91   C     C_1   0.000000 0.499999 0.220101 -0.033587
C92   C     C_R   0.030809 0.228242 0.529297 -0.104299
C93   C     C_R   0.228241 0.969540 0.529967 -0.104306
C94   C     C_R   0.969181 0.771758 0.529278 -0.104288
C95   C     C_R   0.771758 0.030033 0.530752 -0.104309
C96   C     C_R   0.969191 0.228242 0.470703 -0.104289
C97   C     C_R   0.771759 0.969967 0.469248 -0.104310
C98   C     C_R   0.030819 0.771758 0.470722 -0.104298
C99   C     C_R   0.079616 0.500000 0.000000 0.554670
C100  C     C_R   0.228242 0.030460 0.470033 -0.104306
C101  C     C_R   0.530422 0.728241 0.030037 -0.104291
C102  C     C_R   0.728241 0.470090 0.030975 -0.104310
C103  C     C_R   0.469369 0.271758 0.029641 -0.104305
C104  C     C_R   0.271758 0.530680 0.029545 -0.104297
C105  C     C_R   0.469578 0.728242 0.969964 -0.104307
C106  C     C_R   0.271759 0.469319 0.970455 -0.104303
C107  C     C_R   0.530631 0.271759 0.970358 -0.104288
C108  C     C_R   0.728242 0.529910 0.969025 -0.104305
C109  C     C_R   0.000000 0.206383 0.500000 0.037957
C110  C     C_1   0.000000 0.161619 0.499999 -0.056622
C111  C     C_R   0.206383 1.000000 0.500000 0.037938
C112  C     C_R   0.000000 0.793617 0.500000 0.037958
C113  C     C_R   0.793617 1.000000 0.500000 0.037913
C114  C     C_R   0.500000 0.706383 1.000000 0.037933
C115  C     C_R   0.706383 0.500000 1.000000 0.037904
C116  C     C_R   0.500000 0.293617 0.000000 0.037946
C117  C     C_R   0.293617 0.500000 0.000000 0.037949
C118  C     C_R   0.969191 0.271677 0.470702 -0.104025
C119  C     C_R   0.271677 0.030459 0.470033 -0.104031
C120  C     C_R   0.030819 0.728324 0.470722 -0.104024
Cu1   Cu    Cu3+1 0.958970 0.500000 0.500000 0.959527
Cu2   Cu    Cu3+1 0.000000 0.000000 0.555770 0.956537
Cu3   Cu    Cu3+1 0.500000 0.500000 0.944230 0.956505
Cu4   Cu    Cu3+1 0.500000 0.500000 0.055770 0.956505
Cu5   Cu    Cu3+1 0.500000 0.041030 0.500000 0.959620
Cu6   Cu    Cu3+1 0.041030 0.500000 0.500000 0.959586
Cu7   Cu    Cu3+1 0.500000 0.958970 0.500000 0.959601
Cu8   Cu    Cu3+1 0.458970 0.000000 0.000000 0.959588
Cu9   Cu    Cu3+1 0.000000 0.541030 0.000000 0.959643
Cu10  Cu    Cu3+1 0.541030 0.000000 0.000000 0.959570
Cu11  Cu    Cu3+1 0.000000 0.458970 0.000000 0.959636
Cu12  Cu    Cu3+1 1.000000 1.000000 0.444230 0.956537
H1    H     H_    0.054795 0.288191 0.552109 0.114185
H2    H     H_    0.788191 0.446804 0.055092 0.114147
H3    H     H_    0.445521 0.211808 0.052721 0.114172
H4    H     H_    0.211808 0.554567 0.052550 0.114183
H5    H     H_    0.445893 0.788192 0.946577 0.114164
H6    H     H_    0.211809 0.445433 0.947450 0.114179
H7    H     H_    0.554479 0.211809 0.947279 0.114180
H8    H     H_    0.788192 0.553196 0.944908 0.114151
H9    H     H_    0.054796 0.211726 0.552107 0.113337
H10   H     H_    0.211726 0.945825 0.553298 0.113355
H11   H     H_    0.945185 0.788273 0.552073 0.113352
H12   H     H_    0.288191 0.945826 0.553299 0.114162
H13   H     H_    0.788273 0.053416 0.554695 0.113396
H14   H     H_    0.945204 0.211727 0.447892 0.113353
H15   H     H_    0.788274 0.946584 0.445305 0.113395
H16   H     H_    0.054815 0.788273 0.447927 0.113337
H17   H     H_    0.211727 0.054175 0.446702 0.113356
H18   H     H_    0.554107 0.711726 0.053422 0.113393
H19   H     H_    0.711726 0.446803 0.055091 0.113412
H20   H     H_    0.445520 0.288273 0.052719 0.113343
H21   H     H_    0.288273 0.554568 0.052548 0.113351
H22   H     H_    0.445893 0.711727 0.946578 0.113362
H23   H     H_    0.945186 0.711808 0.552074 0.114185
H24   H     H_    0.288274 0.445432 0.947452 0.113343
H25   H     H_    0.554479 0.288274 0.947280 0.113374
H26   H     H_    0.711727 0.553197 0.944909 0.113421
H27   H     H_    0.711808 0.053415 0.554696 0.114149
H28   H     H_    0.945205 0.288192 0.447891 0.114184
H29   H     H_    0.711809 0.946585 0.445304 0.114146
H30   H     H_    0.054814 0.711809 0.447926 0.114186
H31   H     H_    0.288192 0.054174 0.446701 0.114165
H32   H     H_    0.554107 0.788191 0.053423 0.114171
O1    O     O_R   0.965350 0.440130 0.499980 -0.501818
O2    O     O_R   0.940130 0.534650 0.999980 -0.501783
O3    O     O_R   0.534650 0.059870 0.999980 -0.501808
O4    O     O_R   0.059870 0.465350 0.999980 -0.501808
O5    O     O_R   0.534650 0.940130 0.000020 -0.501802
O6    O     O_R   0.059870 0.534650 0.000020 -0.501807
O7    O     O_R   0.465350 0.059870 0.000020 -0.501807
O8    O     O_R   0.940130 0.465350 0.000020 -0.501784
O9    O     O_R   0.059790 0.999980 0.452860 -0.501506
O10   O     O_R   0.999980 0.940210 0.452860 -0.501496
O11   O     O_R   0.940210 0.000020 0.452860 -0.501519
O12   O     O_R   0.440130 0.034650 0.499980 -0.501801
O13   O     O_R   0.000020 0.059790 0.452860 -0.501492
O14   O     O_R   0.940210 0.999980 0.547140 -0.501519
O15   O     O_R   0.000020 0.940210 0.547140 -0.501492
O16   O     O_R   0.059790 0.000020 0.547140 -0.501506
O17   O     O_R   0.999980 0.059790 0.547140 -0.501497
O18   O     O_R   0.559790 0.499980 0.952860 -0.501522
O19   O     O_R   0.499980 0.440210 0.952860 -0.501495
O20   O     O_R   0.440210 0.500020 0.952860 -0.501501
O21   O     O_R   0.500020 0.559790 0.952860 -0.501512
O22   O     O_R   0.440210 0.499980 0.047140 -0.501498
O23   O     O_R   0.034650 0.559870 0.499980 -0.501810
O24   O     O_R   0.500020 0.440210 0.047140 -0.501506
O25   O     O_R   0.559790 0.500020 0.047140 -0.501525
O26   O     O_R   0.499980 0.559790 0.047140 -0.501502
O27   O     O_R   0.965350 0.499980 0.418590 -0.501404
O28   O     O_R   0.499980 0.034650 0.418590 -0.501390
O29   O     O_R   0.034650 0.500020 0.418590 -0.501387
O30   O     O_R   0.500020 0.965350 0.418590 -0.501401
O31   O     O_R   0.034650 0.499980 0.581410 -0.501388
O32   O     O_R   0.500020 0.034650 0.581410 -0.501396
O33   O     O_R   0.965350 0.500020 0.581410 -0.501404
O34   O     O_R   0.559870 0.965350 0.499980 -0.501791
O35   O     O_R   0.499980 0.965350 0.581410 -0.501395
O36   O     O_R   0.465350 0.999980 0.918590 -0.501395
O37   O     O_R   0.999980 0.534650 0.918590 -0.501398
O38   O     O_R   0.534650 0.000020 0.918590 -0.501398
O39   O     O_R   0.000020 0.465350 0.918590 -0.501388
O40   O     O_R   0.534650 0.999980 0.081410 -0.501402
O41   O     O_R   0.000020 0.534650 0.081410 -0.501387
O42   O     O_R   0.465350 0.000020 0.081410 -0.501391
O43   O     O_R   0.999980 0.465350 0.081410 -0.501399
O44   O     O_R   0.034650 0.440130 0.500020 -0.501810
O45   O     O_R   0.559870 0.034650 0.500020 -0.501788
O46   O     O_R   0.965350 0.559870 0.500020 -0.501819
O47   O     O_R   0.440130 0.965350 0.500020 -0.501804
O48   O     O_R   0.465350 0.940130 0.999980 -0.501801

loop_
_geom_bond_atom_site_label_1
_geom_bond_atom_site_label_2
_ccdc_geom_bond_type
C48   C110  T    
C17   C30   S    
C66   O5    A    
C118  H28   S    
C95   H13   S    
C71   O24   A    
C16   H2    S    
C8    C105  A    
Cu4   O26   S    
Cu10  O40   S    
Cu3   Cu4   S    
C99   O6    A    
C9    C108  A    
Cu2   O16   S    
C6    C19   A    
C60   C78   S    
C92   C109  A    
C49   C65   S    
Cu9   O2    S    
C63   C81   S    
C94   H11   S    
C108  C115  A    
C62   C80   S    
Cu6   O23   S    
C11   H6    S    
C59   O33   A    
C57   O27   A    
C13   C112  S    
C43   C66   S    
C25   C38   S    
C9    H8    S    
C9    C22   A    
C55   O34   A    
C15   H3    S    
C11   C25   A    
Cu10  O5    S    
C101  H18   S    
C61   C79   S    
C47   C99   S    
C31   C40   T    
C4    C92   A    
Cu2   Cu12  S    
C80   C89   T    
C1    O44   A    
C33   O12   A    
Cu4   O25   S    
Cu3   O19   S    
C102  C115  A    
C28   C116  S    
C60   O35   A    
C69   O13   A    
Cu6   O31   S    
C70   O18   A    
Cu2   O17   S    
C54   C71   S    
Cu6   O44   S    
C5    H27   S    
C63   O42   A    
C34   C42   T    
C16   C22   A    
C32   C41   T    
C104  H21   S    
C94   C112  A    
C35   C43   T    
C50   C67   S    
C48   C69   S    
C73   O26   A    
Cu10  O38   S    
C120  H30   S    
C102  H19   S    
C51   C68   S    
C20   C34   S    
C78   C86   T    
C24   C51   T    
C15   C23   A    
C105  H22   S    
Cu11  O43   S    
C24   C113  S    
C88   O7    A    
C101  C114  A    
C97   H15   S    
C10   C107  A    
C3    H29   S    
C84   C90   S    
Cu8   O7    S    
C19   C32   S    
Cu10  O3    S    
C61   O36   A    
C79   C87   T    
C7    H12   S    
C107  H25   S    
C68   O11   A    
C58   C75   S    
C46   C88   S    
Cu2   O15   S    
C7    C93   A    
C64   O43   A    
Cu11  O8    S    
C33   C40   S    
C98   C112  A    
C63   O40   A    
C59   C76   S    
C74   C83   T    
C71   O19   A    
C105  C114  A    
C3    C20   A    
C72   O20   A    
C52   C73   S    
Cu7   O30   S    
C119  H31   S    
C5    C20   A    
C28   C54   T    
C86   C87   S    
Cu5   O32   S    
C59   O31   A    
C77   O2    A    
C23   C37   S    
C29   C117  S    
C12   C21   A    
C58   O30   A    
C82   C91   T    
C57   O29   A    
C8    H5    S    
Cu12  O11   S    
C57   C74   S    
Cu3   O21   S    
Cu8   O36   S    
C62   O37   A    
Cu1   O27   S    
Cu3   O20   S    
C65   O9    A    
C2    C49   T    
C26   C52   T    
C61   O38   A    
C12   H32   S    
Cu9   O41   S    
C3    C97   A    
C14   C104  A    
C1    O1    A    
C88   O3    A    
C7    C18   A    
C72   O22   A    
C11   C106  A    
C8    C21   A    
C36   C45   T    
C100  C119  A    
Cu12  O10   S    
Cu1   O46   S    
C19   C120  A    
C92   H9    S    
C64   C82   S    
C38   C47   T    
Cu9   O6    S    
C103  H20   S    
C93   C111  A    
C4    C17   A    
C17   C118  A    
C16   C102  A    
C29   C56   T    
Cu11  O4    S    
C85   C89   S    
C106  C117  A    
C58   O28   A    
C100  H17   S    
C41   C44   S    
C10   H7    S    
C81   C90   T    
C97   C113  A    
C83   C91   S    
Cu7   O34   S    
Cu11  O39   S    
C60   O32   A    
Cu4   O24   S    
C99   O4    A    
C64   O41   A    
Cu7   O47   S    
C26   C114  S    
Cu2   O14   S    
Cu5   O45   S    
C62   O39   A    
C14   H4    S    
C56   C72   S    
C2    C111  S    
C6    H23   S    
C53   C70   S    
Cu8   Cu10  S    
Cu1   O33   S    
C73   O21   A    
C27   C53   T    
C98   C120  A    
C21   C35   S    
C65   O16   A    
C10   C23   A    
Cu3   O18   S    
C22   C36   S    
C96   C109  A    
C104  C117  A    
C106  H24   S    
C55   O45   A    
Cu7   O35   S    
C103  C116  A    
C42   C55   S    
Cu9   O37   S    
Cu1   Cu6   S    
C67   O15   A    
C109  C110  S    
Cu8   O48   S    
C96   C118  A    
C33   O47   A    
Cu6   O29   S    
C6    C94   A    
C5    C95   A    
C98   H16   S    
C95   C113  A    
C77   O8    A    
C76   C85   T    
Cu12  O13   S    
C68   O14   A    
Cu4   O22   S    
Cu1   O1    S    
C30   C39   T    
Cu5   O28   S    
C44   O46   A    
Cu12  O9    S    
Cu8   O42   S    
C14   C25   A    
C75   C84   T    
C107  C116  A    
C1    C39   S    
C44   O23   A    
C13   C50   T    
C12   C101  A    
C108  H26   S    
C100  C111  A    
C96   H14   S    
Cu5   Cu7   S    
C45   C77   S    
C18   C31   S    
C67   O10   A    
C15   C103  A    
C37   C46   T    
Cu5   O12   S    
C66   O48   A    
C18   C119  A    
C93   H10   S    
C70   O25   A    
C69   O17   A    
C4    H1    S    
Cu9   Cu11  S    
C27   C115  S    
