data_mof_unit_50225.cif
_audit_creation_date              2012-12-11T16:38:04-0500
_audit_creation_method            fapswitch 2.2
_symmetry_space_group_name_H-M    P1
_symmetry_Int_Tables_number       1
_space_group_crystal_system       triclinic
_cell_length_a                    8.260531
_cell_length_b                    17.469083
_cell_length_c                    19.122308
_cell_angle_alpha                 99.47432
_cell_angle_beta                  92.030981
_cell_angle_gamma                 96.769015
_cell_volume                      2698.571351

loop_
_atom_site_label
_atom_site_type_symbol
_atom_type_description
_atom_site_fract_x
_atom_site_fract_y
_atom_site_fract_z
_atom_type_partial_charge
Ba1   Ba    Ba6+2 0.849990 0.533510 0.465310 1.712208
Ba2   Ba    Ba6+2 0.339840 0.466550 0.534700 1.704930
C1    C     C_3   0.679856 0.833603 0.309303 -0.266541
C2    C     C_R   0.015928 0.528444 0.726833 0.055097
C3    C     C_R   0.852797 0.435120 0.813005 -0.166584
C4    C     C_3   0.102332 0.701629 0.274399 0.372959
C5    C     C_R   0.785814 0.438471 0.745580 0.000040
C6    C     C_R   0.326179 0.574222 0.190520 -0.190841
C7    C     C_R   0.395303 0.569809 0.257407 0.031898
C8    C     C_R   0.134275 0.461490 0.199986 -0.050918
C9    C     C_R   0.171314 0.474816 0.274235 0.058119
C10   C     C_R   0.979514 0.493073 0.846362 -0.009923
C11   C     C_R   0.877769 0.477703 0.700304 -0.249092
C12   C     C_3   0.633467 0.751595 0.325182 0.295076
C13   C     C_R   0.201794 0.515412 0.156344 0.004129
C14   C     C_R   0.306569 0.527318 0.301599 -0.143377
C15   C     C_R   0.755168 0.457598 0.961123 -0.070872
C16   C     C_3   0.075031 0.727524 0.203057 0.254431
C17   C     C_R   0.651394 0.426972 0.007882 -0.047177
C18   C     C_R   0.701236 0.436607 0.078548 -0.007039
C19   C     C_R   0.857166 0.472647 0.100703 -0.083868
C20   C     C_R   0.977891 0.486946 0.052294 0.013325
C21   C     C_R   0.924112 0.480561 0.978747 0.051298
C22   C     C_R   0.145264 0.510478 0.076891 0.000154
C23   C     C_3   0.414379 0.288121 0.310507 0.690320
C24   C     C_R   0.256553 0.529506 0.024315 0.053750
C25   C     C_R   0.203082 0.521694 0.950591 0.022235
C26   C     C_R   0.035686 0.498740 0.926035 -0.000779
C27   C     C_R   0.424999 0.554447 0.042059 -0.074957
C28   C     C_3   0.224208 0.707762 0.621868 0.306023
C29   C     C_R   0.527707 0.584720 0.994675 -0.061728
C30   C     C_R   0.478554 0.572377 0.923716 -0.057554
C31   C     C_R   0.324090 0.534139 0.901961 -0.087880
C32   C     C_R   0.406758 0.718164 0.471821 -0.310336
C33   C     C_R   0.554091 0.745397 0.510319 0.060115
C34   C     C_3   0.327310 0.213888 0.264155 -0.239692
C35   C     C_R   0.615143 0.824757 0.520194 -0.140674
C36   C     C_R   0.526710 0.877418 0.492309 -0.035554
C37   C     C_R   0.373596 0.850331 0.456091 -0.089748
C38   C     C_R   0.313182 0.770364 0.446854 -0.012741
C39   C     C_R   0.583057 0.159168 0.489931 0.372449
C40   C     C_3   0.249587 0.796575 0.640368 -0.364139
C41   C     C_R   0.635136 0.241081 0.496023 -0.042223
C42   C     C_R   0.886557 0.225804 0.559792 0.021952
C43   C     C_R   0.837702 0.145636 0.554079 -0.177521
C44   C     C_R   0.686606 0.112201 0.519993 -0.092238
C45   C     C_3   0.089352 0.310775 0.731879 0.338800
C46   C     C_1   0.640662 0.028375 0.512564 0.127143
C47   C     C_1   0.591048 0.959317 0.503719 0.083090
C48   C     C_R   0.783102 0.273083 0.533117 -0.368652
C49   C     C_3   0.962642 0.292459 0.378273 0.259865
C50   C     C_3   0.901856 0.205820 0.355667 -0.361711
C51   C     C_3   0.709966 0.639609 0.678141 0.313551
C52   C     C_3   0.724852 0.662371 0.758576 -0.381501
C53   C     C_3   0.119002 0.291253 0.805923 0.370720
C54   C     C_3   0.554237 0.257014 0.684942 0.331183
C55   C     C_3   0.499643 0.175640 0.700721 -0.268612
C56   C     C_R   0.050441 0.544698 0.801349 -0.151004
Cl1   Cl    Cl    0.210844 0.813268 0.197531 -0.623592
H1    H     H_    0.689491 0.748164 0.378016 0.064620
H2    H     H_    0.826351 0.621284 0.659159 -0.001599
H3    H     H_    0.611226 0.589981 0.664217 0.083510
H4    H     H_    0.814665 0.847138 0.309964 0.160659
H5    H     H_    0.829782 0.708616 0.774757 0.133977
H6    H     H_    0.744086 0.610738 0.783210 0.057502
H7    H     H_    0.611037 0.684428 0.778043 0.132349
H8    H     H_    0.498385 0.741172 0.325645 -0.038113
H9    H     H_    0.632498 0.877176 0.349824 0.091830
H10   H     H_    0.324224 0.319504 0.341363 -0.027534
H11   H     H_    0.277860 0.170834 0.296480 0.140774
H12   H     H_    0.342868 0.815602 0.685044 0.133369
H13   H     H_    0.224061 0.228191 0.231917 0.111167
H14   H     H_    0.413422 0.185547 0.227977 0.154066
H15   H     H_    0.626447 0.838114 0.256231 0.166607
H16   H     H_    0.097475 0.680387 0.159340 -0.013127
H17   H     H_    0.159937 0.368549 0.729799 0.009830
H18   H     H_    0.957497 0.313949 0.722345 -0.059436
H19   H     H_    0.105118 0.342678 0.846791 -0.058508
H20   H     H_    0.245385 0.276848 0.812453 0.075137
H21   H     H_    0.689770 0.266370 0.688875 -0.014453
H22   H     H_    0.509086 0.259408 0.630094 0.050708
H23   H     H_    0.291534 0.822399 0.594081 0.067569
H24   H     H_    0.557216 0.131556 0.664541 0.059407
H25   H     H_    0.365090 0.161676 0.692708 0.171138
H26   H     H_    0.028584 0.643802 0.273015 -0.000645
H27   H     H_    0.536348 0.172213 0.756396 0.171232
H28   H     H_    0.137464 0.595048 0.822659 0.076113
H29   H     H_    0.800662 0.388472 0.839000 0.130923
H30   H     H_    0.375171 0.622260 0.165351 0.092540
H31   H     H_    0.049377 0.410671 0.177665 0.095299
H32   H     H_    0.835811 0.472849 0.645334 0.061642
H33   H     H_    0.349839 0.530808 0.356229 0.066041
H34   H     H_    0.132923 0.818483 0.655966 0.136931
H35   H     H_    0.695301 0.467035 0.913285 0.069279
H36   H     H_    0.525514 0.405060 0.991066 0.099725
H37   H     H_    0.614848 0.422139 0.117002 0.182665
H38   H     H_    0.233725 0.696350 0.282387 -0.071343
H39   H     H_    0.879517 0.490183 0.156386 0.119928
H40   H     H_    0.485898 0.546688 0.090267 0.077870
H41   H     H_    0.652976 0.608047 0.011373 0.082574
H42   H     H_    0.564763 0.586265 0.884955 0.082530
H43   H     H_    0.302464 0.513379 0.846585 0.125207
H44   H     H_    0.300923 0.890968 0.436719 0.154427
H45   H     H_    0.860952 0.322915 0.400418 0.024485
H46   H     H_    0.918659 0.109165 0.574766 0.131019
H47   H     H_    0.729518 0.845544 0.550679 0.093870
H48   H     H_    0.359442 0.656842 0.465718 0.064379
H49   H     H_    0.947202 0.739862 0.196120 0.101395
H50   H     H_    0.823950 0.334853 0.536597 0.072297
H51   H     H_    0.342077 0.686744 0.608359 0.003217
H52   H     H_    0.134694 0.690404 0.575639 0.065430
H53   H     H_    0.736629 0.302893 0.252643 0.351094
H54   H     H_    0.864800 0.102796 0.756402 0.355527
H55   H     H_    0.157474 0.136831 0.418776 0.347979
H56   H     H_    0.062904 0.299119 0.419767 0.076438
H57   H     H_    0.791301 0.197824 0.319356 0.162337
H58   H     H_    0.872152 0.178496 0.402695 0.058877
H59   H     H_    0.996815 0.175384 0.327187 0.133307
O1    O     O_2   0.880230 0.446130 0.326290 -0.407323
O2    O     O_2   0.223070 0.234197 0.551368 -0.421335
O3    O     O_3   0.142380 0.252901 0.681293 -0.571697
O4    O     O_3   0.127880 0.453050 0.414940 -0.503733
O5    O     O_3   0.568990 0.594210 0.536150 -0.497466
O6    O     O_2   0.359830 0.311600 0.465710 -0.434034
O7    O     O_3   0.540405 0.268137 0.352798 -0.659974
O8    O     O_2   0.462374 0.463548 0.757825 -0.512645
O9    O     O_3   0.489388 0.313047 0.733700 -0.587643
O10   O     O_3   0.652660 0.587690 0.369690 -0.445841
O11   O     O_2   0.717908 0.549217 0.238947 -0.460832
O12   O     O_3   0.675113 0.704379 0.648476 -0.629602
O13   O     O_3   0.019753 0.322129 0.318775 -0.645587
O14   O     O_3   0.692542 0.697513 0.272871 -0.607839
O15   O     O_2   0.829870 0.688430 0.534340 -0.458472
O16   O     O_3   0.069940 0.629350 0.405460 -0.504136
O17   O     O_2   0.982332 0.768956 0.459971 -0.479331
O18   O     O_2   0.382054 0.358267 0.196405 -0.351422
O19   O     O_2   0.563911 0.426936 0.296784 -0.307634
O20   O     O_3   0.662383 0.310295 0.213366 -0.496958
O21   O     O_2   0.037422 0.181082 0.885565 -0.230864
O22   O     O_2   0.813520 0.237000 0.832908 -0.330714
O23   O     O_3   0.053751 0.757066 0.328588 -0.571371
O24   O     O_3   0.964371 0.138064 0.750263 -0.510743
O25   O     O_2   0.444950 0.060706 0.375694 -0.284226
O26   O     O_2   0.312976 0.057244 0.487582 -0.330861
O27   O     O_3   0.265849 0.168048 0.419676 -0.529525
O28   O     O_2   0.309470 0.553890 0.673760 -0.472296
O29   O     O_3   0.061830 0.547010 0.585070 -0.499196
O30   O     O_3   0.537040 0.412370 0.630320 -0.480741
O31   O     O_3   0.166560 0.677953 0.681067 -0.629406
O32   O     O_3   0.620720 0.405850 0.463860 -0.457724
O33   O     O_3   0.119760 0.370720 0.594550 -0.496608
P1    P     P_3+3 0.050120 0.424430 0.337400 1.011917
P2    P     P_3+3 0.655220 0.678730 0.555760 0.979354
P3    P     P_3+3 0.105576 0.731584 0.410431 0.965067
P4    P     P_3+3 0.139590 0.575630 0.662610 0.975477
P5    P     P_3+3 0.091423 0.270388 0.596357 1.004266
P6    P     P_3+3 0.612121 0.603392 0.283726 1.010905
P7    P     P_3+3 0.539554 0.306209 0.444207 1.041090
P8    P     P_3+3 0.569957 0.405740 0.718857 0.936835
S1    S     S_3+6 0.505142 0.348967 0.253007 -0.103971
S2    S     S_3+6 0.978363 0.210496 0.820884 -0.055405
S3    S     S_3+6 0.399090 0.110139 0.442247 -0.079599

loop_
_geom_bond_atom_site_label_1
_geom_bond_atom_site_label_2
_ccdc_geom_bond_type
Ba2   O32   S    
C37   H44   S    
Ba2   P4    S    
O3    P5    S    
C40   H34   S    
C1    H9    S    
C40   H23   S    
Ba1   O10   S    
C41   P7    S    
C56   H28   S    
O24   S2    S    
O11   P6    D    
C54   H22   S    
C36   C47   S    
C12   O14   S    
O8    P8    D    
C25   C31   A    
C24   C25   A    
C16   H16   S    
O17   P3    D    
C28   H51   S    
C32   C38   A    
C32   H48   S    
C33   C35   A    
C7    C14   A    
C22   C24   A    
C45   H17   S    
C32   C33   A    
C8    C13   A    
C36   C37   A    
O23   P3    S    
C45   O3    S    
C5    P8    S    
O27   S3    S    
Ba2   O30   S    
O2    P5    D    
C55   H27   S    
Ba1   P1    S    
Ba1   Ba2   S    
Ba1   O1    S    
C54   O9    S    
C2    C11   A    
C1    H15   S    
C23   O7    S    
Ba1   O4    S    
C3    H29   S    
C51   H2    S    
O28   P4    D    
C17   C18   A    
C34   H11   S    
C6    C7    A    
O6    P7    D    
C12   H8    S    
C55   H24   S    
O29   P4    S    
O25   S3    D    
C10   C56   A    
C50   H58   S    
Ba2   O4    S    
C18   H37   S    
C39   S3    S    
C11   H32   S    
C39   C41   A    
C38   P3    S    
O13   P1    S    
Ba1   O15   S    
C52   H6    S    
C43   H46   S    
O10   P6    S    
C50   H57   S    
C4    C16   S    
C44   C46   S    
C27   H40   S    
C49   C50   S    
C42   P5    S    
C4    H38   S    
H53   O20   S    
O21   S2    D    
C53   S2    S    
C3    C10   A    
C8    C9    A    
C37   C38   A    
C3    C5    A    
C53   H19   S    
C49   O13   S    
O7    P7    S    
C28   O31   S    
C15   H35   S    
C49   H45   S    
C43   C44   A    
C48   H50   S    
C49   H56   S    
C31   H43   S    
O30   P8    S    
O4    P1    S    
Ba1   O5    S    
C35   C36   A    
O20   S1    S    
C53   H20   S    
C51   H3    S    
C9    P1    S    
C29   C30   A    
C7    P6    S    
C39   C44   A    
C23   S1    S    
C55   H25   S    
Ba1   O32   S    
C15   C21   A    
C29   H41   S    
C4    O23   S    
Ba1   P2    S    
C4    H26   S    
C1    C12   S    
C52   H7    S    
C46   C47   T    
C10   C26   S    
C14   H33   S    
C6    C13   A    
Ba2   O6    S    
O15   P2    D    
Ba1   O29   S    
C21   C26   A    
C54   C55   S    
C45   H18   S    
Ba1   O16   S    
O9    P8    S    
C17   H36   S    
C42   C43   A    
C45   C53   S    
O5    P2    S    
C42   C48   A    
O1    P1    D    
C13   C22   S    
O32   P7    S    
O19   S1    D    
O26   S3    D    
C30   H42   S    
C33   P2    S    
H55   O27   S    
Ba2   O29   S    
C41   C48   A    
C51   C52   S    
C51   O12   S    
C1    H4    S    
Ba2   O28   S    
C12   H1    S    
O14   P6    S    
C54   H21   S    
C28   H52   S    
C30   C31   A    
O22   S2    D    
C35   H47   S    
C27   C29   A    
Ba2   O33   S    
C19   H39   S    
O16   P3    S    
C52   H5    S    
C40   H12   S    
C15   C17   A    
O12   P2    S    
C20   C22   A    
O31   P4    S    
C16   H49   S    
C9    C14   A    
C34   H14   S    
C23   C34   S    
O18   S1    D    
O33   P5    S    
C16   Cl1   S    
C5    C11   A    
C2    P4    S    
C23   H10   S    
C18   C19   A    
C8    H31   S    
C24   C27   A    
C2    C56   A    
C25   C26   A    
C20   C21   A    
C28   C40   S    
C6    H30   S    
H54   O24   S    
C19   C20   A    
Ba2   O5    S    
C34   H13   S    
C50   H59   S    
