data_mof_unit_32074.cif
_audit_creation_date              2012-12-10T18:09:35-0500
_audit_creation_method            fapswitch 2.2
_symmetry_space_group_name_H-M    P1
_symmetry_Int_Tables_number       1
_space_group_crystal_system       triclinic
_cell_length_a                    15.173158
_cell_length_b                    15.16384
_cell_length_c                    9.456956
_cell_angle_alpha                 90.112902
_cell_angle_beta                  89.921049
_cell_angle_gamma                 90.053564
_cell_volume                      2175.88078921

loop_
_atom_site_label
_atom_site_type_symbol
_atom_type_description
_atom_site_fract_x
_atom_site_fract_y
_atom_site_fract_z
_atom_type_partial_charge
C1    C     C_R   0.120067 0.379907 0.500046 0.736891
C2    C     C_R   0.120009 0.620174 0.500231 0.756447
C3    C     C_R   0.620070 0.879910 0.500046 0.736885
C4    C     C_R   0.620008 0.120176 0.500230 0.756457
C5    C     C_3   0.067575 0.437204 0.083512 -0.439031
C6    C     C_3   0.064878 0.434435 0.915857 -0.440856
C7    C     C_3   0.567570 0.937198 0.083514 -0.438940
C8    C     C_3   0.564872 0.934430 0.915859 -0.440954
C9    C     C_R   0.879926 0.380048 0.500188 0.753072
C10   C     C_R   0.880073 0.620161 0.500250 0.788495
C11   C     C_R   0.379927 0.880048 0.500188 0.753048
C12   C     C_R   0.380070 0.120158 0.500250 0.788500
C13   C     C_3   0.785003 0.286510 0.655011 -0.381936
C14   C     C_3   0.844940 0.227005 0.425174 -0.384416
C15   C     C_3   0.785769 0.715089 0.654495 -0.370721
C16   C     C_3   0.844791 0.772913 0.423679 -0.368461
C17   C     C_3   0.285015 0.786497 0.655012 -0.381957
C18   C     C_3   0.344936 0.727008 0.425153 -0.384408
C19   C     C_3   0.285726 0.215044 0.654497 -0.370597
C20   C     C_3   0.344804 0.272926 0.423752 -0.368513
C21   C     C_3   0.213695 0.715065 0.655053 -0.372482
C22   C     C_3   0.272906 0.655060 0.425064 -0.385942
C23   C     C_3   0.214014 0.285846 0.654493 -0.388112
C24   C     C_3   0.272931 0.344946 0.424147 -0.393013
C25   C     C_3   0.713684 0.215076 0.655053 -0.372502
C26   C     C_3   0.772910 0.155057 0.425081 -0.385941
C27   C     C_3   0.714046 0.785880 0.654492 -0.388035
C28   C     C_3   0.772922 0.844937 0.424090 -0.393037
C29   C     C_3   0.727370 0.344721 0.423495 -0.380866
C30   C     C_3   0.727213 0.655005 0.424453 -0.375578
C31   C     C_3   0.227366 0.844724 0.423516 -0.380854
C32   C     C_3   0.227226 0.155018 0.424383 -0.375581
C33   C     C_3   0.810839 0.311115 0.500924 0.167217
C34   C     C_3   0.811008 0.689216 0.500724 0.137251
C35   C     C_3   0.310841 0.811114 0.500924 0.167233
C36   C     C_3   0.311003 0.189210 0.500725 0.137214
C37   C     C_3   0.188939 0.689242 0.500994 0.158980
C38   C     C_3   0.189048 0.310962 0.500504 0.184649
C39   C     C_3   0.688938 0.189244 0.500993 0.158974
C40   C     C_3   0.689052 0.810967 0.500503 0.184640
C41   C     C_3   0.155299 0.772789 0.423757 -0.372262
C42   C     C_3   0.155324 0.227016 0.423808 -0.392432
C43   C     C_3   0.655302 0.272786 0.423738 -0.372248
C44   C     C_3   0.655315 0.727007 0.423862 -0.392434
C45   C     C_3   0.025338 0.588482 0.083784 0.333878
C46   C     C_3   0.030488 0.586798 0.916302 0.331688
C47   C     C_3   0.914821 0.469726 0.084868 0.306051
C48   C     C_3   0.913468 0.474319 0.916791 0.312036
C49   C     C_3   0.525355 0.088480 0.083782 0.333495
C50   C     C_3   0.530484 0.086799 0.916291 0.331917
C51   C     C_3   0.414821 0.969728 0.084862 0.305980
C52   C     C_3   0.413463 0.974337 0.916789 0.312252
Cu1   Cu    Cu3+1 0.000100 0.500000 0.642410 0.961247
Cu2   Cu    Cu3+1 0.000100 0.500000 0.357590 0.960819
Cu3   Cu    Cu3+1 0.500100 0.000000 0.642410 0.961308
Cu4   Cu    Cu3+1 0.500100 1.000000 0.357590 0.960793
H1    H     H_    0.759964 0.345731 0.712117 0.184908
H2    H     H_    0.863816 0.242507 0.314171 0.157923
H3    H     H_    0.761359 0.656357 0.713052 0.192622
H4    H     H_    0.862754 0.756833 0.312530 0.200177
H5    H     H_    0.259981 0.845715 0.712133 0.184881
H6    H     H_    0.363804 0.742518 0.314149 0.157925
H7    H     H_    0.261290 0.156298 0.712990 0.192659
H8    H     H_    0.362803 0.256871 0.312609 0.200106
H9    H     H_    0.843704 0.261956 0.713479 0.153357
H10   H     H_    0.904877 0.201852 0.479510 0.139947
H11   H     H_    0.844551 0.741131 0.710968 0.181225
H12   H     H_    0.905190 0.798342 0.476637 0.149340
H13   H     H_    0.343721 0.761938 0.713465 0.153354
H14   H     H_    0.404878 0.701852 0.479473 0.139946
H15   H     H_    0.344496 0.241058 0.711037 0.181265
H16   H     H_    0.405186 0.298347 0.476773 0.149358
H17   H     H_    0.238351 0.656325 0.713353 0.153759
H18   H     H_    0.297985 0.594991 0.479168 0.140379
H19   H     H_    0.238365 0.344952 0.712669 0.160878
H20   H     H_    0.298268 0.405099 0.478211 0.141842
H21   H     H_    0.738337 0.156340 0.713366 0.153765
H22   H     H_    0.797984 0.094990 0.479197 0.140377
H23   H     H_    0.738397 0.844998 0.712634 0.160865
H24   H     H_    0.798273 0.905095 0.478123 0.141852
H25   H     H_    0.154579 0.740064 0.712352 0.195771
H26   H     H_    0.257309 0.636308 0.314009 0.158410
H27   H     H_    0.155065 0.260589 0.711925 0.160917
H28   H     H_    0.257138 0.363509 0.313212 0.163237
H29   H     H_    0.654564 0.240078 0.712339 0.195745
H30   H     H_    0.757319 0.136300 0.314026 0.158411
H31   H     H_    0.655110 0.760622 0.711957 0.160926
H32   H     H_    0.757107 0.863488 0.313158 0.163246
H33   H     H_    0.701992 0.405271 0.476325 0.150370
H34   H     H_    0.743684 0.362451 0.312369 0.166812
H35   H     H_    0.701815 0.594996 0.478583 0.147872
H36   H     H_    0.743139 0.636175 0.313540 0.197902
H37   H     H_    0.201991 0.905270 0.476362 0.150366
H38   H     H_    0.243672 0.862462 0.312390 0.166804
H39   H     H_    0.201820 0.094990 0.478451 0.147861
H40   H     H_    0.243177 0.136223 0.313463 0.197915
H41   H     H_    0.095045 0.798354 0.477106 0.151690
H42   H     H_    0.137070 0.756471 0.312756 0.185506
H43   H     H_    0.094931 0.201757 0.477100 0.141391
H44   H     H_    0.137312 0.242789 0.312634 0.161717
H45   H     H_    0.595046 0.298356 0.477074 0.151688
H46   H     H_    0.637079 0.256461 0.312736 0.185535
H47   H     H_    0.594926 0.701761 0.477185 0.141383
H48   H     H_    0.637290 0.742758 0.312686 0.161714
H49   H     H_    0.093210 0.604554 0.120179 0.096438
H50   H     H_    0.101732 0.594915 0.890353 0.088910
H51   H     H_    0.906521 0.398638 0.113417 0.060524
H52   H     H_    0.899097 0.405759 0.881490 0.096845
H53   H     H_    0.593238 0.104527 0.120152 0.096514
H54   H     H_    0.601725 0.094919 0.890327 0.088856
H55   H     H_    0.406523 0.898636 0.113393 0.060509
H56   H     H_    0.399068 0.905788 0.881466 0.096789
H57   H     H_    0.135012 0.455834 0.118936 0.170544
H58   H     H_    0.132325 0.447017 0.874178 0.180329
H59   H     H_    0.055803 0.369556 0.124854 0.183653
H60   H     H_    0.047205 0.366673 0.880315 0.173560
H61   H     H_    0.635009 0.955821 0.118938 0.170540
H62   H     H_    0.632320 0.947008 0.874181 0.180342
H63   H     H_    0.555793 0.869551 0.124856 0.183642
H64   H     H_    0.547192 0.866671 0.880317 0.173565
N1    N     N_3   0.001260 0.500000 0.143650 -0.151748
N2    N     N_3   0.001260 0.500000 0.856350 -0.161549
N3    N     N_3   0.501260 1.000000 0.143650 -0.151723
N4    N     N_3   0.501260 1.000000 0.856350 -0.161509
O1    O     O_R   0.091250 0.408820 0.620260 -0.603801
O2    O     O_R   0.091250 0.408820 0.379740 -0.601935
O3    O     O_R   0.091250 0.591180 0.620260 -0.563244
O4    O     O_R   0.091250 0.591180 0.379740 -0.579831
O5    O     O_R   0.591250 0.908820 0.620260 -0.603809
O6    O     O_R   0.591250 0.908820 0.379740 -0.601932
O7    O     O_R   0.591250 0.091180 0.620260 -0.563240
O8    O     O_R   0.591250 0.091180 0.379740 -0.579777
O9    O     O_R   0.908940 0.408800 0.620260 -0.573797
O10   O     O_R   0.908940 0.408800 0.379740 -0.572240
O11   O     O_R   0.908940 0.591200 0.620260 -0.505840
O12   O     O_R   0.908940 0.591200 0.379740 -0.494667
O13   O     O_R   0.408940 0.908800 0.620260 -0.573863
O14   O     O_R   0.408940 0.908800 0.379740 -0.572226
O15   O     O_R   0.408940 0.091200 0.620260 -0.505645
O16   O     O_R   0.408940 0.091200 0.379740 -0.494777
O17   O     O_3   0.973040 0.657126 0.138443 -0.713860
H65   H     H_    0.912079 0.650179 0.104095 0.339371
O18   O     O_3   0.990913 0.659342 0.849306 -0.707066
H66   H     H_    0.929442 0.664885 0.880776 0.321531
O19   O     O_3   0.844219 0.514579 0.148579 -0.739018
H67   H     H_    0.789985 0.480232 0.127757 0.294503
O20   O     O_3   0.844440 0.524613 0.858840 -0.729410
H68   H     H_    0.827396 0.572341 0.924514 0.311168
O21   O     O_3   0.473096 0.157143 0.138476 -0.714082
H69   H     H_    0.412098 0.150154 0.104323 0.339423
O22   O     O_3   0.490895 0.159327 0.849265 -0.706948
H70   H     H_    0.429515 0.165063 0.881090 0.321355
O23   O     O_3   0.344213 0.014571 0.148579 -0.739131
H71   H     H_    0.289990 0.980215 0.127794 0.294587
O24   O     O_3   0.344453 0.024672 0.858877 -0.729273
H72   H     H_    0.327492 0.072441 0.924530 0.311239

loop_
_geom_bond_atom_site_label_1
_geom_bond_atom_site_label_2
_ccdc_geom_bond_type
C16   C28   S    
C9    C33   S    
Cu3   Cu4   S    
C47   O19   S    
C17   H13   S    
C21   H17   S    
C3    O6    A    
C51   N3    S    
C7    H61   S    
C19   H15   S    
O20   H68   S    
Cu1   O11   S    
C52   H56   S    
C13   C25   S    
C14   C33   S    
C29   H33   S    
O19   H67   S    
C44   H48   S    
C8    H62   S    
C7    C8    S    
C4    O8    A    
C13   H9    S    
C45   C46   S    
C52   O24   S    
Cu2   O2    S    
C26   H22   S    
C23   H27   S    
C37   C41   S    
C25   H21   S    
C32   C36   S    
C11   O14   A    
C1    O1    A    
C38   C42   S    
C27   H23   S    
C19   C36   S    
C48   N2    S    
C5    C6    S    
Cu4   O16   S    
C26   C39   S    
C47   N1    S    
O21   H69   S    
C13   H1    S    
C28   C40   S    
O18   H66   S    
Cu2   O10   S    
C48   O20   S    
C29   C33   S    
C50   H54   S    
Cu3   O15   S    
C16   H4    S    
C6    H58   S    
Cu1   O3    S    
C17   H5    S    
C20   H16   S    
C50   O22   S    
C20   C24   S    
C19   H7    S    
Cu3   O5    S    
C28   H32   S    
C24   C38   S    
O22   H70   S    
C12   O16   A    
C16   H12   S    
C12   C36   S    
C18   C35   S    
C15   C34   S    
C16   C34   S    
C2    O3    A    
Cu2   O12   S    
C18   C22   S    
C5    H59   S    
C45   O17   S    
C30   C44   S    
C29   H34   S    
C44   H47   S    
C45   H49   S    
C4    O7    A    
C32   C42   S    
C14   H2    S    
C30   C34   S    
C51   C52   S    
Cu4   N3    S    
C7    H63   S    
Cu1   O9    S    
C1    O2    A    
C30   H36   S    
C23   H19   S    
C24   H20   S    
C39   C43   S    
C45   N1    S    
Cu1   Cu2   S    
C22   C37   S    
Cu2   O4    S    
C17   C21   S    
C20   H8    S    
C19   C23   S    
C43   H45   S    
C13   C33   S    
C42   H44   S    
Cu4   O14   S    
C15   C27   S    
C47   C48   S    
C4    C39   S    
C27   C40   S    
C26   H30   S    
C15   H11   S    
C25   H29   S    
C14   H10   S    
C12   O15   A    
C50   N4    S    
C10   C34   S    
C14   C26   S    
C27   H31   S    
C6    H60   S    
Cu4   O8    S    
Cu1   O1    S    
C1    C38   S    
C29   C43   S    
C32   H40   S    
Cu2   N1    S    
C21   H25   S    
C3    C40   S    
Cu3   O7    S    
C31   C35   S    
C6    N2    S    
C23   C38   S    
C22   H26   S    
C8    H64   S    
C49   H53   S    
C9    O9    A    
Cu3   N4    S    
C51   O23   S    
C5    N1    S    
C51   H55   S    
C31   C41   S    
C5    H57   S    
C3    O5    A    
C15   H3    S    
C8    N4    S    
C7    N3    S    
C30   H35   S    
C46   O18   S    
C10   O12   A    
C31   H38   S    
C47   H51   S    
C18   H14   S    
Cu3   O13   S    
C49   O21   S    
Cu1   N2    S    
C11   C35   S    
C24   H28   S    
C43   H46   S    
C10   O11   A    
C31   H37   S    
O17   H65   S    
C9    O10   A    
C52   N4    S    
C2    C37   S    
C48   H52   S    
C46   H50   S    
C41   H41   S    
C11   O13   A    
C28   H24   S    
Cu4   O6    S    
C20   C36   S    
C40   C44   S    
C32   H39   S    
C21   C37   S    
C49   C50   S    
O24   H72   S    
C22   H18   S    
C41   H42   S    
C46   N2    S    
C18   H6    S    
C17   C35   S    
O23   H71   S    
C42   H43   S    
C25   C39   S    
C2    O4    A    
C49   N3    S    
