data_mof_unit_20544.cif
_audit_creation_date              2012-12-10T17:09:49-0500
_audit_creation_method            fapswitch 2.2
_symmetry_space_group_name_H-M    P1
_symmetry_Int_Tables_number       1
_space_group_crystal_system       triclinic
_cell_length_a                    10.780593
_cell_length_b                    13.013209
_cell_length_c                    11.677302
_cell_angle_alpha                 100.196705
_cell_angle_beta                  93.655502
_cell_angle_gamma                 90.458348
_cell_volume                      1608.74511731

loop_
_atom_site_label
_atom_site_type_symbol
_atom_type_description
_atom_site_fract_x
_atom_site_fract_y
_atom_site_fract_z
_atom_type_partial_charge
C1    C     C_R   0.497733 0.298758 0.477998 0.808311
C2    C     C_R   0.068388 0.415438 0.553411 0.099332
C3    C     C_R   0.128663 0.489565 0.499699 -0.093552
C4    C     C_R   0.060488 0.557742 0.441619 -0.198974
C5    C     C_R   0.932505 0.557154 0.440540 -0.196090
C6    C     C_R   0.870843 0.488427 0.497608 -0.089765
C7    C     C_R   0.503517 0.814394 0.534366 -0.059293
C8    C     C_R   0.495636 0.184608 0.463836 -0.088692
C9    C     C_R   0.479982 0.011928 0.343584 -0.315671
C10   C     C_R   0.481173 0.120595 0.352126 0.422245
C11   C     C_R   0.508120 0.139199 0.564191 -0.367725
C12   C     C_R   0.262428 0.496530 0.500038 0.783100
C13   C     C_R   0.506630 0.031323 0.555034 0.176876
C14   C     C_R   0.492581 0.967493 0.443898 0.131269
C15   C     C_R   0.491195 0.859653 0.434281 -0.245937
C16   C     C_R   0.517392 0.877933 0.645044 -0.182534
C17   C     C_R   0.518990 0.986119 0.655317 -0.202411
C18   C     C_R   0.385103 0.399801 0.021036 -0.315205
C19   C     C_R   0.395884 0.409683 0.143389 0.124784
C20   C     C_R   0.549126 0.543408 0.157453 0.048135
C21   C     C_R   0.541381 0.536134 0.034562 0.028860
C22   C     C_R   0.458305 0.463414 0.965440 0.061573
C23   C     C_R   0.501985 0.700961 0.521693 0.815055
C24   C     C_R   0.450783 0.456396 0.842537 -0.061563
C25   C     C_R   0.604660 0.590529 0.856425 0.642231
C26   C     C_R   0.614666 0.599708 0.979500 -0.431904
C27   C     C_R   0.737412 0.496137 0.499148 0.796181
C28   C     C_R   0.134944 0.339668 0.604154 -0.185395
C29   C     C_R   0.072757 0.266430 0.654559 -0.140682
C30   C     C_R   0.943688 0.265926 0.653653 -0.128432
C31   C     C_R   0.875987 0.338667 0.602351 -0.168014
C32   C     C_R   0.937122 0.414887 0.552395 0.095566
Cu1   Cu    Cu3+1 0.509250 0.507730 0.615930 0.975720
Cu2   Cu    Cu3+1 0.490750 0.492270 0.384070 0.963638
H1    H     H_    0.106929 0.613320 0.398967 0.151593
H2    H     H_    0.529860 0.034245 0.741273 0.135688
H3    H     H_    0.519169 0.187731 0.649987 0.172715
H4    H     H_    0.386870 0.400663 0.788682 0.135582
H5    H     H_    0.320080 0.342849 0.970470 0.138593
H6    H     H_    0.679229 0.656131 0.031696 0.135566
H7    H     H_    0.339148 0.360224 0.185211 0.148599
H8    H     H_    0.613110 0.599129 0.211285 0.118442
H9    H     H_    0.234887 0.334589 0.603477 0.138276
H10   H     H_    0.124897 0.208917 0.693070 0.134178
H11   H     H_    0.895648 0.207998 0.691441 0.137431
H12   H     H_    0.775798 0.332859 0.600352 0.144386
H13   H     H_    0.881316 0.612483 0.397431 0.145386
H14   H     H_    0.480354 0.811102 0.348469 0.153981
H15   H     H_    0.527218 0.844174 0.723444 0.173713
H16   H     H_    0.469073 0.962046 0.258587 0.130485
N1    N     N_R   0.523180 0.519350 0.790130 -0.190023
N2    N     N_R   0.476820 0.480650 0.209890 -0.187030
O1    O     O_R   0.506570 0.354460 0.582000 -0.623271
O2    O     O_R   0.490940 0.341410 0.386200 -0.522609
O3    O     O_R   0.327470 0.506530 0.597920 -0.589685
O4    O     O_R   0.311840 0.493480 0.402120 -0.587841
O5    O     O_R   0.509060 0.658590 0.613800 -0.537030
O6    O     O_R   0.493430 0.645540 0.418000 -0.603693
O7    O     O_R   0.688160 0.506520 0.597880 -0.536358
O8    O     O_R   0.672530 0.493470 0.402080 -0.587896
O9    O     O_3   0.468044 0.164937 0.252938 -0.727922
H17   H     H_    0.458836 0.109007 0.183062 0.313127
O10   O     O_3   0.676297 0.652576 0.801293 -0.707752
H18   H     H_    0.729858 0.699722 0.860657 0.292330

loop_
_geom_bond_atom_site_label_1
_geom_bond_atom_site_label_2
_ccdc_geom_bond_type
Cu1   O3    S    
C23   O6    A    
C20   H8    S    
C9    C14   A    
C25   N1    A    
Cu2   O4    S    
C29   C30   A    
C17   H2    S    
Cu1   N1    S    
C1    C8    S    
C2    C28   A    
C9    C10   A    
C30   H11   S    
Cu2   N2    S    
C31   C32   A    
C13   C17   A    
C30   C31   A    
C1    O2    A    
C21   C22   A    
C24   N1    A    
C7    C15   A    
C2    C3    A    
Cu1   O7    S    
C4    H1    S    
C20   N2    A    
C27   O7    A    
C13   C14   A    
C20   C21   A    
Cu2   O8    S    
C11   C13   A    
C26   H6    S    
C12   O4    A    
C15   H14   S    
C8    C11   A    
C7    C23   S    
C5    C6    A    
C2    C32   A    
C8    C10   A    
C28   C29   A    
C5    H13   S    
C21   C26   A    
Cu1   Cu2   S    
Cu2   O2    S    
C27   O8    A    
C29   H10   S    
Cu1   O1    S    
O9    H17   S    
Cu2   O6    S    
C22   C24   A    
C12   O3    A    
C16   C17   A    
C9    H16   S    
C24   H4    S    
C10   O9    S    
C19   H7    S    
C16   H15   S    
C23   O5    A    
C18   C19   A    
C25   O10   S    
C11   H3    S    
C18   H5    S    
C1    O1    A    
C14   C15   A    
C4    C5    A    
Cu1   O5    S    
C3    C12   S    
C28   H9    S    
C25   C26   A    
C18   C22   A    
C19   N2    A    
C7    C16   A    
C3    C4    A    
C6    C27   S    
O10   H18   S    
C6    C32   A    
C31   H12   S    
