data_mof_unit_67316.cif
_audit_creation_date              2012-12-11T18:47:29-0500
_audit_creation_method            fapswitch 2.2
_symmetry_space_group_name_H-M    P1
_symmetry_Int_Tables_number       1
_space_group_crystal_system       triclinic
_cell_length_a                    8.492846
_cell_length_b                    15.410929
_cell_length_c                    14.951441
_cell_angle_alpha                 100.095519
_cell_angle_beta                  97.995972
_cell_angle_gamma                 99.742171
_cell_volume                      1869.86196217

loop_
_atom_site_label
_atom_site_type_symbol
_atom_type_description
_atom_site_fract_x
_atom_site_fract_y
_atom_site_fract_z
_atom_type_partial_charge
Ba1   Ba    Ba6+2 0.844900 0.542440 0.457470 1.833136
Ba2   Ba    Ba6+2 0.344940 0.457640 0.542540 1.823716
C1    C     C_3   0.614012 0.863235 0.233994 -0.294982
C2    C     C_R   0.107164 0.482294 0.210890 0.111745
C3    C     C_R   0.942244 0.460891 0.762733 -0.182622
C4    C     C_3   0.122316 0.795710 0.224601 0.248101
C5    C     C_R   0.836659 0.440511 0.823908 0.098170
C6    C     C_R   0.895913 0.455681 0.918192 -0.020516
C7    C     C_R   0.059824 0.495078 0.954292 0.058737
C8    C     C_R   0.156548 0.531584 0.892571 -0.031471
C9    C     C_R   0.128158 0.502956 0.050292 0.093358
C10   C     C_R   0.295295 0.542632 0.080990 0.044646
C11   C     C_R   0.384475 0.579986 0.019562 -0.052022
C12   C     C_3   0.602188 0.773734 0.264835 0.336100
C13   C     C_R   0.314772 0.578070 0.929211 -0.027453
C14   C     C_R   0.037845 0.471111 0.116563 0.053546
C15   C     C_R   0.272113 0.521045 0.237935 -0.274603
C16   C     C_3   0.054595 0.833268 0.142197 -0.233629
C17   C     C_R   0.092920 0.518815 0.795634 0.050684
C18   C     C_R   0.338302 0.820002 0.440274 -0.019022
C19   C     C_R   0.591148 0.793757 0.522522 0.000165
C20   C     C_R   0.764586 0.223701 0.494777 -0.097721
C21   C     C_R   0.864603 0.169684 0.529566 0.102811
C22   C     C_R   0.805833 0.077953 0.520177 -0.152392
C23   C     C_3   0.417050 0.323776 0.247600 0.429616
C24   C     C_R   0.639494 0.039653 0.489329 -0.049933
C25   C     C_R   0.538097 0.095321 0.450293 -0.056542
C26   C     C_R   0.571880 0.946791 0.492678 -0.007535
C27   C     C_R   0.408134 0.911426 0.450061 -0.015663
C28   C     C_3   0.325290 0.747027 0.703645 0.330075
C29   C     C_R   0.314224 0.967601 0.415973 -0.047511
C30   C     C_R   0.377632 0.053795 0.410584 0.391468
C31   C     C_R   0.655042 0.888882 0.540097 -0.103739
C32   C     C_R   0.434457 0.761324 0.470403 -0.297843
C33   C     C_R   0.602081 0.189238 0.453723 0.054136
C34   C     C_3   0.407620 0.295590 0.139607 0.393617
C35   C     C_3   0.427074 0.831215 0.771449 0.363258
C36   C     C_3   0.903849 0.234677 0.252537 0.865632
C37   C     C_3   0.866425 0.147504 0.175423 -0.188652
C38   C     C_3   0.725600 0.696690 0.759885 0.499031
C39   C     C_3   0.838359 0.736188 0.854058 -0.259755
C40   C     C_2   0.751706 0.153363 0.092074 0.436703
C41   C     C_2   0.011069 0.123307 0.140015 0.567288
C42   C     C_2   0.784100 0.687782 0.927016 0.532110
C43   C     C_2   0.846670 0.836389 0.883175 0.466977
C44   C     C_2   0.414241 0.199382 0.098591 0.751604
C45   C     C_3   0.009354 0.203574 0.755683 0.273309
C46   C     C_2   0.941976 0.194108 0.910977 0.483104
C47   C     C_2   0.630576 0.204208 0.685332 0.335778
C48   C     C_2   0.560192 0.112196 0.836788 0.575362
C49   C     C_2   0.117786 0.699797 0.188879 0.756629
C50   C     C_2   0.781410 0.929894 0.622382 0.506383
C51   C     C_2   0.092714 0.932822 0.163671 0.567834
C52   C     C_2   0.218714 0.770690 0.627690 0.556446
C53   C     C_3   0.067710 0.187257 0.851233 -0.237099
C54   C     C_3   0.500684 0.224515 0.739168 0.220426
C55   C     C_3   0.432954 0.139490 0.773506 0.173384
C56   C     C_R   0.367531 0.549045 0.174301 0.042549
Cl1   Cl    Cl    0.303981 0.894109 0.834197 -0.526588
Cl2   Cl    Cl    0.724230 0.253585 0.276522 -0.780474
Cl3   Cl    Cl    0.007735 0.218681 0.355488 -0.626207
Cl4   Cl    Cl    0.758420 0.589680 0.716401 -0.733459
Cl5   Cl    Cl    0.225025 0.314608 0.081017 -0.763786
Cl6   Cl    Cl    0.566012 0.362704 0.101666 -0.718904
Cl7   Cl    Cl    0.334861 0.048917 0.679227 -0.574415
Cl8   Cl    Cl    0.248458 0.093934 0.336340 -0.561768
H1    H     H_    0.689918 0.783395 0.330014 0.078524
H2    H     H_    0.312000 0.353734 0.263164 -0.002903
H3    H     H_    0.526237 0.376892 0.277441 0.040030
H4    H     H_    0.527875 0.855442 0.168667 0.157045
H5    H     H_    0.108941 0.809630 0.080884 0.109638
H6    H     H_    0.994465 0.274655 0.763880 0.074194
H7    H     H_    0.896013 0.153923 0.726553 0.021716
H8    H     H_    0.179399 0.237531 0.884675 0.145358
H9    H     H_    0.093304 0.118264 0.844839 0.112396
H10   H     H_    0.403254 0.241043 0.692085 0.113128
H11   H     H_    0.341730 0.155041 0.815281 0.066996
H12   H     H_    0.510852 0.811143 0.823860 0.023582
H13   H     H_    0.328562 0.526272 0.308653 0.032006
H14   H     H_    0.510210 0.612513 0.040645 0.111168
H15   H     H_    0.914243 0.435063 0.096571 0.129861
H16   H     H_    0.896405 0.443977 0.689284 0.119538
H17   H     H_    0.810417 0.436633 0.961599 0.128797
H18   H     H_    0.389612 0.611056 0.887660 0.091251
H19   H     H_    0.380885 0.690720 0.460764 0.039224
H20   H     H_    0.187779 0.944124 0.387259 0.123423
H21   H     H_    0.250076 0.831124 0.251531 -0.088984
H22   H     H_    0.814351 0.294486 0.501503 0.070093
H23   H     H_    0.500214 0.874629 0.734059 0.049775
H24   H     H_    0.893558 0.038356 0.538376 0.119304
H25   H     H_    0.920891 0.809710 0.123241 0.136907
H26   H     H_    0.407494 0.708209 0.670658 -0.306663
H27   H     H_    0.750799 0.217259 0.071275 0.089495
H28   H     H_    0.997566 0.070511 0.079306 0.034261
H29   H     H_    0.663063 0.686668 0.942472 0.003746
H30   H     H_    0.898728 0.881483 0.842028 0.120733
H31   H     H_    0.401406 0.179479 0.024135 -0.016103
H32   H     H_    0.893349 0.136022 0.937362 0.040722
H33   H     H_    0.630613 0.135581 0.653805 0.027969
H34   H     H_    0.810809 0.090091 0.204261 0.101528
H35   H     H_    0.603827 0.153731 0.904808 0.038397
H36   H     H_    0.228657 0.680309 0.175897 -0.387249
H37   H     H_    0.765915 0.989012 0.668961 0.018931
H38   H     H_    0.021600 0.968946 0.206076 0.032278
H39   H     H_    0.153322 0.717153 0.571458 0.000672
H40   H     H_    0.599024 0.688780 0.770368 0.007926
H41   H     H_    0.739202 0.887336 0.223018 0.124286
H42   H     H_    0.963738 0.727437 0.846811 0.137802
H43   H     H_    0.476859 0.753148 0.277701 -0.076437
H44   H     H_    0.583345 0.914117 0.287601 0.079806
O1    O     O_2   0.826460 0.445380 0.275370 -0.419032
O2    O     O_2   0.194231 0.181548 0.539452 -0.398612
O3    O     O_3   0.123187 0.187822 0.699005 -0.594996
O4    O     O_3   0.098920 0.448470 0.388920 -0.492915
O5    O     O_3   0.590770 0.611390 0.551120 -0.445825
O6    O     O_2   0.326540 0.275010 0.446300 -0.366363
O7    O     O_3   0.415330 0.248744 0.289693 -0.480552
O8    O     O_2   0.516038 0.463130 0.828724 -0.465284
O9    O     O_3   0.556745 0.296550 0.815972 -0.609711
O10   O     O_3   0.628660 0.613390 0.338240 -0.513298
O11   O     O_2   0.701677 0.548400 0.178168 -0.360347
O12   O     O_3   0.756318 0.755625 0.699996 -0.627760
O13   O     O_3   0.988317 0.308195 0.224382 -0.610145
O14   O     O_3   0.640273 0.709842 0.196052 -0.575527
O15   O     O_2   0.863170 0.725020 0.553760 -0.390217
O16   O     O_3   0.060910 0.661460 0.386100 -0.496721
O17   O     O_2   0.019159 0.818977 0.464789 -0.397709
O18   O     O_2   0.664042 0.084962 0.044738 -0.516052
O19   O     O_2   0.145146 0.162312 0.178479 -0.456546
O20   O     O_2   0.876566 0.651504 0.970471 -0.580300
O21   O     O_2   0.797776 0.868259 0.952365 -0.571841
O22   O     O_2   0.432580 0.142870 0.144869 -0.429706
O23   O     O_3   0.024828 0.804637 0.293109 -0.609949
O24   O     O_2   0.894923 0.264353 0.930935 -0.582990
O25   O     O_2   0.734312 0.263866 0.674024 -0.693094
O26   O     O_2   0.615396 0.045331 0.813088 -0.561309
O27   O     O_2   0.988847 0.646517 0.168350 -0.537048
O28   O     O_2   0.906579 0.902027 0.636669 -0.453769
O29   O     O_2   0.203853 0.973348 0.134097 -0.473044
O30   O     O_2   0.206596 0.848282 0.627092 -0.464001
O31   O     O_2   0.363260 0.554650 0.724690 -0.458814
O32   O     O_3   0.090800 0.551610 0.611090 -0.487765
O33   O     O_3   0.561050 0.386690 0.661770 -0.427291
O34   O     O_3   0.227892 0.697993 0.753037 -0.634912
O35   O     O_3   0.598950 0.388690 0.448890 -0.494220
O36   O     O_3   0.128800 0.338610 0.613910 -0.487534
P1    P     P_3+3 0.996570 0.418570 0.288410 1.113347
P2    P     P_3+3 0.693070 0.712070 0.580610 1.109440
P3    P     P_3+3 0.115937 0.776575 0.394751 0.975357
P4    P     P_3+3 0.193140 0.581510 0.711600 1.027472
P5    P     P_3+3 0.072057 0.220600 0.593951 1.065231
P6    P     P_3+3 0.583156 0.602732 0.219946 1.050703
P7    P     P_3+3 0.490416 0.275234 0.409539 1.145575
P8    P     P_3+3 0.616074 0.399172 0.781816 1.112577

loop_
_geom_bond_atom_site_label_1
_geom_bond_atom_site_label_2
_ccdc_geom_bond_type
Ba2   P4    S    
C46   C53   S    
C50   H37   S    
C54   H10   S    
C39   H42   S    
C12   H43   S    
C40   H27   S    
O3    P5    S    
Ba1   O35   S    
C17   P4    S    
C28   O34   S    
C5    C6    A    
C18   P3    S    
Ba2   O35   S    
C20   C33   A    
C28   C52   S    
C24   C25   A    
C16   H25   S    
C38   H40   S    
C26   C27   A    
Ba1   O15   S    
O4    P1    S    
C4    O23   S    
C8    C13   A    
C44   O22   D    
C36   C37   S    
O16   P3    S    
C19   C31   A    
C1    H44   S    
C42   O20   D    
C6    H17   S    
C15   H13   S    
C41   H28   S    
C38   Cl4   S    
C54   C55   S    
Ba1   Ba2   S    
C9    C14   A    
O34   P4    S    
Ba1   O32   S    
C16   C51   S    
C53   H8    S    
Ba2   O6    S    
C52   O30   D    
C6    C7    A    
C50   O28   D    
C21   C22   A    
C34   C44   S    
C20   H22   S    
C4    C49   S    
C34   Cl5   S    
C7    C8    A    
C36   O13   S    
C40   O18   D    
C15   C56   A    
C36   Cl3   S    
C53   H9    S    
C47   O25   D    
C11   H14   S    
C29   H20   S    
Ba2   O33   S    
C23   H2    S    
C56   P6    S    
O31   P4    D    
C51   H38   S    
C37   C40   S    
C18   C27   A    
C4    C16   S    
O10   P6    S    
C12   O14   S    
C19   P2    S    
C55   H11   S    
C41   O19   D    
C1    H4    S    
O23   P3    S    
Ba1   O16   S    
C45   H7    S    
C28   H26   S    
C3    C5    A    
O33   P8    S    
C37   C41   S    
C19   C32   A    
C1    H41   S    
C2    P1    S    
O5    P2    S    
C4    H21   S    
O36   P5    S    
C28   C35   S    
C22   H24   S    
C49   H36   S    
Ba1   O10   S    
C2    C14   A    
O1    P1    D    
C47   H33   S    
Ba2   O5    S    
C30   Cl8   S    
C29   C30   A    
C8    C17   A    
C12   H1    S    
O2    P5    D    
C7    C9    A    
O6    P7    D    
C35   Cl1   S    
C1    C12   S    
C10   C56   A    
C36   Cl2   S    
C2    C15   A    
C49   O27   D    
C38   C39   S    
C44   H31   S    
O13   P1    S    
C26   C31   A    
C43   O21   D    
O9    P8    S    
O12   P2    S    
C11   C13   A    
O7    P7    S    
Ba2   O32   S    
C39   C42   S    
Ba1   P1    S    
C23   H3    S    
Ba1   O4    S    
C46   H32   S    
C45   C53   S    
C46   O24   D    
C16   H5    S    
C45   O3    S    
C21   P5    S    
C52   H39   S    
C25   C30   A    
C51   O29   D    
C48   C55   S    
C33   P7    S    
C55   Cl7   S    
O15   P2    D    
C23   O7    S    
C31   C50   S    
C9    C10   A    
C13   H18   S    
C3    C17   A    
Ba2   O36   S    
C47   C54   S    
C38   O12   S    
C35   H12   S    
C24   C26   A    
O11   P6    D    
C35   H23   S    
C25   C33   A    
O32   P4    S    
O35   P7    S    
C27   C29   A    
C42   H29   S    
C48   O26   D    
O17   P3    D    
C3    H16   S    
Ba2   O4    S    
C22   C24   A    
C37   H34   S    
C5    P8    S    
C14   H15   S    
C54   O9    S    
O8    P8    D    
O14   P6    S    
C45   H6    S    
C23   C34   S    
C18   C32   A    
C10   C11   A    
C48   H35   S    
Ba2   O31   S    
C39   C43   S    
C20   C21   A    
Ba1   P2    S    
Ba1   O5    S    
C34   Cl6   S    
C43   H30   S    
C32   H19   S    
Ba1   O1    S    
