data_mof_unit_57106.cif
_audit_creation_date              2013-03-05T16:46:57-0500
_audit_creation_method            fapswitch 2.2
_symmetry_space_group_name_H-M    P1
_symmetry_Int_Tables_number       1
_space_group_crystal_system       monoclinic
_cell_length_a                    14.954977
_cell_length_b                    9.024391
_cell_length_c                    8.110277
_cell_angle_alpha                 90.0
_cell_angle_beta                  90.0
_cell_angle_gamma                 90.000015
_cell_volume                      1094.55941413

loop_
_atom_site_label
_atom_site_type_symbol
_atom_site_description
_atom_site_fract_x
_atom_site_fract_y
_atom_site_fract_z
_atom_type_partial_charge
O1    O     O_R   0.500000 0.285350 0.636850 -0.608208
O2    O     O_R   0.500000 0.714650 0.363150 -0.608208
O3    O     O_R   0.500000 0.714650 0.636850 -0.608208
O4    O     O_R   0.500000 0.285350 0.363150 -0.608208
H1    H     H_    0.920329 0.125573 0.481308 0.174550
H2    H     H_    0.079671 0.874427 0.481308 0.174550
H3    H     H_    0.920329 0.874427 0.518694 0.174550
H4    H     H_    0.079671 0.125573 0.518694 0.174550
C1    C     C_R   0.500000 0.217849 0.500000 0.960567
C2    C     C_R   0.500000 0.782151 0.500000 0.960567
O5    O     O_R   0.367850 0.500000 0.636890 -0.604407
O6    O     O_R   0.632150 0.500000 0.363110 -0.604407
O7    O     O_R   0.632150 0.500000 0.636890 -0.604407
O8    O     O_R   0.367850 0.500000 0.363110 -0.604407
C3    C     C_R   0.326565 0.500000 0.500000 0.957105
C4    C     C_R   0.673435 0.500000 0.500000 0.957105
Zn1   Zn    Zn3+2 0.500000 0.500000 0.682780 1.058822
Zn2   Zn    Zn3+2 0.500000 0.500000 0.317220 1.058822
N1    N     N_1   0.500000 0.500000 0.073640 -0.008489
N2    N     N_1   0.500000 0.500000 0.926360 -0.008489
C5    C     C_R   0.814048 0.632239 0.533997 0.061049
C6    C     C_R   0.185952 0.367761 0.533997 0.061049
C7    C     C_R   0.814048 0.367761 0.466003 0.061050
C8    C     C_R   0.185952 0.632239 0.466003 0.061050
C9    C     C_R   0.768750 0.500000 0.500000 -0.151352
C10   C     C_R   0.231250 0.500000 0.500000 -0.151352
C11   C     C_R   0.906715 0.364704 0.484630 0.081861
C12   C     C_R   0.093285 0.635296 0.484630 0.081861
C13   C     C_R   0.906715 0.635296 0.515371 0.081861
C14   C     C_R   0.093285 0.364704 0.515371 0.081861
C15   C     C_R   0.953281 0.500000 0.500000 0.022971
C16   C     C_R   0.046719 0.500000 0.500000 0.022971
C17   C     C_R   0.954032 0.230881 0.488656 -0.160561
C18   C     C_R   0.045968 0.769119 0.488656 -0.160561
C19   C     C_R   0.954032 0.769119 0.511346 -0.160561
C20   C     C_R   0.045968 0.230881 0.511346 -0.160561
C21   C     C_1   0.500000 0.064988 0.500000 -0.097826
C22   C     C_1   0.500000 0.935012 0.500000 -0.097826
I1    I     I_    0.742088 0.821352 0.622143 -0.315183
I2    I     I_    0.257912 0.178648 0.622143 -0.315184
I3    I     I_    0.742088 0.178648 0.377858 -0.315184
I4    I     I_    0.257912 0.821352 0.377858 -0.315184

loop_
_geom_bond_atom_site_label_1
_geom_bond_atom_site_label_2
_geom_bond_distance
_ccdc_geom_bond_type
C21   C22   1.172955 T    
C14   C20   1.400097 A    
O2    Zn2   1.972576 S    
C8    I4    2.140502 S    
O8    Zn2   2.011040 S    
O1    Zn1   1.972577 S    
N1    N2    1.194481 T    
C7    I3    2.140502 S    
O7    Zn1   2.011038 S    
C2    C22   1.379476 S    
O4    Zn2   1.972577 S    
Zn1   N2    1.975501 S    
O5    C3    1.270349 A    
C1    C21   1.379476 S    
C12   C18   1.400097 A    
C13   C15   1.411123 A    
O3    C2    1.266069 A    
C11   C17   1.400097 A    
C14   C16   1.411123 A    
H3    C19   1.077372 S    
C8    C10   1.399670 A    
O3    Zn1   1.972576 S    
C7    C11   1.394313 A    
C7    C9    1.399670 A    
H4    C20   1.077372 S    
C11   C15   1.411124 A    
O2    C2    1.266069 A    
O6    C4    1.270350 A    
C12   C16   1.411123 A    
C17   C20   1.387170 A    
O1    C1    1.266069 A    
C8    C12   1.394313 A    
C18   C19   1.387170 A    
C6    C10   1.399670 A    
O7    C4    1.270349 A    
O6    Zn2   2.011038 S    
C4    C9    1.425434 S    
C13   C19   1.400097 A    
C6    I2    2.140502 S    
Zn2   N1    1.975501 S    
C3    C10   1.425434 S    
C5    C9    1.399670 A    
C6    C14   1.394313 A    
O4    C1    1.266069 A    
O8    C3    1.270350 A    
C5    C13   1.394313 A    
C15   C16   1.397371 A    
O5    Zn1   2.011040 S    
H2    C18   1.077372 S    
H1    C17   1.077372 S    
C5    I1    2.140502 S    
