data_mof_unit_7842.cif
_audit_creation_date              2012-12-10T17:08:43-0500
_audit_creation_method            fapswitch 2.2
_symmetry_space_group_name_H-M    P1
_symmetry_Int_Tables_number       1
_space_group_crystal_system       triclinic
_cell_length_a                    15.731238
_cell_length_b                    10.719459
_cell_length_c                    10.049364
_cell_angle_alpha                 90.15084
_cell_angle_beta                  90.339427
_cell_angle_gamma                 90.50968
_cell_volume                      1694.52498207

loop_
_atom_site_label
_atom_site_type_symbol
_atom_type_description
_atom_site_fract_x
_atom_site_fract_y
_atom_site_fract_z
_atom_type_partial_charge
C1    C     C_R   0.499239 0.262917 0.499578 0.874306
C2    C     C_2   0.527525 0.866399 0.500620 -0.409434
C3    C     C_2   0.544003 0.069250 0.410465 0.339227
C4    C     C_R   0.338394 0.499931 0.499680 0.866558
C5    C     C_2   0.493396 0.130324 0.495671 0.104090
C6    C     C_2   0.539997 0.583682 0.925112 0.447590
C7    C     C_2   0.553567 0.564505 0.074418 0.536459
C8    C     C_R   0.505331 0.737123 0.499970 0.964736
C9    C     C_R   0.661511 0.499724 0.500279 0.888501
C10   C     C_3   0.050892 0.415791 0.620156 0.112641
C11   C     C_3   0.047955 0.447480 0.367244 0.113027
C12   C     C_3   0.951436 0.396222 0.613885 0.960845
C13   C     C_3   0.949453 0.457286 0.364512 0.100031
C14   C     C_1   0.750167 0.497161 0.501281 -0.202240
C15   C     C_3   0.082376 0.499917 0.502472 -0.139293
C16   C     C_3   0.849769 0.228908 0.582926 -0.245337
C17   C     C_3   0.934472 0.333602 0.840070 -0.156626
C18   C     C_3   0.458928 0.968720 0.187872 -0.312499
C19   C     C_3   0.675769 0.059959 0.308441 -0.334311
C20   C     C_3   0.547865 0.795613 0.909863 -0.261031
C21   C     C_3   0.697553 0.563591 0.094460 -0.306060
C22   C     C_3   0.405232 0.349899 0.119399 -0.165293
C23   C     C_3   0.916979 0.492060 0.506691 -0.114562
C24   C     C_3   0.086792 0.824176 0.633747 -0.119912
C25   C     C_3   0.863911 0.750532 0.678891 -0.237863
C26   C     C_3   0.949642 0.628068 0.540204 0.210736
C27   C     C_3   0.048556 0.636747 0.520834 0.764438
C28   C     C_1   0.825390 0.494495 0.503603 0.074476
C29   C     C_1   0.174187 0.499971 0.499869 0.070991
C30   C     C_1   0.249506 0.499948 0.499065 -0.155322
C31   C     C_2   0.526256 0.936293 0.390569 0.506363
H1    H     H_    0.920217 0.693255 0.466451 0.081954
H2    H     H_    0.135582 0.444806 0.759994 0.342140
H3    H     H_    0.956754 0.383959 0.930541 0.194540
H4    H     H_    0.984628 0.266142 0.811577 0.155364
H5    H     H_    0.876243 0.280574 0.867125 0.125510
H6    H     H_    0.500406 0.042606 0.145073 0.178742
H7    H     H_    0.405828 0.010603 0.245126 0.169320
H8    H     H_    0.429774 0.916090 0.103970 0.179557
H9    H     H_    0.660814 0.988875 0.230908 0.206378
H10   H     H_    0.700746 0.015040 0.400359 0.141519
H11   H     H_    0.727003 0.121008 0.269004 0.201807
H12   H     H_    0.545079 0.907183 0.596362 0.139983
H13   H     H_    0.397939 0.131247 0.618658 0.340050
H14   H     H_    0.570500 0.814522 0.012832 0.215582
H15   H     H_    0.477148 0.797724 0.904277 0.161950
H16   H     H_    0.572205 0.872427 0.846521 0.170058
H17   H     H_    0.711192 0.584708 0.988432 0.191933
H18   H     H_    0.695022 0.460823 0.110650 0.155388
H19   H     H_    0.751397 0.600969 0.154702 0.196827
H20   H     H_    0.375808 0.339730 0.218410 0.205393
H21   H     H_    0.461796 0.288480 0.111181 0.121510
H22   H     H_    0.357891 0.316331 0.044996 0.144470
H23   H     H_    0.487371 0.416524 0.894682 0.143909
H24   H     H_    0.048757 0.266486 0.400467 0.395938
H25   H     H_    0.921390 0.344377 0.218956 0.346954
H26   H     H_    0.090024 0.858236 0.737979 0.170258
H27   H     H_    0.028035 0.862010 0.587907 0.157775
H28   H     H_    0.143207 0.861524 0.580661 0.149002
H29   H     H_    0.128196 0.715080 0.395612 0.340610
H30   H     H_    0.803949 0.715515 0.633037 0.153432
H31   H     H_    0.883985 0.838833 0.630212 0.120436
H32   H     H_    0.850597 0.771926 0.784739 0.193731
H33   H     H_    0.081341 0.322313 0.612205 0.101325
H34   H     H_    0.072688 0.506635 0.285004 0.191216
H35   H     H_    0.931759 0.534968 0.295980 0.100843
H36   H     H_    0.809529 0.284600 0.650698 0.168459
H37   H     H_    0.849073 0.131618 0.620255 0.149843
H38   H     H_    0.819907 0.227553 0.482737 0.222814
N1    N     N_2   0.500900 0.501330 0.852150 -0.213369
N2    N     N_2   0.500920 0.501360 0.147810 0.034674
O1    O     O_R   0.499990 0.319060 0.613040 -0.645211
O2    O     O_3   0.075750 0.469095 0.742914 -0.670787
O3    O     O_3   0.914208 0.422598 0.740605 -0.565156
O4    O     O_3   0.507080 0.885390 0.265854 -0.579282
O5    O     O_3   0.604229 0.134218 0.335201 -0.625096
O6    O     O_3   0.431027 0.068863 0.568064 -0.819182
O7    O     O_3   0.579957 0.682154 0.861218 -0.585311
O8    O     O_3   0.622288 0.621640 0.136834 -0.592172
O9    O     O_3   0.424672 0.475693 0.091653 -0.589212
O10   O     O_3   0.077580 0.326136 0.340475 -0.727280
O11   O     O_3   0.910966 0.347040 0.316281 -0.714971
O12   O     O_R   0.500010 0.319100 0.386900 -0.608128
O13   O     O_3   0.088993 0.692216 0.634673 -0.531024
O14   O     O_3   0.065591 0.706798 0.404312 -0.871868
O15   O     O_3   0.928592 0.660058 0.673732 -0.494539
O16   O     O_R   0.377130 0.499990 0.613120 -0.605950
O17   O     O_R   0.377160 0.500030 0.386980 -0.597245
O18   O     O_R   0.499990 0.680900 0.613100 -0.577721
O19   O     O_R   0.500010 0.680940 0.386960 -0.529754
O20   O     O_R   0.622840 0.499970 0.613020 -0.598598
O21   O     O_R   0.622870 0.500010 0.386880 -0.572417
O22   O     O_3   0.935606 0.269531 0.573466 -0.665282
Zn1   Zn    Zn3+2 0.499980 0.499970 0.650990 0.986448
Zn2   Zn    Zn3+2 0.500020 0.500030 0.349010 1.056681

loop_
_geom_bond_atom_site_label_1
_geom_bond_atom_site_label_2
_ccdc_geom_bond_type
C26   H1    S    
C18   O4    S    
C12   O3    S    
C18   H8    S    
C9    O20   A    
C21   H18   S    
O19   Zn2   S    
C4    O16   A    
C11   O10   S    
C12   C23   S    
C26   C27   S    
C1    C5    S    
C22   H21   S    
H13   O6    S    
N1    Zn1   S    
C18   H6    S    
C10   C15   S    
C7    N2    D    
C10   O2    S    
C6    O7    S    
N2    Zn2   S    
O16   Zn1   S    
C13   C23   S    
C25   H32   S    
C23   C26   S    
O18   Zn1   S    
C27   O14   S    
C21   H19   S    
C31   O4    S    
C24   H26   S    
C16   H37   S    
C17   H5    S    
H24   O10   S    
C20   H14   S    
C19   H11   S    
C21   H17   S    
O1    Zn1   S    
O17   Zn2   S    
C19   O5    S    
C11   C15   S    
C9    O21   A    
N2    O9    S    
C15   C29   S    
C22   H22   S    
C13   H35   S    
C2    C8    S    
C1    O1    A    
C13   O11   S    
O21   Zn2   S    
C2    C31   D    
C9    C14   S    
C29   C30   T    
C15   C27   S    
H23   N1    S    
C2    H12   S    
C26   O15   S    
O12   Zn2   S    
C21   O8    S    
C16   O22   S    
C16   H36   S    
C25   H30   S    
C23   C28   S    
C3    C31   S    
C3    O5    S    
C10   C12   S    
H2    O2    S    
C17   O3    S    
C12   O22   S    
C8    O19   A    
C17   H3    S    
C5    O6    S    
C7    O8    S    
C6    N1    D    
C27   O13   S    
C10   H33   S    
C16   H38   S    
C3    C5    D    
H29   O14   S    
H25   O11   S    
C6    C7    S    
C4    O17   A    
C1    O12   A    
C20   O7    S    
C24   O13   S    
C22   O9    S    
O20   Zn1   S    
C11   C13   S    
C24   H28   S    
C25   O15   S    
C25   H31   S    
C18   H7    S    
C20   H15   S    
C20   H16   S    
C19   H9    S    
C11   H34   S    
C24   H27   S    
C8    O18   A    
C17   H4    S    
C14   C28   T    
C4    C30   S    
C19   H10   S    
C22   H20   S    
