data_mof_unit_68360.cif
_audit_creation_date              2012-12-10T16:47:25-0500
_audit_creation_method            fapswitch 2.2
_symmetry_space_group_name_H-M    P1
_symmetry_Int_Tables_number       1
_space_group_crystal_system       triclinic
_cell_length_a                    10.754014
_cell_length_b                    8.789732
_cell_length_c                    7.62803
_cell_angle_alpha                 104.13548
_cell_angle_beta                  94.2701
_cell_angle_gamma                 94.356155
_cell_volume                      693.953679411

loop_
_atom_site_label
_atom_site_type_symbol
_atom_type_description
_atom_site_fract_x
_atom_site_fract_y
_atom_site_fract_z
_atom_type_partial_charge
C1    C     C_R   0.503280 0.200948 0.452752 0.845223
C2    C     C_R   0.506768 0.800256 0.547323 0.859097
C3    C     C_R   0.259620 0.483971 0.499016 0.870165
C4    C     C_R   0.740154 0.512176 0.500174 0.832151
C5    C     C_3   0.038288 0.445455 0.647215 -0.034016
C6    C     C_3   0.960009 0.538034 0.350861 -0.048847
C7    C     C_3   0.935703 0.355600 0.495982 -0.053300
C8    C     C_3   0.061283 0.630341 0.502014 -0.017341
C9    C     C_3   0.877127 0.509983 0.497165 -0.173357
C10   C     C_3   0.121336 0.476306 0.500764 -0.159895
C11   C     C_3   0.977634 0.599893 0.649868 -0.053921
C12   C     C_3   0.019643 0.384106 0.350767 -0.058437
C13   C     C_2   0.512159 0.033136 0.428531 -0.376417
C14   C     C_2   0.514604 0.969750 0.572487 -0.363340
Cu1   Cu    Cu3+1 0.514140 0.517380 0.684380 0.998946
Cu2   Cu    Cu3+1 0.485860 0.482620 0.315620 1.007719
H1    H     H_    0.415286 0.360484 0.949279 0.257280
H2    H     H_    0.583334 0.640803 0.050929 0.249565
H3    H     H_    0.508588 0.960106 0.290605 0.184619
H4    H     H_    0.518159 0.042699 0.710442 0.187268
N1    N     N_2   0.464560 0.456420 0.038510 -0.194523
N2    N     N_2   0.535440 0.543580 0.961490 -0.207702
O1    O     O_R   0.509190 0.286130 0.619780 -0.581615
O2    O     O_R   0.490810 0.713870 0.380220 -0.593393
O3    O     O_R   0.485310 0.256770 0.308360 -0.578592
O4    O     O_R   0.514690 0.743230 0.691640 -0.575650
O5    O     O_R   0.328790 0.514640 0.655680 -0.546710
O6    O     O_R   0.671210 0.485360 0.344320 -0.542830
O7    O     O_R   0.304910 0.485280 0.344260 -0.543010
O8    O     O_R   0.695090 0.514720 0.655740 -0.572242
C15   C     C_3   0.842746 0.210129 0.487756 -0.334508
C16   C     C_3   0.903128 0.057525 0.474317 -0.401155
C17   C     C_3   0.806709 0.922749 0.475113 -0.740233
H5    H     H_    0.761104 0.949485 0.603128 0.281142
H6    H     H_    0.736367 0.901006 0.355537 0.256260
H7    H     H_    0.853885 0.814823 0.467306 0.234936
H8    H     H_    0.947662 0.024594 0.346688 0.244850
H9    H     H_    0.973145 0.073200 0.591633 0.246565
H10   H     H_    0.791621 0.234648 0.611488 0.236013
H11   H     H_    0.773120 0.193707 0.367816 0.212241
C18   C     C_3   0.136069 0.793155 0.535939 -0.421030
C19   C     C_3   0.169727 0.842581 0.366419 -0.320626
C20   C     C_3   0.225086 0.013833 0.417390 -0.811110
H12   H     H_    0.151803 0.095595 0.440195 0.242525
H13   H     H_    0.286366 0.041693 0.546222 0.263131
H14   H     H_    0.277142 0.036182 0.305151 0.277628
H15   H     H_    0.237762 0.765461 0.297023 0.271136
H16   H     H_    0.085231 0.835554 0.272656 0.270582
H17   H     H_    0.081166 0.882941 0.612316 0.215980
H18   H     H_    0.222849 0.795605 0.625649 0.213416
C21   C     C_2   0.077287 0.357130 0.780219 0.925765
O9    O     O_2   0.997223 0.304055 0.858978 -0.562661
O10   O     O_R   0.198954 0.314013 0.791466 -0.783092
H19   H     H_    0.208024 0.225784 0.853226 0.324951
C22   C     C_2   0.927724 0.574481 0.175641 0.871155
O11   O     O_2   0.011107 0.584311 0.079005 -0.590575
O12   O     O_R   0.804491 0.587189 0.117470 -0.761945
H20   H     H_    0.793301 0.583777 0.984149 0.361305
C23   C     C_2   0.958415 0.735666 0.806487 0.874010
O13   O     O_2   0.048745 0.805536 0.909005 -0.596636
O14   O     O_R   0.840065 0.788893 0.827257 -0.786417
H21   H     H_    0.839801 0.880883 0.937163 0.362660
C24   C     C_2   0.034984 0.248284 0.195566 0.921600
O15   O     O_2   0.941973 0.169083 0.108630 -0.577633
O16   O     O_R   0.154125 0.207441 0.155931 -0.778473
H22   H     H_    0.151000 0.103065 0.061995 0.341350

loop_
_geom_bond_atom_site_label_1
_geom_bond_atom_site_label_2
_ccdc_geom_bond_type
Cu2   O6    S    
C20   H12   S    
C24   O16   S    
C1    O1    A    
Cu2   N1    S    
C16   H9    S    
C9    C11   S    
C18   C19   S    
Cu1   O5    S    
C15   C16   S    
C6    C22   S    
C22   O11   D    
C16   C17   S    
C6    C9    S    
Cu1   O1    S    
C17   H5    S    
Cu2   O7    S    
C23   O13   D    
Cu2   O2    S    
C3    C10   S    
C19   H16   S    
O10   H19   S    
C8    C18   S    
C1    O3    A    
C20   H13   S    
O12   H20   S    
O14   H21   S    
C10   C12   S    
C8    C11   S    
C11   C23   S    
Cu1   Cu2   S    
C6    C12   S    
C3    O5    A    
C17   H6    S    
C15   H10   S    
N1    N2    D    
C5    C11   S    
C5    C7    S    
C19   H15   S    
C22   O12   S    
C2    O2    A    
C7    C12   S    
C2    C14   S    
C20   H14   S    
H1    N1    S    
C23   O14   S    
C7    C15   S    
C19   C20   S    
C13   H3    S    
C21   O9    D    
C14   H4    S    
C18   H18   S    
C5    C10   S    
C17   H7    S    
C1    C13   S    
C15   H11   S    
Cu1   O8    S    
C2    O4    A    
O16   H22   S    
Cu1   N2    S    
C18   H17   S    
Cu2   O3    S    
C3    O7    A    
C12   C24   S    
C7    C9    S    
C5    C21   S    
Cu1   O4    S    
C6    C8    S    
C16   H8    S    
C13   C14   D    
C4    O6    A    
C4    C9    S    
H2    N2    S    
C8    C10   S    
C4    O8    A    
C24   O15   D    
C21   O10   S    
