data_mof_unit_29837.cif
_audit_creation_date              2012-10-26T19:46:50-0400
_audit_creation_method            fapswitch 2.2
_symmetry_space_group_name_H-M    P1
_symmetry_Int_Tables_number       1
_space_group_crystal_system       triclinic
_cell_length_a                    10.821781
_cell_length_b                    9.531097
_cell_length_c                    15.99179
_cell_angle_alpha                 90.005154
_cell_angle_beta                  90.172562
_cell_angle_gamma                 89.981242
_cell_volume                      1649.44072728

loop_
_atom_site_label
_atom_site_type_symbol
_atom_type_description
_atom_site_fract_x
_atom_site_fract_y
_atom_site_fract_z
_atom_type_partial_charge
C1    C     C_R   0.871754 0.499984 0.500148 0.019236
C2    C     C_R   0.472835 0.375835 0.956360 0.239462
C3    C     C_R   0.499736 0.500178 0.912481 -0.067459
C4    C     C_R   0.499848 0.500102 0.087510 -0.067982
C5    C     C_1   0.499823 0.500118 0.822760 -0.012853
C6    C     C_1   0.499894 0.500028 0.177266 -0.015704
C7    C     C_1   0.499903 0.499993 0.252277 -0.028119
C8    C     C_1   0.499941 0.500049 0.747740 -0.026213
C9    C     C_R   0.421609 0.074388 0.449089 0.009889
C10   C     C_R   0.578428 0.925609 0.550883 0.015427
C11   C     C_R   0.578434 0.074346 0.550877 0.014563
C12   C     C_R   0.128246 0.500016 0.499993 0.019137
C13   C     C_R   0.421615 0.925652 0.449084 0.010686
C14   C     C_R   0.063926 0.372479 0.500039 -0.142752
C15   C     C_R   0.936075 0.627521 0.500145 -0.142681
C16   C     C_R   0.936155 0.372463 0.500136 -0.142920
C17   C     C_R   0.063846 0.627537 0.500040 -0.142709
C18   C     C_3   0.407431 0.799522 0.114176 0.017413
C19   C     C_3   0.329155 0.863491 0.043620 -0.247194
C20   C     C_3   0.203015 0.909751 0.076093 -0.504288
C21   C     C_3   0.318317 0.256668 0.887378 0.019992
C22   C     C_3   0.225861 0.255692 0.960276 -0.265740
C23   C     C_R   0.262100 0.500013 0.499955 0.547224
C24   C     C_3   0.094443 0.227432 0.929793 -0.499887
C25   C     C_3   0.680898 0.743872 0.887955 0.018394
C26   C     C_3   0.773628 0.744708 0.961067 -0.264716
C27   C     C_3   0.904947 0.772823 0.930883 -0.499914
C28   C     C_3   0.592618 0.200688 0.114103 0.017938
C29   C     C_3   0.670703 0.137220 0.043588 -0.248003
C30   C     C_3   0.797069 0.091086 0.076231 -0.502808
C31   C     C_R   0.737900 0.499987 0.500092 0.547198
C32   C     C_R   0.499912 0.499995 0.341307 0.546023
C33   C     C_R   0.500060 0.500009 0.658698 0.544527
C34   C     C_R   0.526641 0.624521 0.956500 0.240064
C35   C     C_R   0.486529 0.372904 0.043549 0.237572
C36   C     C_R   0.513095 0.627363 0.043656 0.238130
Cu1   Cu    Cu3+1 0.500000 0.640660 0.500000 0.937624
Cu2   Cu    Cu3+1 0.500000 0.359340 0.500000 0.936137
H1    H     H_    0.358776 0.130363 0.408271 0.108423
H2    H     H_    0.354780 0.714365 0.145669 0.119381
H3    H     H_    0.378446 0.954966 0.016466 0.219931
H4    H     H_    0.314076 0.784838 0.993386 0.171704
H5    H     H_    0.153450 0.819536 0.104418 0.142502
H6    H     H_    0.146210 0.950378 0.023526 0.145894
H7    H     H_    0.213944 0.993825 0.123651 0.157950
H8    H     H_    0.302746 0.161441 0.848693 0.160678
H9    H     H_    0.299724 0.347991 0.845957 0.122582
H10   H     H_    0.252911 0.174128 0.006104 0.206187
H11   H     H_    0.227266 0.358962 0.992544 0.149945
H12   H     H_    0.641286 0.869631 0.591684 0.106253
H13   H     H_    0.065524 0.309021 0.884149 0.149396
H14   H     H_    0.030157 0.229876 0.983743 0.147178
H15   H     H_    0.088586 0.122486 0.899821 0.143308
H16   H     H_    0.696298 0.839196 0.849394 0.155586
H17   H     H_    0.699380 0.652669 0.846490 0.119814
H18   H     H_    0.746827 0.826281 0.006855 0.206306
H19   H     H_    0.772262 0.641425 0.993301 0.150234
H20   H     H_    0.933624 0.691188 0.885309 0.149135
H21   H     H_    0.969434 0.770325 0.984983 0.147794
H22   H     H_    0.910775 0.877749 0.900920 0.142256
H23   H     H_    0.641306 0.130289 0.591664 0.109184
H24   H     H_    0.576886 0.118308 0.162049 0.155970
H25   H     H_    0.645267 0.285774 0.145896 0.122460
H26   H     H_    0.621446 0.045766 0.016162 0.219639
H27   H     H_    0.685459 0.216134 0.993524 0.170803
H28   H     H_    0.846679 0.181322 0.104717 0.143484
H29   H     H_    0.853638 0.050651 0.023716 0.144633
H30   H     H_    0.786494 0.006889 0.123699 0.161575
H31   H     H_    0.358795 0.869710 0.408255 0.104278
H32   H     H_    0.112027 0.272783 0.499993 0.126558
H33   H     H_    0.887974 0.727217 0.500198 0.126284
H34   H     H_    0.888117 0.272765 0.500178 0.126087
H35   H     H_    0.111883 0.727235 0.499994 0.126647
H36   H     H_    0.423455 0.881604 0.162332 0.152696
N1    N     N_R   0.500000 0.852070 0.500000 -0.222548
N2    N     N_R   0.500000 0.147930 0.500000 -0.224027
O1    O     O_R   0.319640 0.618740 0.499990 -0.509120
O2    O     O_3   0.443008 0.252530 0.915041 -0.545350
O3    O     O_3   0.556307 0.747897 0.915329 -0.544251
O4    O     O_3   0.475227 0.245741 0.084970 -0.557837
O5    O     O_R   0.680360 0.381260 0.500010 -0.510078
O6    O     O_R   0.680360 0.618740 0.500010 -0.509584
O7    O     O_R   0.319640 0.381260 0.499990 -0.509230
O8    O     O_R   0.499970 0.618750 0.380310 -0.495954
O9    O     O_R   0.500030 0.381250 0.619690 -0.493937
O10   O     O_R   0.500030 0.618750 0.619690 -0.493539
O11   O     O_R   0.499970 0.381250 0.380310 -0.496492
O12   O     O_3   0.524641 0.754454 0.085191 -0.555481

loop_
_geom_bond_atom_site_label_1
_geom_bond_atom_site_label_2
_ccdc_geom_bond_type
C2    C35   A    
C24   H14   S    
C22   H10   S    
C4    C36   A    
Cu2   O7    S    
C19   C20   S    
C16   H34   S    
C9    H1    S    
Cu2   N2    S    
C36   O12   S    
C12   C23   S    
C26   C27   S    
C29   C30   S    
C31   O6    A    
C23   O7    A    
C28   C29   S    
C27   H22   S    
C35   O4    S    
C1    C31   S    
C18   C19   S    
C33   O9    A    
C9    C13   A    
C13   N1    A    
C21   O2    S    
Cu1   O8    S    
C1    C15   A    
C9    N2    A    
C34   C36   A    
C30   H29   S    
C19   H4    S    
C24   H13   S    
Cu1   N1    S    
C4    C35   A    
C18   H36   S    
C21   C22   S    
C17   H35   S    
C14   H32   S    
C20   H6    S    
C32   O8    A    
Cu2   O9    S    
Cu1   O10   S    
C25   H16   S    
C4    C6    S    
C20   H7    S    
C3    C34   A    
C3    C5    S    
C25   C26   S    
C32   O11   A    
Cu1   O1    S    
C18   O12   S    
C12   C17   A    
C33   O10   A    
Cu1   Cu2   S    
C2    O2    S    
C34   O3    S    
C10   N1    A    
C1    C16   A    
C23   O1    A    
C30   H28   S    
C22   H11   S    
C29   H27   S    
C12   C14   A    
Cu2   O5    S    
C22   C24   S    
Cu1   O6    S    
C10   H12   S    
C20   H5    S    
C21   H8    S    
C15   C17   A    
C7    C32   S    
C25   O3    S    
C25   H17   S    
C11   H23   S    
C27   H20   S    
C26   H18   S    
C5    C8    T    
C6    C7    T    
C15   H33   S    
C31   O5    A    
Cu2   O11   S    
C11   N2    A    
C2    C3    A    
C24   H15   S    
C27   H21   S    
C13   H31   S    
C14   C16   A    
C8    C33   S    
C28   O4    S    
C26   H19   S    
C29   H26   S    
C10   C11   A    
C28   H25   S    
C18   H2    S    
C30   H30   S    
C19   H3    S    
C21   H9    S    
C28   H24   S    
