data_mof_unit_24946.cif
_audit_creation_date              2012-12-11T16:20:32-0500
_audit_creation_method            fapswitch 2.2
_symmetry_space_group_name_H-M    P1
_symmetry_Int_Tables_number       1
_space_group_crystal_system       triclinic
_cell_length_a                    6.910481
_cell_length_b                    34.297583
_cell_length_c                    38.38214
_cell_angle_alpha                 99.538393
_cell_angle_beta                  89.744837
_cell_angle_gamma                 90.294056
_cell_volume                      8971.11148566

loop_
_atom_site_label
_atom_site_type_symbol
_atom_type_description
_atom_site_fract_x
_atom_site_fract_y
_atom_site_fract_z
_atom_type_partial_charge
O1    O     O_R   0.494320 0.461440 0.460990 -0.540091
O2    O     O_R   0.821450 0.462560 0.532500 -0.541176
O3    O     O_R   0.994330 0.538560 0.539010 -0.538996
C1    C     C_R   0.652057 0.453885 0.543710 0.709479
O4    O     O_R   0.823870 0.456770 0.460860 -0.539987
O5    O     O_R   0.996760 0.532730 0.466860 -0.538757
C2    C     C_R   0.655026 0.446103 0.447894 0.704774
O6    O     O_R   0.491880 0.467270 0.533140 -0.538484
O7    O     O_3   0.661650 0.524930 0.502050 -0.366561
V1    V     V_3+5 0.935500 0.495380 0.499620 1.410751
O8    O     O_R   0.326630 0.537440 0.467500 -0.540256
C3    C     C_R   0.158336 0.545998 0.456070 0.711667
O9    O     O_R   0.324210 0.543230 0.539140 -0.540520
C4    C     C_R   0.155156 0.553852 0.552166 0.710206
V2    V     V_3+5 0.435810 0.504620 0.500380 1.410195
O10   O     O_3   0.159790 0.475070 0.497950 -0.367568
C5    C     C_R   0.902328 0.823153 0.798710 0.548784
N1    N     N_R   0.038854 0.824029 0.824755 -0.546068
C6    C     C_R   0.185125 0.796893 0.821581 0.568889
C7    C     C_R   0.200036 0.767687 0.791434 -0.025322
C8    C     C_R   0.059159 0.765529 0.764631 -0.025368
C9    C     C_R   0.905218 0.793239 0.767932 -0.074862
C10   C     C_R   0.354054 0.740655 0.787614 -0.150233
C11   C     C_R   0.368873 0.711570 0.757762 -0.142371
C12   C     C_R   0.229667 0.708609 0.730957 -0.035425
C13   C     C_R   0.074904 0.735695 0.734349 -0.024804
C14   C     C_R   0.937777 0.733088 0.707291 -0.056109
C15   C     C_R   0.784183 0.759944 0.710577 -0.145218
C16   C     C_R   0.763619 0.790107 0.740263 0.067839
C17   C     C_R   0.241755 0.679071 0.700766 0.576012
N2    N     N_R   0.106638 0.676910 0.674390 -0.551958
C18   C     C_R   0.957283 0.703547 0.677122 0.582032
O11   O     O_2   0.767549 0.851770 0.802577 -0.547039
O12   O     O_2   0.315669 0.797917 0.847774 -0.530556
H1    H     H_    0.464864 0.741995 0.807652 0.170706
H2    H     H_    0.490227 0.691450 0.755769 0.172001
O13   O     O_2   0.386161 0.652400 0.698136 -0.527191
O14   O     O_2   0.828733 0.701840 0.650540 -0.534423
H3    H     H_    0.680262 0.756985 0.689412 0.162869
C19   C     C_R   0.963254 0.620227 0.634094 -0.085574
H4    H     H_    0.832105 0.622996 0.649844 0.153558
C20   C     C_R   0.974412 0.590666 0.604281 -0.202400
H5    H     H_    0.850641 0.571395 0.597683 0.133743
C21   C     C_R   0.144028 0.585635 0.583610 -0.058755
C22   C     C_R   0.301850 0.611139 0.593427 -0.201712
H6    H     H_    0.434348 0.608181 0.578058 0.139485
C23   C     C_R   0.289224 0.641218 0.622925 -0.086990
H7    H     H_    0.411394 0.660905 0.629561 0.160747
C24   C     C_R   0.119930 0.646018 0.643671 0.358122
C25   C     C_R   0.186958 0.880051 0.865305 -0.094421
H8    H     H_    0.316781 0.877379 0.849190 0.148270
C26   C     C_R   0.177890 0.909408 0.895333 -0.200282
H9    H     H_    0.301896 0.928657 0.901759 0.134196
C27   C     C_R   0.009547 0.914353 0.916368 -0.058888
C28   C     C_R   0.851342 0.888879 0.906818 -0.203130
H10   H     H_    0.719840 0.891755 0.922473 0.140807
C29   C     C_R   0.861927 0.859028 0.877152 -0.080182
H11   H     H_    0.739169 0.839467 0.870626 0.159349
C30   C     C_R   0.029406 0.854423 0.855927 0.369190
C31   C     C_R   0.033653 0.867987 0.184735 0.597266
O15   O     O_2   0.017636 0.907404 0.194977 -0.548913
N3    N     N_R   0.036122 0.852363 0.149420 -0.534668
C32   C     C_R   0.047129 0.812257 0.138561 0.597385
C33   C     C_R   0.863461 0.877487 0.101492 -0.162813
C34   C     C_R   0.851991 0.902207 0.075965 -0.212225
C35   C     C_R   0.170503 0.928149 0.092556 -0.296305
C36   C     C_R   0.179994 0.904592 0.119384 0.459699
C37   C     C_R   0.026817 0.878307 0.123284 0.299111
C38   C     C_R   0.052356 0.801875 0.199787 -0.045991
C39   C     C_R   0.046139 0.843128 0.210491 -0.033137
C40   C     C_R   0.052250 0.858583 0.246611 -0.134000
C41   C     C_R   0.053861 0.786343 0.163484 -0.037338
C42   C     C_R   0.005896 0.927683 0.071065 -0.104379
H12   H     H_    0.291225 0.947239 0.088804 0.135467
H13   H     H_    0.045587 0.890181 0.255705 0.163757
C43   C     C_R   0.151222 0.572465 0.429100 -0.073469
C44   C     C_R   0.107570 0.766037 0.286365 0.043532
C45   C     C_R   0.027736 0.709126 0.240115 0.005455
C46   C     C_R   0.076904 0.724733 0.275741 0.036806
C47   C     C_R   0.167623 0.779827 0.321433 -0.176898
C48   C     C_R   0.190738 0.754079 0.345615 -0.129106
C49   C     C_R   0.151788 0.713669 0.336003 -0.028378
C50   C     C_R   0.092693 0.699026 0.301163 -0.048892
C51   C     C_R   0.048031 0.658697 0.291935 -0.046095
C52   C     C_R   0.066444 0.633555 0.317347 0.555109
N4    N     N_R   0.127316 0.648101 0.350917 -0.556605
C53   C     C_R   0.169378 0.687482 0.360576 0.568802
C54   C     C_R   0.985972 0.621672 0.401181 -0.129838
C55   C     C_R   0.990587 0.596738 0.426604 -0.203136
C56   C     C_R   0.304816 0.572971 0.405071 -0.219109
C57   C     C_R   0.298386 0.596662 0.378392 0.110035
C58   C     C_R   0.138466 0.622041 0.376916 0.368092
O16   O     O_2   0.227598 0.701322 0.393850 -0.521140
C59   C     C_R   0.078578 0.792100 0.261612 0.035485
C60   C     C_R   0.058725 0.776132 0.225357 0.066044
C61   C     C_R   0.048556 0.734607 0.214333 0.021705
C62   C     C_R   0.070730 0.833659 0.271685 -0.177523
H14   H     H_    0.869793 0.596924 0.444708 0.139774
H15   H     H_    0.862263 0.640688 0.400143 0.128628
H16   H     H_    0.238248 0.766138 0.372087 0.168701
H17   H     H_    0.203888 0.810413 0.330632 0.123621
H18   H     H_    0.072829 0.847708 0.298990 0.123689
O17   O     O_2   0.052519 0.797428 0.103745 -0.518504
C63   C     C_R   0.069098 0.745410 0.152949 -0.137706
H19   H     H_    0.723249 0.901106 0.059839 0.153572
H20   H     H_    0.743749 0.857850 0.104620 0.171893
H21   H     H_    0.082579 0.732627 0.125289 0.169570
C64   C     C_R   0.953712 0.669335 0.232773 0.076764
C65   C     C_R   0.975412 0.644581 0.258262 -0.182036
O18   O     O_2   0.022766 0.594889 0.308560 -0.559467
C66   C     C_R   0.070059 0.720196 0.177953 -0.187606
H22   H     H_    0.428584 0.554001 0.406457 0.127465
H23   H     H_    0.927760 0.614066 0.252144 0.156868
H24   H     H_    0.099545 0.689658 0.168394 0.128262
C67   C     C_R   0.747244 0.321303 0.647107 0.578956
O19   O     O_2   0.896989 0.318547 0.624147 -0.527143
N5    N     N_R   0.603713 0.348431 0.645443 -0.553991
C68   C     C_R   0.448044 0.350726 0.668017 0.585823
C69   C     C_R   0.781767 0.398504 0.617921 -0.082370
C70   C     C_R   0.794758 0.423716 0.592848 -0.204014
C71   C     C_R   0.474572 0.403118 0.571630 -0.205872
C72   C     C_R   0.463765 0.377162 0.596081 -0.084926
C73   C     C_R   0.616537 0.374798 0.619692 0.353198
C74   C     C_R   0.578914 0.297372 0.695354 -0.048939
C75   C     C_R   0.738779 0.295832 0.672332 -0.037155
C76   C     C_R   0.886700 0.268872 0.674818 -0.130965
C77   C     C_R   0.431565 0.324933 0.692876 -0.032606
C78   C     C_R   0.640603 0.426502 0.569645 -0.055622
H25   H     H_    0.354095 0.404479 0.553919 0.137322
H26   H     H_    0.336025 0.358853 0.596646 0.158031
H27   H     H_    0.012126 0.267204 0.657596 0.170703
C79   C     C_R   0.512134 0.074059 0.930335 -0.069839
C80   C     C_R   0.707157 0.218620 0.748870 0.028642
C81   C     C_R   0.390982 0.247501 0.769164 0.028303
C82   C     C_R   0.543841 0.220530 0.771786 0.064052
C83   C     C_R   0.854002 0.190922 0.752545 -0.179069
C84   C     C_R   0.841683 0.166341 0.777841 -0.132010
C85   C     C_R   0.683030 0.168251 0.800689 -0.035760
C86   C     C_R   0.533606 0.195219 0.797748 -0.048957
C87   C     C_R   0.374314 0.196894 0.820932 -0.037583
C88   C     C_R   0.369542 0.172430 0.847020 0.580986
N6    N     N_R   0.517115 0.146461 0.849562 -0.550974
C89   C     C_R   0.670997 0.143694 0.826589 0.585940
C90   C     C_R   0.357627 0.096957 0.880308 -0.092958
C91   C     C_R   0.356262 0.073446 0.906694 -0.246333
C92   C     C_R   0.671106 0.100117 0.927442 0.028663
C93   C     C_R   0.667468 0.124054 0.900984 -0.112217
C94   C     C_R   0.513399 0.122380 0.877151 0.337877
O20   O     O_2   0.811870 0.117044 0.828594 -0.527731
C95   C     C_R   0.718593 0.244245 0.723222 0.028328
C96   C     C_R   0.566623 0.271482 0.720819 0.063808
C97   C     C_R   0.402788 0.273246 0.743601 0.028557
C98   C     C_R   0.877689 0.243769 0.699732 -0.179629
H28   H     H_    0.233762 0.053908 0.908064 0.138240
H29   H     H_    0.237658 0.095069 0.862039 0.165674
H30   H     H_    0.959119 0.145941 0.779577 0.169442
H31   H     H_    0.982419 0.187363 0.736427 0.128658
H32   H     H_    0.999579 0.224408 0.699751 0.127898
O21   O     O_2   0.310379 0.378240 0.666824 -0.530127
C99   C     C_R   0.271373 0.326413 0.715351 -0.129929
H33   H     H_    0.923855 0.441604 0.592063 0.135168
H34   H     H_    0.900391 0.397534 0.636092 0.165284
H35   H     H_    0.155056 0.347139 0.713871 0.168980
C100  C     C_R   0.231417 0.247799 0.792533 -0.179382
C101  C     C_R   0.224100 0.223173 0.817877 -0.132381
O22   O     O_2   0.219972 0.175140 0.870012 -0.530831
C102  C     C_R   0.256664 0.301153 0.740079 -0.178677
H36   H     H_    0.108098 0.266716 0.792125 0.128192
H37   H     H_    0.098744 0.224820 0.835113 0.169459
H38   H     H_    0.785477 0.144447 0.898781 0.152617
H39   H     H_    0.127715 0.304545 0.756064 0.128819
C103  C     C_R   0.694488 0.175091 0.198971 0.577557
N7    N     N_R   0.542951 0.175171 0.175827 -0.553146
C104  C     C_R   0.403604 0.204052 0.181948 0.574664
C105  C     C_R   0.412256 0.233710 0.212120 -0.029123
C106  C     C_R   0.568932 0.234302 0.235511 -0.021521
C107  C     C_R   0.712153 0.204964 0.228822 -0.023731
C108  C     C_R   0.268869 0.262943 0.219275 -0.148305
C109  C     C_R   0.281977 0.292482 0.249034 -0.145358
C110  C     C_R   0.438967 0.293600 0.272393 -0.023474
C111  C     C_R   0.582460 0.264316 0.265659 -0.021683
C112  C     C_R   0.739478 0.264980 0.288991 -0.030724
C113  C     C_R   0.882706 0.235713 0.281861 -0.146707
C114  C     C_R   0.869139 0.206075 0.252184 -0.144194
C115  C     C_R   0.456476 0.323440 0.302271 0.578097
N8    N     N_R   0.608901 0.323540 0.325239 -0.553631
C116  C     C_R   0.748718 0.294775 0.319054 0.577705
O23   O     O_2   0.826882 0.145916 0.193490 -0.534539
O24   O     O_2   0.258288 0.204585 0.158675 -0.530092
H40   H     H_    0.145748 0.263091 0.201933 0.169885
H41   H     H_    0.168489 0.314419 0.253658 0.167292
O25   O     O_2   0.323093 0.352414 0.307959 -0.534300
O26   O     O_2   0.895152 0.294531 0.342148 -0.526989
H42   H     H_    0.005991 0.235601 0.299171 0.170711
H43   H     H_    0.982462 0.184101 0.247588 0.167826
C117  C     C_R   0.790247 0.377229 0.363210 -0.089199
H44   H     H_    0.912139 0.372666 0.345192 0.163527
C118  C     C_R   0.802524 0.406577 0.393250 -0.206363
H45   H     H_    0.934285 0.423881 0.397808 0.133147
C119  C     C_R   0.644681 0.414159 0.416624 -0.057252
C120  C     C_R   0.475561 0.391259 0.409555 -0.208135
H46   H     H_    0.351843 0.396195 0.427134 0.137073
C121  C     C_R   0.465113 0.361284 0.380008 -0.086693
H47   H     H_    0.334462 0.343619 0.375587 0.156966
C122  C     C_R   0.621622 0.354099 0.356277 0.355152
C123  C     C_R   0.360775 0.122299 0.136942 -0.093150
H48   H     H_    0.237162 0.127125 0.154538 0.163849
C124  C     C_R   0.348869 0.093322 0.106631 -0.217178
H49   H     H_    0.215653 0.076627 0.101447 0.132191
C125  C     C_R   0.508789 0.085311 0.083807 -0.051286
C126  C     C_R   0.679880 0.107279 0.091800 -0.218373
H50   H     H_    0.805889 0.101662 0.074907 0.138787
C127  C     C_R   0.689753 0.137074 0.121471 -0.092257
H51   H     H_    0.821910 0.154153 0.126443 0.155383
C128  C     C_R   0.530970 0.144767 0.144635 0.359245
O27   O     O_R   0.662230 0.032770 0.966890 -0.538729
O28   O     O_R   0.330090 0.043230 0.039150 -0.544303
O29   O     O_R   0.157350 0.967260 0.033130 -0.536017
C129  C     C_R   0.498795 0.053749 0.052250 0.694788
O30   O     O_R   0.332650 0.037450 0.967510 -0.544385
O31   O     O_R   0.159930 0.961430 0.960980 -0.536501
C130  C     C_R   0.502575 0.046831 0.956764 0.703342
O32   O     O_R   0.659640 0.038600 0.039040 -0.537846
O33   O     O_3   0.492510 0.975090 0.997960 -0.361474
V3    V     V_3+5 0.218600 0.004620 0.000380 1.385993
O34   O     O_R   0.830050 0.956730 0.960830 -0.540144
C131  C     C_R   0.999089 0.946125 0.947820 0.712363
O35   O     O_R   0.827490 0.962520 0.032470 -0.541914
C132  C     C_R   0.995980 0.954037 0.043984 0.735077
V4    V     V_3+5 0.718310 0.995320 0.999580 1.400148
O36   O     O_3   0.994270 0.024900 0.002040 -0.374314
O37   O     O_3   0.344156 0.904445 0.140078 -0.569397
C133  C     C_3   0.386470 0.942824 0.158703 0.111183
H52   H     H_    0.391371 0.940992 0.187317 0.172194
H53   H     H_    0.275417 0.965637 0.155816 0.110557
C134  C     C_3   0.585536 0.956299 0.147564 -0.344151
H54   H     H_    0.697660 0.935918 0.154660 0.234317
H55   H     H_    0.589693 0.955375 0.118532 0.192943
C135  C     C_3   0.632868 0.998270 0.165666 -0.777885
H56   H     H_    0.526044 0.019445 0.158077 0.229615
H57   H     H_    0.779189 0.006746 0.157357 0.236037
H58   H     H_    0.631411 0.000032 0.194825 0.242713
C136  C     C_3   0.827241 0.652827 0.201107 -0.353445
C137  C     C_3   0.652651 0.679200 0.196722 -0.282389
C138  C     C_3   0.545991 0.664034 0.162396 -0.754581
H59   H     H_    0.647256 0.661184 0.139561 0.235944
H60   H     H_    0.477915 0.634877 0.163595 0.226171
H61   H     H_    0.432286 0.685361 0.158171 0.222550
H62   H     H_    0.551588 0.679453 0.219388 0.196154
H63   H     H_    0.697160 0.710141 0.196189 0.213783
H64   H     H_    0.912443 0.645593 0.176553 0.167240
H65   H     H_    0.766060 0.623590 0.204432 0.167359
C139  C     C_3   0.462077 0.593424 0.351809 -0.347358
C140  C     C_3   0.453037 0.553470 0.326883 -0.326004
C141  C     C_3   0.625830 0.547887 0.301822 -0.684301
H66   H     H_    0.639228 0.573172 0.287218 0.240587
H67   H     H_    0.759877 0.545136 0.317018 0.263048
H68   H     H_    0.606610 0.520304 0.282429 0.212337
H69   H     H_    0.451246 0.528761 0.342320 0.193427
H70   H     H_    0.318490 0.551606 0.311030 0.244176
H71   H     H_    0.457424 0.617691 0.335944 0.185237
H72   H     H_    0.602005 0.596264 0.366193 0.177872
C142  C     C_3   0.592385 0.818576 0.742306 -0.293664
C143  C     C_3   0.444232 0.811249 0.712081 -0.379847
C144  C     C_3   0.279744 0.841189 0.718259 -0.710526
H73   H     H_    0.209264 0.840560 0.744194 0.228562
H74   H     H_    0.336077 0.871465 0.717691 0.232758
H75   H     H_    0.169612 0.833882 0.697176 0.225672
H76   H     H_    0.515773 0.814078 0.686617 0.208090
H77   H     H_    0.381427 0.781135 0.710253 0.211646
H78   H     H_    0.511807 0.817021 0.767158 0.214928
H79   H     H_    0.650554 0.848964 0.742991 0.216293
C145  C     C_3   0.844779 0.104345 0.951919 -0.346086
C146  C     C_3   0.791732 0.125699 0.989055 -0.297112
C147  C     C_3   0.970970 0.133357 0.012362 -0.733584
H80   H     H_    0.038288 0.104994 0.015998 0.237849
H81   H     H_    0.078609 0.151312 0.000290 0.229190
H82   H     H_    0.929357 0.149918 0.038646 0.215408
H83   H     H_    0.723414 0.154537 0.987104 0.200661
H84   H     H_    0.686652 0.107878 0.001808 0.184957
H85   H     H_    0.911610 0.075234 0.952788 0.199449
H86   H     H_    0.960488 0.121816 0.941274 0.182777

loop_
_geom_bond_atom_site_label_1
_geom_bond_atom_site_label_2
_ccdc_geom_bond_type
C139  H72   S    
C103  C107  A    
C46   C50   A    
C28   H10   S    
C141  H67   S    
C143  H76   S    
C9    C16   A    
C47   C48   A    
C120  H46   S    
C60   C61   A    
C56   H22   S    
C1    O6    A    
C92   C145  S    
O33   V3    S    
O30   C130  A    
C48   C49   A    
C115  N8    A    
C142  C143  S    
C23   C24   A    
C123  C128  A    
C22   H6    S    
C137  C138  S    
C82   C86   A    
C121  C122  A    
C88   O22   S    
V3    O36   S    
C137  H63   S    
C84   C85   A    
C146  H84   S    
C145  H86   S    
C33   C37   A    
C31   N3    A    
C15   C16   A    
C147  H81   S    
C135  H56   S    
C103  O23   S    
N1    C6    A    
C85   C89   A    
C52   N4    A    
C17   N2    A    
C108  H40   S    
C123  C124  A    
C29   C30   A    
C49   C53   A    
C35   H12   S    
O8    C3    A    
O31   V3    S    
C44   C59   A    
C2    C119  S    
C113  H42   S    
C34   C42   A    
C64   C65   A    
C45   C64   A    
C146  C147  S    
C99   C102  A    
C34   H19   S    
C98   H32   S    
C112  C113  A    
C93   C94   A    
C8    C9    A    
C104  C105  A    
O8    V2    S    
N6    C89   A    
N4    C58   S    
C50   C51   A    
C45   C61   A    
C124  H49   S    
C67   N5    A    
C95   C98   A    
C5    N1    A    
C80   C83   A    
C25   C26   A    
C96   C97   A    
C118  H45   S    
O1    V2    S    
C140  H70   S    
C135  H58   S    
C127  C128  A    
C144  H73   S    
O29   V3    S    
C62   H18   S    
O32   V4    S    
C90   C94   A    
C43   C55   A    
C23   H7    S    
C70   C78   A    
C142  H78   S    
C35   C36   A    
N5    C73   S    
C141  H68   S    
N7    C104  A    
O9    C4    A    
C116  O26   S    
C80   C82   A    
C120  C121  A    
C100  C101  A    
C68   O21   S    
C117  C122  A    
C88   N6    A    
C5    O11   S    
N2    C24   S    
C18   O14   S    
C69   H34   S    
O35   V4    S    
O35   C132  A    
C144  H75   S    
C8    C13   A    
C26   C27   A    
C3    C43   S    
C108  C109  A    
C105  C108  A    
C29   H11   S    
C72   C73   A    
C22   C23   A    
C101  H37   S    
C106  C111  A    
C61   C66   A    
C32   C41   A    
C136  H64   S    
C137  H62   S    
C1    C78   S    
C36   C37   A    
C54   H15   S    
C99   H35   S    
N6    C94   S    
C100  H36   S    
C147  H82   S    
C11   C12   A    
C71   C78   A    
C32   O17   S    
C134  H54   S    
C85   C86   A    
C57   C58   A    
O4    C2    A    
C123  H48   S    
C119  C120  A    
C102  H39   S    
C41   C63   A    
C59   C62   A    
C12   C13   A    
C127  H51   S    
C35   C42   A    
C49   C50   A    
C114  H43   S    
C125  C129  S    
C146  H83   S    
C17   O13   S    
C31   O15   S    
C111  C112  A    
C38   C41   A    
O2    C1    A    
C113  C114  A    
C45   C46   A    
O29   C132  A    
C76   H27   S    
N3    C32   A    
O33   V4    S    
C140  C141  S    
C40   C62   A    
O27   V4    S    
C126  H50   S    
C7    C10   A    
C31   C39   A    
C10   C11   A    
C81   C97   A    
C7    C8    A    
C83   H31   S    
C25   H8    S    
C13   C14   A    
C44   C46   A    
C135  H57   S    
C54   C58   A    
C26   H9    S    
C51   C52   A    
C65   H23   S    
C133  H53   S    
C19   C24   A    
C71   C72   A    
C39   C40   A    
O3    C4    A    
C70   H33   S    
C74   C77   A    
C91   H28   S    
C117  C118  A    
C106  C107  A    
C126  C127  A    
C147  H80   S    
C36   O37   S    
C52   O18   S    
O6    V2    S    
C10   H1    S    
C138  H60   S    
O9    V2    S    
C142  H79   S    
C75   C76   A    
C79   C130  S    
C20   H5    S    
C79   C91   A    
C15   H3    S    
C141  H66   S    
O2    V1    S    
O5    C3    A    
C144  H74   S    
C97   C102  A    
C103  N7    A    
N4    C53   A    
C115  O25   S    
C4    C21   S    
C92   C93   A    
O7    V1    S    
C44   C47   A    
C139  H71   S    
C12   C17   A    
V4    O36   S    
C27   C28   A    
C19   H4    S    
C143  H77   S    
C136  H65   S    
N8    C122  S    
N7    C128  S    
C14   C18   A    
O1    C2    A    
C74   C96   A    
N2    C18   A    
C21   C22   A    
C51   C65   A    
C71   H25   S    
C117  H44   S    
C38   C60   A    
C6    O12   S    
C67   C75   A    
O5    V1    S    
C63   C66   A    
C69   C70   A    
C93   H38   S    
C33   H20   S    
C81   C82   A    
C48   H16   S    
C69   C73   A    
O28   C129  A    
C107  C114  A    
C57   C139  S    
C80   C95   A    
O31   C131  A    
C5    C9    A    
C11   H2    S    
C134  C135  S    
N3    C37   S    
C47   H17   S    
C90   C91   A    
C145  H85   S    
C33   C34   A    
C6    C7    A    
C28   C29   A    
C25   C30   A    
C143  C144  S    
C20   C21   A    
C79   C92   A    
O4    V1    S    
C105  C106  A    
O34   V4    S    
N5    C68   A    
C40   H13   S    
C86   C87   A    
C56   C57   A    
C139  C140  S    
V1    O10   S    
C55   H14   S    
C140  H69   S    
C90   H29   S    
C87   C88   A    
V2    O10   S    
C53   O16   S    
C64   C136  S    
C19   C20   A    
O37   C133  S    
C16   C142  S    
C134  H55   S    
O30   V3    S    
C66   H24   S    
C112  C116  A    
C125  C126  A    
O7    V2    S    
C59   C60   A    
C87   C101  A    
C133  C134  S    
C38   C39   A    
C27   C131  S    
O27   C130  A    
C110  C111  A    
C110  C115  A    
C104  O24   S    
C129  O32   A    
C109  C110  A    
C81   C100  A    
C76   C98   A    
N1    C30   S    
C89   O20   S    
C109  H41   S    
C54   C55   A    
C84   H30   S    
C124  C125  A    
O34   C131  A    
C68   C77   A    
C138  H61   S    
C43   C56   A    
C14   C15   A    
O3    V1    S    
C95   C96   A    
C83   C84   A    
C118  C119  A    
C121  H47   S    
C67   O19   S    
N8    C116  A    
C138  H59   S    
C77   C99   A    
C72   H26   S    
C63   H21   S    
C42   C132  S    
C136  C137  S    
C133  H52   S    
O28   V3    S    
C74   C75   A    
C145  C146  S    
