data_mof_unit_39266.cif
_audit_creation_date              2012-12-10T17:33:57-0500
_audit_creation_method            fapswitch 2.2
_symmetry_space_group_name_H-M    P1
_symmetry_Int_Tables_number       1
_space_group_crystal_system       triclinic
_cell_length_a                    11.114483
_cell_length_b                    12.189249
_cell_length_c                    12.835496
_cell_angle_alpha                 95.617647
_cell_angle_beta                  95.055231
_cell_angle_gamma                 86.890749
_cell_volume                      1722.00819269

loop_
_atom_site_label
_atom_site_type_symbol
_atom_type_description
_atom_site_fract_x
_atom_site_fract_y
_atom_site_fract_z
_atom_type_partial_charge
C1    C     C_R   0.489281 0.523866 0.699991 0.924772
C2    C     C_R   0.500619 0.453232 0.972783 0.097064
C3    C     C_R   0.517014 0.555959 0.031199 0.031364
C4    C     C_R   0.741866 0.502248 0.501064 0.844508
C5    C     C_R   0.554395 0.554834 0.138566 0.108633
C6    C     C_R   0.531558 0.355221 0.128026 -0.099437
C7    C     C_R   0.513070 0.355097 0.019758 -0.191916
C8    C     C_R   0.364863 0.949905 0.411721 0.167817
C9    C     C_R   0.393812 0.835248 0.407258 0.250603
C10   C     C_R   0.531773 0.865612 0.558467 0.014301
C11   C     C_R   0.512369 0.983286 0.556951 -0.077031
C12   C     C_3   0.120746 0.505148 0.500825 -0.178006
C13   C     C_R   0.442263 0.024032 0.472971 -0.035364
C14   C     C_R   0.452162 0.136758 0.452306 0.066973
C15   C     C_R   0.581397 0.169855 0.607993 -0.000287
C16   C     C_R   0.513199 0.476237 0.300397 0.953725
C17   C     C_R   0.565739 0.062049 0.634204 -0.127612
C18   C     C_R   0.258115 0.500874 0.502595 0.968106
C19   C     C_3   0.942825 0.434573 0.586866 -0.021417
C20   C     C_3   0.080020 0.455344 0.602186 -0.303466
C21   C     C_3   0.920600 0.463080 0.391353 -0.451788
C22   C     C_3   0.923050 0.635352 0.527422 0.357577
C23   C     C_3   0.062551 0.437871 0.394342 -0.204454
C24   C     C_3   0.878266 0.509637 0.502784 -0.076147
C25   C     C_3   0.080659 0.688037 0.403214 -0.860095
C26   C     C_2   0.111144 0.471294 0.293500 0.899079
C27   C     C_3   0.644476 0.636220 0.190818 -0.765025
C28   C     C_2   0.558687 0.245111 0.168301 0.947640
C29   C     C_2   0.484083 0.764586 0.038589 0.911747
C30   C     C_3   0.392740 0.742709 0.822162 -0.705376
C31   C     C_2   0.404115 0.167951 0.347744 0.939800
C32   C     C_3   0.889140 0.438945 0.695552 -0.825078
C33   C     C_2   0.678084 0.232460 0.666170 1.020345
C34   C     C_3   0.064974 0.634079 0.507086 0.363785
C35   C     C_3   0.241255 0.989678 0.367179 -0.852527
C36   C     C_2   0.589081 0.038362 0.745936 0.970579
C37   C     C_3   0.345906 0.765422 0.311403 -0.763221
C38   C     C_2   0.631885 0.829445 0.632430 0.907751
C39   C     C_2   0.152702 0.359765 0.649930 1.028863
C40   C     C_2   0.849785 0.370416 0.331933 1.022180
C41   C     C_2   0.091526 0.312408 0.384035 0.981328
C42   C     C_3   0.849970 0.723588 0.460261 -0.752410
C43   C     C_3   0.899633 0.678027 0.643167 -0.795847
C44   C     C_3   0.134711 0.714388 0.593917 -0.819327
C45   C     C_R   0.536866 0.459278 0.188828 -0.101983
C46   C     C_R   0.474640 0.541160 0.812762 -0.062928
C47   C     C_R   0.491107 0.654036 0.979867 -0.040332
C48   C     C_R   0.458540 0.645298 0.870412 0.087724
C49   C     C_R   0.482146 0.446910 0.865581 -0.213446
H1    H     H_    0.932258 0.348334 0.551941 0.277077
H2    H     H_    0.707755 0.655980 0.133719 0.259489
H3    H     H_    0.600056 0.713250 0.224185 0.241956
H4    H     H_    0.700914 0.599423 0.255242 0.227285
H5    H     H_    0.647240 0.154355 0.276917 0.368135
H6    H     H_    0.378175 0.886105 0.105731 0.378906
H7    H     H_    0.310390 0.766157 0.863729 0.237498
H8    H     H_    0.450618 0.814564 0.831565 0.304278
H9    H     H_    0.360159 0.725643 0.738864 0.242283
H10   H     H_    0.307839 0.273510 0.259645 0.356011
H11   H     H_    0.913759 0.360418 0.730549 0.286315
H12   H     H_    0.897178 0.530349 0.341214 0.185655
H13   H     H_    0.926964 0.501526 0.755578 0.221403
H14   H     H_    0.789523 0.451331 0.690345 0.245822
H15   H     H_    0.743975 0.307943 0.805274 0.345467
H16   H     H_    0.171189 0.936452 0.388167 0.231190
H17   H     H_    0.216748 0.073049 0.402846 0.271765
H18   H     H_    0.237024 0.989020 0.280423 0.269581
H19   H     H_    0.706920 0.033035 0.874380 0.366819
H20   H     H_    0.260114 0.798013 0.273009 0.231807
H21   H     H_    0.413595 0.758828 0.253489 0.251399
H22   H     H_    0.328856 0.683246 0.329187 0.282806
H23   H     H_    0.508769 0.277434 0.970603 0.204222
H24   H     H_    0.684111 0.762909 0.767832 0.340868
H25   H     H_    0.305801 0.307155 0.727930 0.343844
H26   H     H_    0.798538 0.302207 0.185983 0.368128
H27   H     H_    0.083139 0.169424 0.288730 0.350057
H28   H     H_    0.832436 0.696595 0.376103 0.201142
H29   H     H_    0.761259 0.751188 0.485135 0.276486
H30   H     H_    0.896155 0.802749 0.469042 0.248094
H31   H     H_    0.904118 0.768382 0.657234 0.288232
H32   H     H_    0.810235 0.654760 0.662826 0.251617
H33   H     H_    0.967984 0.650466 0.702902 0.210601
H34   H     H_    0.477993 0.366100 0.822965 0.216945
H35   H     H_    0.217647 0.746910 0.568928 0.269215
H36   H     H_    0.081297 0.792504 0.610326 0.242660
H37   H     H_    0.160588 0.678229 0.668683 0.206475
H38   H     H_    0.093911 0.519209 0.667788 0.136276
H39   H     H_    0.014523 0.666021 0.336723 0.238835
H40   H     H_    0.078659 0.779415 0.414566 0.237451
H41   H     H_    0.165226 0.662604 0.373211 0.258537
H42   H     H_    0.075910 0.513279 0.144949 0.355406
N1    N     N_R   0.523380 0.207800 0.519350 -0.168716
N2    N     N_R   0.476620 0.792180 0.480650 -0.171651
O1    O     O_R   0.506240 0.421700 0.658830 -0.625839
O2    O     O_R   0.032122 0.494196 0.206352 -0.758163
O3    O     O_2   0.529539 0.161576 0.112954 -0.557560
O4    O     O_R   0.626529 0.234122 0.263654 -0.762736
O5    O     O_2   0.573244 0.820387 0.051972 -0.590924
O6    O     O_R   0.372849 0.808271 0.070167 -0.808203
O7    O     O_2   0.418100 0.102779 0.270674 -0.623246
O8    O     O_R   0.336158 0.265322 0.335903 -0.730643
O9    O     O_2   0.773214 0.235358 0.626220 -0.580797
O10   O     O_R   0.667233 0.275365 0.770004 -0.835408
O11   O     O_2   0.507405 0.005824 0.791027 -0.618123
O12   O     O_R   0.491240 0.609310 0.646410 -0.585173
O13   O     O_R   0.703387 0.052271 0.799058 -0.733274
O14   O     O_2   0.728440 0.872938 0.633527 -0.656077
O15   O     O_R   0.612649 0.766404 0.713242 -0.781934
O16   O     O_2   0.107804 0.270733 0.653354 -0.555885
O17   O     O_R   0.267680 0.376744 0.699405 -0.826654
O18   O     O_2   0.834206 0.286635 0.373237 -0.553937
O19   O     O_R   0.816528 0.376501 0.224921 -0.754489
O20   O     O_2   0.143065 0.264839 0.455143 -0.603969
O21   O     O_R   0.062164 0.251164 0.287550 -0.771405
O22   O     O_R   0.692710 0.406190 0.506230 -0.565699
O23   O     O_R   0.677700 0.593810 0.493810 -0.647427
O24   O     O_R   0.508760 0.390690 0.353590 -0.548539
O25   O     O_R   0.493760 0.578300 0.341170 -0.633217
O26   O     O_R   0.322300 0.406190 0.506190 -0.524104
O27   O     O_R   0.307290 0.593810 0.493770 -0.647273
O28   O     O_2   0.220014 0.472139 0.286129 -0.660594
Zn1   Zn    Zn3+2 0.510020 0.374730 0.508290 1.063729
Zn2   Zn    Zn3+2 0.489980 0.625270 0.491710 0.948149

loop_
_geom_bond_atom_site_label_1
_geom_bond_atom_site_label_2
_ccdc_geom_bond_type
C28   O4    S    
H15   O10   S    
C30   H8    S    
C8    C13   A    
C6    C45   A    
C37   H20   S    
C4    O22   A    
C19   C20   S    
C14   C31   S    
C40   O19   S    
C46   C49   A    
H26   O19   S    
C29   O5    D    
C29   C47   S    
C31   O8    S    
C30   C48   S    
O23   Zn2   S    
N1    Zn1   S    
C4    C24   S    
C1    C46   S    
C35   H16   S    
C20   H38   S    
O12   Zn2   S    
C23   C26   S    
C38   O14   D    
C2    C7    A    
C15   N1    A    
C5    C27   S    
C39   O17   S    
C6    C28   S    
C47   C48   A    
C8    C9    A    
H27   O21   S    
H5    O4    S    
C17   C36   S    
C41   O21   S    
C21   H12   S    
O27   Zn2   S    
C25   C34   S    
C42   H30   S    
O22   Zn1   S    
C37   H21   S    
H19   O13   S    
C44   H37   S    
C19   C32   S    
C27   H2    S    
C40   O18   D    
C22   C34   S    
C46   C48   A    
C29   O6    S    
C36   O13   S    
C33   O9    D    
H10   O8    S    
C34   C44   S    
C7    H23   S    
C20   C39   S    
C1    O1    A    
H24   O15   S    
C10   N2    A    
C3    C5    A    
C43   H31   S    
C9    N2    A    
C30   H7    S    
C25   H39   S    
C8    C35   S    
C12   C18   S    
O24   Zn1   S    
C2    C49   A    
C16   O25   A    
C22   C43   S    
C12   C23   S    
C35   H18   S    
C12   C20   S    
C9    C37   S    
C25   H41   S    
C31   O7    D    
C14   N1    A    
O1    Zn1   S    
C26   O28   D    
C42   H29   S    
C21   C23   S    
C43   H32   S    
C22   C24   S    
C32   H11   S    
C12   C34   S    
C44   H36   S    
C18   O27   A    
C27   H3    S    
O26   Zn1   S    
C26   O2    S    
C15   C17   A    
C11   C17   A    
C33   O10   S    
C4    O23   A    
N2    Zn2   S    
C32   H14   S    
C41   O20   D    
C44   H35   S    
C23   C41   S    
C16   C45   S    
H25   O17   S    
C27   H4    S    
C6    C7    A    
C25   H40   S    
C35   H17   S    
C28   O3    D    
C10   C38   S    
C49   H34   S    
C37   H22   S    
C2    C3    A    
C32   H13   S    
C16   O24   A    
C11   C13   A    
C19   H1    S    
C36   O11   D    
C22   C42   S    
C21   C40   S    
C5    C45   A    
C30   H9    S    
C3    C47   A    
C19   C24   S    
O25   Zn2   S    
C38   O15   S    
C10   C11   A    
H42   O2    S    
C39   O16   D    
C42   H28   S    
C21   C24   S    
H6    O6    S    
C43   H33   S    
C13   C14   A    
C18   O26   A    
C15   C33   S    
C1    O12   A    
