data_mof_unit_57811.cif
_audit_creation_date              2012-10-26T19:42:17-0400
_audit_creation_method            fapswitch 2.2
_symmetry_space_group_name_H-M    P1
_symmetry_Int_Tables_number       1
_space_group_crystal_system       triclinic
_cell_length_a                    9.630166
_cell_length_b                    10.771219
_cell_length_c                    17.389456
_cell_angle_alpha                 94.325107
_cell_angle_beta                  85.426358
_cell_angle_gamma                 90.221269
_cell_volume                      1792.91585187

loop_
_atom_site_label
_atom_site_type_symbol
_atom_type_description
_atom_site_fract_x
_atom_site_fract_y
_atom_site_fract_z
_atom_type_partial_charge
Br1   Br    Br    0.137393 0.179082 0.760867 -0.510405
C1    C     C_R   0.499743 0.737470 0.503065 0.536842
C2    C     C_R   0.530403 0.497527 0.265869 0.022571
C3    C     C_R   0.332103 0.883582 0.625241 -0.142162
C4    C     C_R   0.480962 0.502705 0.650064 0.522135
C5    C     C_R   0.249733 0.954210 0.681707 -0.092489
C6    C     C_R   0.248190 0.083399 0.681932 0.180913
C7    C     C_R   0.329393 0.142713 0.625560 -0.073384
C8    C     C_R   0.412300 0.072796 0.566966 -0.009340
C9    C     C_R   0.413234 0.941401 0.566659 0.017974
C10   C     C_R   0.499371 0.872014 0.509243 0.013030
C11   C     C_R   0.587921 0.931452 0.456287 -0.141116
C12   C     C_R   0.342776 0.516530 0.781565 -0.008296
C13   C     C_R   0.587709 0.059521 0.456843 -0.123025
C14   C     C_R   0.498546 0.130221 0.510177 0.021503
C15   C     C_R   0.863117 0.350858 0.388848 -0.084952
C16   C     C_R   0.499274 0.263630 0.504951 0.554675
C17   C     C_R   0.932260 0.298627 0.322505 -0.198809
C18   C     C_R   0.074097 0.300625 0.315337 -0.172746
C19   C     C_R   0.149060 0.346957 0.377024 0.011909
C20   C     C_R   0.081227 0.424462 0.442330 0.140990
C21   C     C_R   0.930763 0.425638 0.444496 0.147788
C22   C     C_R   0.919311 0.571902 0.552289 0.019859
C23   C     C_R   0.418468 0.489359 0.146111 -0.103218
C24   C     C_R   0.066756 0.572068 0.552185 0.028675
C25   C     C_R   0.519018 0.500404 0.350332 0.554884
C26   C     C_R   0.471296 0.512366 0.735397 -0.005180
C27   C     C_R   0.596391 0.522298 0.772077 -0.124636
C28   C     C_R   0.595004 0.534698 0.851992 -0.100550
C29   C     C_R   0.468299 0.536355 0.897336 0.028942
C30   C     C_R   0.342977 0.529204 0.861998 -0.097019
C31   C     C_1   0.282282 0.285714 0.367402 0.273441
C32   C     C_1   0.208868 0.507211 0.749737 0.242984
C33   C     C_R   0.409207 0.492946 0.226141 -0.121519
C34   C     C_R   0.661431 0.497290 0.224148 -0.132041
C35   C     C_R   0.670620 0.494413 0.143725 -0.112033
C36   C     C_R   0.549246 0.492844 0.104442 0.044438
C37   C     C_2   0.463126 0.544374 0.981915 -0.126738
C38   C     C_2   0.561227 0.492763 0.019896 -0.124783
Cu1   Cu    Cu3+1 0.359340 0.500010 0.500010 0.964932
Cu2   Cu    Cu3+1 0.640660 0.499990 0.499990 0.940795
H1    H     H_    0.696715 0.521516 0.739106 0.154314
H2    H     H_    0.875480 0.249777 0.278162 0.129287
H3    H     H_    0.306821 0.491587 0.256676 0.129512
H4    H     H_    0.124889 0.250864 0.263993 0.129569
H5    H     H_    0.115817 0.632112 0.594704 0.123340
H6    H     H_    0.756573 0.499878 0.253476 0.134008
H7    H     H_    0.652666 0.449146 0.988715 0.128645
H8    H     H_    0.244914 0.531184 0.897474 0.116407
H9    H     H_    0.323001 0.482366 0.117223 0.107409
H10   H     H_    0.372210 0.588499 0.013337 0.119066
H11   H     H_    0.693318 0.544459 0.877942 0.121140
H12   H     H_    0.772281 0.495346 0.112215 0.109036
H13   H     H_    0.655210 0.878129 0.413035 0.130764
H14   H     H_    0.333471 0.783961 0.629285 0.130307
H15   H     H_    0.188363 0.908216 0.726060 0.144312
H16   H     H_    0.328603 0.243281 0.629366 0.165551
H17   H     H_    0.654961 0.103680 0.413979 0.125729
H18   H     H_    0.858688 0.631239 0.595315 0.120634
H19   H     H_    0.755533 0.330515 0.392737 0.192680
N1    N     N_R   0.852190 0.498790 0.499250 -0.247387
N2    N     N_R   0.148060 0.498710 0.499220 -0.246166
N3    N     N_1   0.386505 0.232142 0.353685 -0.325377
N4    N     N_1   0.100808 0.499479 0.725072 -0.284960
O1    O     O_R   0.381190 0.680360 0.500010 -0.507138
O2    O     O_R   0.618760 0.680340 0.500000 -0.501489
O3    O     O_R   0.367440 0.500030 0.613600 -0.508923
O4    O     O_R   0.605010 0.500010 0.613590 -0.505463
O5    O     O_R   0.381240 0.319660 0.500000 -0.494490
O6    O     O_R   0.618810 0.319640 0.499990 -0.520003
O7    O     O_R   0.394990 0.499990 0.386410 -0.504939
O8    O     O_R   0.632560 0.499970 0.386400 -0.530216

loop_
_geom_bond_atom_site_label_1
_geom_bond_atom_site_label_2
_ccdc_geom_bond_type
C7    C8    A    
C35   C36   A    
C15   C21   A    
C10   C11   A    
C18   H4    S    
C16   O5    A    
C28   C29   A    
C35   H12   S    
Cu1   O7    S    
Cu2   N1    S    
C7    H16   S    
C25   O8    A    
C8    C9    A    
C5    C6    A    
C12   C26   A    
C34   C35   A    
C2    C34   A    
C4    O3    A    
C1    O1    A    
C34   H6    S    
Cu1   O5    S    
C22   C24   A    
C23   C36   A    
C8    C14   A    
C33   H3    S    
C6    C7    A    
C36   C38   S    
Cu1   O3    S    
C4    C26   S    
C20   C21   A    
C21   N1    A    
C22   H18   S    
C25   O7    A    
C23   H9    S    
C20   N2    A    
C29   C30   A    
C30   H8    S    
Cu2   O8    S    
C1    C10   S    
C27   H1    S    
C27   C28   A    
C11   C13   A    
C17   C18   A    
Cu2   O4    S    
C24   N2    A    
C4    O4    A    
C3    H14   S    
C15   H19   S    
C37   C38   D    
C13   H17   S    
Cu1   O1    S    
C3    C5    A    
C9    C10   A    
Cu2   O2    S    
C3    C9    A    
C32   N4    T    
C16   O6    A    
Cu1   N2    S    
C19   C20   A    
C29   C37   S    
C15   C17   A    
C12   C32   S    
C19   C31   S    
C22   N1    A    
C17   H2    S    
C26   C27   A    
C14   C16   S    
C13   C14   A    
C38   H7    S    
Cu1   Cu2   S    
C37   H10   S    
C2    C33   A    
Br1   C6    S    
C24   H5    S    
C12   C30   A    
C2    C25   S    
C11   H13   S    
C18   C19   A    
C31   N3    T    
C5    H15   S    
Cu2   O6    S    
C1    O2    A    
C28   H11   S    
C23   C33   A    
