data_mof_unit_20267.cif
_audit_creation_date              2012-10-26T21:12:36-0400
_audit_creation_method            fapswitch 2.2
_symmetry_space_group_name_H-M    P1
_symmetry_Int_Tables_number       1
_space_group_crystal_system       triclinic
_cell_length_a                    23.508249
_cell_length_b                    10.754242
_cell_length_c                    9.612092
_cell_angle_alpha                 90.040959
_cell_angle_beta                  89.956129
_cell_angle_gamma                 91.98608
_cell_volume                      2428.60456168

loop_
_atom_site_label
_atom_site_type_symbol
_atom_type_description
_atom_site_fract_x
_atom_site_fract_y
_atom_site_fract_z
_atom_type_partial_charge
C1    C     C_R   0.500834 0.262797 0.500112 0.540864
C2    C     C_R   0.121998 0.618200 0.544492 0.429925
C3    C     C_R   0.238548 0.497209 0.624846 -0.090596
C4    C     C_R   0.391019 0.500466 0.500057 0.555735
C5    C     C_R   0.297762 0.493341 0.625242 -0.147088
C6    C     C_R   0.328403 0.503581 0.499952 -0.040068
C7    C     C_R   0.298738 0.518458 0.374468 -0.109661
C8    C     C_R   0.239469 0.522926 0.373954 0.293334
C9    C     C_R   0.209158 0.511690 0.499618 0.245595
C10   C     C_R   0.760475 0.539426 0.368282 0.072265
C11   C     C_R   0.700877 0.530892 0.372273 -0.123423
C12   C     C_R   0.966221 0.307774 0.406744 -0.119031
C13   C     C_R   0.671679 0.510302 0.498220 -0.006781
C14   C     C_R   0.702757 0.499854 0.621835 -0.136687
C15   C     C_R   0.762039 0.505829 0.618849 -0.059638
C16   C     C_R   0.500551 0.737230 0.499641 0.529509
C17   C     C_R   0.791220 0.523835 0.492889 0.257251
C18   C     C_R   0.602855 0.135967 0.586617 -0.129019
C19   C     C_R   0.652662 0.074553 0.621007 0.035831
C20   C     C_R   0.654055 0.944668 0.604329 0.234523
C21   C     C_R   0.605183 0.877716 0.562150 -0.112873
C22   C     C_R   0.554079 0.938084 0.535211 -0.022137
C23   C     C_R   0.025481 0.305432 0.409328 -0.115316
C24   C     C_R   0.553500 0.069008 0.541752 0.002486
C25   C     C_R   0.503648 0.129088 0.500501 0.015445
C26   C     C_R   0.455474 0.060943 0.455949 -0.140913
C27   C     C_R   0.455242 0.932467 0.456315 -0.127911
C28   C     C_R   0.609002 0.502413 0.499769 0.516641
C29   C     C_R   0.503687 0.871190 0.497836 0.014694
C30   C     C_R   0.574995 0.665269 0.144181 -0.087571
C31   C     C_R   0.611331 0.746685 0.072297 -0.177933
C32   C     C_R   0.611503 0.746348 0.929110 -0.157274
C33   C     C_R   0.575199 0.664873 0.856934 -0.079753
C34   C     C_R   0.057911 0.409701 0.455094 0.033121
C35   C     C_R   0.536930 0.581021 0.925541 0.154008
C36   C     C_R   0.536885 0.581083 0.074953 0.158554
C37   C     C_R   0.464850 0.422926 0.073823 0.004255
C38   C     C_R   0.464854 0.422982 0.926023 0.004065
C39   C     C_R   0.882711 0.625864 0.539003 0.400244
C40   C     C_R   0.878674 0.418712 0.448410 0.376896
C41   C     C_R   0.938169 0.414226 0.450487 0.033413
C42   C     C_R   0.970223 0.519096 0.497290 -0.025836
C43   C     C_R   0.942435 0.626153 0.541746 0.022522
C44   C     C_3   0.703453 0.149122 0.675501 -0.270527
C45   C     C_R   0.030215 0.516982 0.499164 -0.026331
C46   C     C_3   0.745873 0.179875 0.559641 -0.364306
C47   C     C_3   0.789714 0.566002 0.230626 -0.259410
C48   C     C_3   0.781225 0.699917 0.184736 -0.416810
C49   C     C_R   0.062371 0.622162 0.544878 0.033582
C50   C     C_R   0.034257 0.728476 0.588990 -0.111573
C51   C     C_R   0.974906 0.730400 0.587586 -0.121035
C52   C     C_R   0.117546 0.409774 0.457602 0.445870
Cl1   Cl    Cl    0.716204 0.861817 0.635261 -0.634112
Cl2   Cl    Cl    0.204055 0.544476 0.215068 -0.538641
Cu1   Cu    Cu3+1 0.500000 0.499990 0.640660 0.931956
Cu2   Cu    Cu3+1 0.500000 0.500010 0.359340 0.933227
H1    H     H_    0.942506 0.225899 0.370515 0.171307
H2    H     H_    0.045759 0.221875 0.374919 0.174819
H3    H     H_    0.578883 0.672929 0.253695 0.182599
H4    H     H_    0.639615 0.810495 0.128465 0.130673
H5    H     H_    0.639994 0.809837 0.873473 0.177140
H6    H     H_    0.578939 0.671782 0.747707 0.186389
H7    H     H_    0.436007 0.359801 0.870922 0.124457
H8    H     H_    0.057996 0.810524 0.624627 0.175858
H9    H     H_    0.954597 0.813837 0.622250 0.170423
H10   H     H_    0.215351 0.488412 0.721920 0.159233
H11   H     H_    0.319461 0.481875 0.723509 0.152926
H12   H     H_    0.677377 0.541067 0.276281 0.128215
H13   H     H_    0.321476 0.527527 0.276744 0.161787
H14   H     H_    0.761093 0.093712 0.510475 0.223252
H15   H     H_    0.725899 0.238162 0.479092 0.164718
H16   H     H_    0.783011 0.232304 0.604363 0.177997
H17   H     H_    0.689671 0.237551 0.722702 0.120671
H18   H     H_    0.724657 0.097272 0.759648 0.196848
H19   H     H_    0.735372 0.716637 0.168844 0.151160
H20   H     H_    0.798597 0.765769 0.264429 0.201152
H21   H     H_    0.803922 0.717721 0.084990 0.161854
H22   H     H_    0.836121 0.551585 0.235963 0.176488
H23   H     H_    0.681337 0.485218 0.720560 0.131804
H24   H     H_    0.772157 0.501012 0.150241 0.144892
H25   H     H_    0.785552 0.494703 0.714610 0.124395
H26   H     H_    0.417549 0.107581 0.423490 0.126943
H27   H     H_    0.603192 0.236321 0.594833 0.135440
H28   H     H_    0.607859 0.778272 0.548596 0.126422
H29   H     H_    0.417048 0.880437 0.424975 0.135332
H30   H     H_    0.436004 0.359688 0.128859 0.124439
N1    N     N_R   0.852255 0.523128 0.492907 -0.407725
N2    N     N_R   0.148190 0.513324 0.500685 -0.379167
N3    N     N_R   0.500540 0.501210 0.147910 -0.243519
N4    N     N_R   0.500560 0.501290 0.852040 -0.244749
O1    O     O_R   0.500000 0.319640 0.618810 -0.500975
O2    O     O_R   0.582120 0.500020 0.618760 -0.529744
O3    O     O_R   0.582120 0.500050 0.381190 -0.523563
O4    O     O_2   0.855269 0.727361 0.581285 -0.447528
O5    O     O_2   0.847416 0.320041 0.401047 -0.531045
O6    O     O_2   0.144798 0.307354 0.417331 -0.455755
O7    O     O_2   0.153590 0.718385 0.586603 -0.465126
O8    O     O_R   0.500000 0.319660 0.381240 -0.493528
O9    O     O_R   0.417880 0.499950 0.618810 -0.493189
O10   O     O_R   0.417880 0.499980 0.381240 -0.500902
O11   O     O_R   0.500000 0.680340 0.618760 -0.510915
O12   O     O_R   0.500000 0.680360 0.381190 -0.515758

loop_
_geom_bond_atom_site_label_1
_geom_bond_atom_site_label_2
_ccdc_geom_bond_type
C36   N3    A    
C31   H4    S    
C23   H2    S    
Cu1   Cu2   S    
C22   C29   A    
C27   C29   A    
C50   H8    S    
C41   C42   A    
C48   H20   S    
C19   C20   A    
C39   N1    A    
C5    H11   S    
C7    C8    A    
C15   H25   S    
C11   H12   S    
C12   C23   A    
C26   C27   A    
Cu1   O2    S    
C18   C24   A    
C40   N1    A    
C32   H5    S    
Cu1   N4    S    
C9    N2    S    
C30   C31   A    
C10   C17   A    
C18   C19   A    
C51   H9    S    
C27   H29   S    
Cu1   O1    S    
C31   C32   A    
C2    O7    S    
C33   H6    S    
C13   C28   S    
C2    N2    A    
Cu2   O8    S    
C46   H16   S    
C26   H26   S    
C21   C22   A    
C1    C25   S    
C48   H19   S    
C47   H24   S    
C44   C46   S    
C50   C51   A    
Cu2   O3    S    
C37   H30   S    
C52   N2    A    
C24   C25   A    
C4    C6    S    
C8    Cl2   S    
C8    C9    A    
C39   C43   A    
C16   C29   S    
C28   O3    A    
C42   C45   A    
C48   H21   S    
C39   O4    S    
C37   C38   A    
C3    C9    A    
C2    C49   A    
C47   C48   S    
C21   H28   S    
C45   C49   A    
C23   C34   A    
C30   H3    S    
C18   H27   S    
C28   O2    A    
C34   C45   A    
C14   H23   S    
C44   H18   S    
C46   H15   S    
C12   H1    S    
C16   O12   A    
Cu2   N3    S    
C4    O10   A    
C22   C24   A    
C3    H10   S    
C42   C43   A    
Cu2   O10   S    
C40   O5    S    
C19   C44   S    
C12   C41   A    
C38   H7    S    
C15   C17   A    
Cu1   O11   S    
C40   C41   A    
C17   N1    S    
C20   Cl1   S    
C3    C5    A    
C1    O8    A    
C7    H13   S    
C6    C7    A    
C30   C36   A    
C38   N4    A    
C34   C52   A    
C37   N3    A    
C32   C33   A    
C25   C26   A    
Cu2   O12   S    
C11   C13   A    
C43   C51   A    
C5    C6    A    
C33   C35   A    
C52   O6    S    
C44   H17   S    
C46   H14   S    
C10   C11   A    
C35   N4    A    
C16   O11   A    
C20   C21   A    
C1    O1    A    
C49   C50   A    
C4    O9    A    
Cu1   O9    S    
C10   C47   S    
C14   C15   A    
C35   C36   A    
C47   H22   S    
C13   C14   A    
