data_mof_unit_37954.cif
_audit_creation_date              2012-10-26T19:04:19-0400
_audit_creation_method            fapswitch 2.2
_symmetry_space_group_name_H-M    P1
_symmetry_Int_Tables_number       1
_space_group_crystal_system       triclinic
_cell_length_a                    14.606739
_cell_length_b                    16.181751
_cell_length_c                    9.578299
_cell_angle_alpha                 90.002775
_cell_angle_beta                  91.910361
_cell_angle_gamma                 89.997941
_cell_volume                      2262.6934845

loop_
_atom_site_label
_atom_site_type_symbol
_atom_type_description
_atom_site_fract_x
_atom_site_fract_y
_atom_site_fract_z
_atom_type_partial_charge
Br1   Br    Br    0.275377 0.158601 0.196467 -0.562785
Br2   Br    Br    0.275255 0.841478 0.196544 -0.562779
Br3   Br    Br    0.775357 0.658575 0.196486 -0.562809
Br4   Br    Br    0.775449 0.341294 0.196475 -0.562872
Br5   Br    Br    0.738401 0.999996 0.695428 -0.518148
Br6   Br    Br    0.238403 0.499961 0.695460 -0.518178
C1    C     C_R   0.384169 0.878494 0.498612 0.563708
C2    C     C_R   0.698541 0.229974 0.382230 -0.121236
C3    C     C_R   0.198516 0.270000 0.382209 -0.121240
C4    C     C_R   0.198520 0.729988 0.382213 -0.121263
C5    C     C_R   0.676731 0.806489 0.508717 -0.027742
C6    C     C_R   0.676771 0.193485 0.508740 -0.027735
C7    C     C_R   0.176736 0.306492 0.508720 -0.027729
C8    C     C_R   0.176756 0.693494 0.508721 -0.027736
C9    C     C_R   0.665624 0.999947 0.161652 -0.095153
C10   C     C_R   0.165623 0.500106 0.161649 -0.095155
C11   C     C_R   0.749979 0.999844 0.105405 -0.219610
C12   C     C_R   0.384178 0.121512 0.498615 0.563717
C13   C     C_R   0.249959 0.500387 0.105404 -0.219620
C14   C     C_R   0.757011 0.999815 0.964836 -0.124159
C15   C     C_R   0.256984 0.500451 0.964832 -0.124146
C16   C     C_R   0.679436 0.999913 0.874286 0.173114
C17   C     C_R   0.179428 0.500188 0.874290 0.173146
C18   C     C_R   0.585721 0.999967 0.929759 0.125078
C19   C     C_R   0.085719 0.500069 0.929761 0.125109
C20   C     C_R   0.582969 0.999974 0.080871 0.118457
C21   C     C_R   0.082967 0.500054 0.080871 0.118477
C22   C     C_R   0.421532 0.000015 0.069461 0.055045
C23   C     C_R   0.884182 0.378484 0.498612 0.563697
C24   C     C_R   0.921532 0.499957 0.069462 0.055085
C25   C     C_R   0.613768 0.122859 0.502235 0.569524
C26   C     C_R   0.613753 0.877133 0.502226 0.569532
C27   C     C_R   0.113766 0.622859 0.502231 0.569515
C28   C     C_R   0.113753 0.377133 0.502226 0.569538
C29   C     C_R   0.421424 0.000019 0.921880 0.012191
C30   C     C_R   0.921424 0.499956 0.921880 0.012209
C31   C     C_R   0.368451 0.235466 0.738847 -0.079516
C32   C     C_R   0.368441 0.764583 0.738865 -0.079538
C33   C     C_R   0.868430 0.735437 0.738872 -0.079518
C34   C     C_R   0.884173 0.621509 0.498616 0.563704
C35   C     C_R   0.868524 0.264523 0.738834 -0.079547
C36   C     C_R   0.342398 0.263317 0.869236 -0.083631
C37   C     C_R   0.342369 0.736786 0.869258 -0.083868
C38   C     C_R   0.842361 0.763281 0.869253 -0.083755
C39   C     C_R   0.842514 0.236631 0.869210 -0.083709
C40   C     C_R   0.753587 0.791303 0.886211 -0.079645
C41   C     C_R   0.753761 0.208576 0.886212 -0.079539
C42   C     C_R   0.253626 0.291342 0.886209 -0.079461
C43   C     C_R   0.253601 0.708765 0.886217 -0.079765
C44   C     C_R   0.694319 0.799983 0.770101 -0.059657
C45   C     C_R   0.265927 0.210410 0.376103 0.139789
C46   C     C_R   0.694451 0.199923 0.770143 -0.059588
C47   C     C_R   0.194344 0.300006 0.770108 -0.059587
C48   C     C_R   0.194350 0.700024 0.770102 -0.059705
C49   C     C_R   0.723808 0.781311 0.634064 0.039079
C50   C     C_R   0.723881 0.218643 0.634085 0.039078
C51   C     C_R   0.223819 0.281321 0.634066 0.039083
C52   C     C_R   0.223833 0.718681 0.634063 0.039079
C53   C     C_R   0.305559 0.235969 0.622801 0.001983
C54   C     C_R   0.305561 0.764044 0.622802 0.002022
C55   C     C_R   0.805546 0.735956 0.622810 0.002012
C56   C     C_R   0.265902 0.789599 0.376115 0.139737
C57   C     C_R   0.805606 0.264013 0.622808 0.002010
C58   C     C_R   0.320824 0.192181 0.496946 0.003081
C59   C     C_R   0.320812 0.807828 0.496947 0.003086
C60   C     C_R   0.820814 0.692172 0.496951 0.003085
C61   C     C_R   0.820844 0.307804 0.496951 0.003102
C62   C     C_R   0.765916 0.710399 0.376107 0.139763
C63   C     C_R   0.765951 0.289556 0.376115 0.139784
C64   C     C_R   0.698510 0.769994 0.382209 -0.121269
Cu1   Cu    Cu3+1 0.499990 1.000000 0.640660 0.964288
Cu2   Cu    Cu3+1 0.999990 0.500000 0.640660 0.964280
Cu3   Cu    Cu3+1 0.500010 0.000000 0.359340 1.006697
Cu4   Cu    Cu3+1 0.000010 0.500000 0.359340 1.006712
H1    H     H_    0.826774 0.999743 0.928835 0.179969
H2    H     H_    0.390180 0.739486 0.957946 0.148734
H3    H     H_    0.890182 0.760617 0.957939 0.148770
H4    H     H_    0.890359 0.239291 0.957863 0.148754
H5    H     H_    0.731206 0.808458 0.988869 0.147981
H6    H     H_    0.731422 0.191383 0.988877 0.147987
H7    H     H_    0.231258 0.308511 0.988870 0.147933
H8    H     H_    0.231214 0.691648 0.988884 0.148033
H9    H     H_    0.661229 0.786539 0.286507 0.167994
H10   H     H_    0.661254 0.213427 0.286532 0.168031
H11   H     H_    0.161233 0.286544 0.286509 0.167995
H12   H     H_    0.326727 0.500670 0.928815 0.179993
H13   H     H_    0.161231 0.713445 0.286516 0.168021
H14   H     H_    0.357055 0.000023 0.121228 0.204460
H15   H     H_    0.857055 0.499925 0.121229 0.204412
H16   H     H_    0.671166 0.999993 0.271432 0.214702
H17   H     H_    0.171170 0.499982 0.271425 0.214684
H18   H     H_    0.811296 0.999799 0.172407 0.149126
H19   H     H_    0.311269 0.500520 0.172404 0.149107
H20   H     H_    0.625440 0.819414 0.790314 0.139636
H21   H     H_    0.625588 0.180471 0.790422 0.139723
H22   H     H_    0.125467 0.319437 0.790332 0.139661
H23   H     H_    0.356810 0.000031 0.863313 0.148638
H24   H     H_    0.125484 0.680570 0.790320 0.139677
H25   H     H_    0.856808 0.499928 0.863311 0.148622
H26   H     H_    0.438414 0.214866 0.729870 0.132836
H27   H     H_    0.438402 0.785216 0.729925 0.132859
H28   H     H_    0.938392 0.714804 0.729927 0.132864
H29   H     H_    0.938472 0.285188 0.729871 0.132845
H30   H     H_    0.390230 0.260667 0.957915 0.148762
N1    N     N_R   0.501200 0.000000 0.147910 -0.246253
N2    N     N_R   0.001200 0.500000 0.147910 -0.246239
N3    N     N_R   0.501270 1.000000 0.852040 -0.259705
N4    N     N_R   0.001270 0.500000 0.852040 -0.259709
O1    O     O_R   0.409820 0.909830 0.618810 -0.526007
O2    O     O_R   0.590170 0.909830 0.618760 -0.480153
O3    O     O_R   0.090170 0.590170 0.618760 -0.480186
O4    O     O_R   0.090170 0.409830 0.618760 -0.480125
O5    O     O_R   0.590190 0.090180 0.381190 -0.532934
O6    O     O_R   0.590190 0.909820 0.381190 -0.532940
O7    O     O_R   0.090190 0.590180 0.381190 -0.532908
O8    O     O_R   0.090190 0.409820 0.381190 -0.532952
O9    O     O_R   0.409820 0.090170 0.618810 -0.525975
O10   O     O_R   0.909820 0.409830 0.618810 -0.526019
O11   O     O_R   0.909820 0.590170 0.618810 -0.525992
O12   O     O_R   0.409840 0.909830 0.381240 -0.445457
O13   O     O_R   0.409840 0.090170 0.381240 -0.445430
O14   O     O_R   0.909840 0.409830 0.381240 -0.445440
O15   O     O_R   0.909840 0.590170 0.381240 -0.445426
O16   O     O_R   0.590170 0.090170 0.618760 -0.480158

loop_
_geom_bond_atom_site_label_1
_geom_bond_atom_site_label_2
_ccdc_geom_bond_type
C60   C62   A    
Cu2   O4    S    
Cu1   N3    S    
C30   N4    A    
C28   O4    A    
Br3   C62   S    
C3    C45   A    
C8    C27   S    
C5    C64   A    
C2    C63   A    
C26   O2    A    
C38   H3    S    
C13   C15   A    
C18   C20   A    
C25   O16   A    
C32   H27   S    
C40   H5    S    
C51   C53   A    
C1    C59   S    
Br6   C17   S    
C28   O8    A    
C43   C48   A    
Cu1   O2    S    
Cu1   O1    S    
C11   C14   A    
Cu3   O5    S    
C42   H7    S    
C46   H21   S    
C31   C36   A    
C3    C7    A    
C3    H11   S    
C23   C61   S    
C55   C60   A    
Br5   C16   S    
Cu2   N4    S    
C22   C29   A    
C22   H14   S    
C39   H4    S    
C27   O3    A    
C13   H19   S    
C10   C21   A    
Cu4   O15   S    
Cu2   O3    S    
Cu3   O12   S    
C34   C60   S    
C24   N2    A    
C47   H22   S    
C4    C56   A    
C11   H18   S    
C41   H6    S    
C24   H15   S    
C8    C52   A    
C20   N1    A    
Br4   C63   S    
C38   C40   A    
C39   C41   A    
C42   C47   A    
C33   C55   A    
C57   C61   A    
C4    H13   S    
C27   O7    A    
Cu1   O9    S    
Cu1   O16   S    
Cu2   Cu4   S    
C4    C8    A    
Cu1   Cu3   S    
C47   C51   A    
C37   C43   A    
C9    C20   A    
C21   N2    A    
Cu3   O6    S    
C1    O1    A    
C14   H1    S    
C61   C63   A    
C43   H8    S    
C41   C46   A    
Cu4   N2    S    
Cu3   N1    S    
C22   N1    A    
C2    C6    A    
Cu4   O8    S    
C23   O14   A    
C53   C58   A    
C50   C57   A    
C18   N3    A    
C36   C42   A    
C64   H9    S    
Br1   C45   S    
C12   O9    A    
C31   C53   A    
C32   C54   A    
Cu4   O14   S    
C14   C16   A    
C54   C59   A    
Cu3   O13   S    
C15   C17   A    
C6    C25   S    
C16   C18   A    
C35   C57   A    
C5    C49   A    
C33   H28   S    
C48   C52   A    
C37   H2    S    
C9    C11   A    
C34   O15   A    
C15   H12   S    
C56   C59   A    
C2    H10   S    
C1    O12   A    
C44   H20   S    
C45   C58   A    
C36   H30   S    
C5    C26   S    
C33   C38   A    
C19   C21   A    
C23   O10   A    
C40   C44   A    
C44   C49   A    
C24   C30   A    
C7    C28   S    
C9    H16   S    
C12   C58   S    
C46   C50   A    
C10   C13   A    
Cu4   O7    S    
C49   C55   A    
Cu2   O11   S    
C6    C50   A    
C30   H25   S    
C17   C19   A    
C29   N3    A    
C12   O13   A    
C35   H29   S    
C32   C37   A    
C34   O11   A    
C7    C51   A    
C10   H17   S    
C62   C64   A    
Cu2   O10   S    
C35   C39   A    
C48   H24   S    
C26   O6    A    
C29   H23   S    
C52   C54   A    
C25   O5    A    
C31   H26   S    
Br2   C56   S    
C19   N4    A    
