data_mof_unit_31119.cif
_audit_creation_date              2012-12-10T17:02:30-0500
_audit_creation_method            fapswitch 2.2
_symmetry_space_group_name_H-M    P1
_symmetry_Int_Tables_number       1
_space_group_crystal_system       triclinic
_cell_length_a                    10.769993
_cell_length_b                    11.120981
_cell_length_c                    9.762977
_cell_angle_alpha                 112.44902
_cell_angle_beta                  94.212485
_cell_angle_gamma                 91.225561
_cell_volume                      1076.25589376

loop_
_atom_site_label
_atom_site_type_symbol
_atom_type_description
_atom_site_fract_x
_atom_site_fract_y
_atom_site_fract_z
_atom_type_partial_charge
C1    C     C_R   0.493581 0.253586 0.438679 0.805755
C2    C     C_R   0.507758 0.746662 0.561319 0.783634
C3    C     C_2   0.493048 0.112377 0.399406 -0.024818
C4    C     C_2   0.510187 0.888139 0.599930 -0.018652
C5    C     C_2   0.499986 0.068899 0.510729 -0.177256
C6    C     C_2   0.492540 0.930609 0.488179 -0.168861
C7    C     C_2   0.508196 0.512506 0.080944 0.009469
C8    C     C_2   0.493067 0.486368 0.918804 0.050473
C9    C     C_R   0.262372 0.503258 0.508700 0.785179
C10   C     C_R   0.737491 0.496030 0.491215 0.791786
C11   C     C_R   0.122888 0.705492 0.748461 0.427817
C12   C     C_R   0.874731 0.286343 0.261105 0.425030
C13   C     C_R   0.069157 0.826631 0.803589 -0.190770
C14   C     C_R   0.926261 0.164062 0.216650 -0.181529
C15   C     C_R   0.952041 0.842698 0.745076 -0.193993
C16   C     C_R   0.043874 0.150980 0.276140 -0.210687
C17   C     C_R   0.885104 0.735894 0.637362 -0.132240
C18   C     C_R   0.113354 0.261143 0.374116 -0.136887
C19   C     C_R   0.940611 0.615069 0.574951 0.049170
C20   C     C_R   0.059061 0.383065 0.428547 0.057995
C21   C     C_R   0.067160 0.605750 0.615716 -0.049053
C22   C     C_R   0.932375 0.391527 0.387533 -0.047785
C23   C     C_R   0.871126 0.503920 0.473988 -0.112141
C24   C     C_R   0.128706 0.494919 0.526596 -0.109505
Cu1   Cu    Cu3+1 0.521920 0.521810 0.644910 1.025943
Cu2   Cu    Cu3+1 0.478080 0.478190 0.355090 1.005467
H1    H     H_    0.084355 0.056909 0.237868 0.179134
H2    H     H_    0.909097 0.935188 0.791541 0.181391
H3    H     H_    0.112317 0.905062 0.901712 0.171876
H4    H     H_    0.881064 0.081410 0.124710 0.169495
H5    H     H_    0.790619 0.748666 0.601096 0.125494
H6    H     H_    0.207787 0.249908 0.412053 0.129882
H7    H     H_    0.471748 0.859555 0.376018 0.170884
H8    H     H_    0.510001 0.139865 0.624035 0.175731
H9    H     H_    0.427227 0.409200 0.846304 0.160298
H10   H     H_    0.574989 0.588728 0.153254 0.170933
H11   H     H_    0.615535 0.628593 0.934149 0.204328
H12   H     H_    0.383260 0.372502 0.066167 0.199608
N1    N     N_2   0.445130 0.445420 0.137360 -0.269555
N2    N     N_2   0.554870 0.554580 0.862640 -0.244308
O1    O     O_R   0.511700 0.332340 0.577400 -0.607903
O2    O     O_R   0.488300 0.667660 0.422600 -0.604471
O3    O     O_R   0.474680 0.295500 0.332650 -0.541595
O4    O     O_R   0.525320 0.704500 0.667350 -0.553651
O5    O     O_R   0.338170 0.518410 0.622370 -0.500749
O6    O     O_R   0.661830 0.481590 0.377630 -0.502621
O7    O     O_R   0.301150 0.481570 0.377630 -0.568017
O8    O     O_R   0.698850 0.518430 0.622370 -0.564257
S1    S     S_3+6 0.214406 0.667667 0.883094 -0.023494
O9    O     O_2   0.206406 0.523424 0.846655 -0.293506
O10   O     O_2   0.347243 0.714566 0.889812 -0.328937
O11   O     O_3   0.160496 0.743704 0.050490 -0.554110
H13   H     H_    0.212804 0.715245 0.119197 0.372333
S2    S     S_3+6 0.784518 0.313527 0.117861 -0.010518
O12   O     O_2   0.788683 0.455802 0.143771 -0.282314
O13   O     O_2   0.836637 0.239671 0.971927 -0.315369
O14   O     O_3   0.637233 0.257171 0.108249 -0.555194
H14   H     H_    0.599901 0.250659 0.009842 0.350652
C25   C     C_3   0.528937 0.979793 0.762991 -0.369739
C26   C     C_3   0.404964 0.032758 0.820753 -0.826373
H15   H     H_    0.363486 0.090550 0.759949 0.249287
H16   H     H_    0.337947 0.950897 0.807253 0.264506
H17   H     H_    0.419695 0.096548 0.940481 0.247465
H18   H     H_    0.568314 0.928836 0.833075 0.229784
H19   H     H_    0.598604 0.060125 0.779506 0.213312
C27   C     C_3   0.480691 0.023996 0.235508 -0.380247
C28   C     C_3   0.344213 0.004839 0.175538 -0.776657
H20   H     H_    0.289777 0.958323 0.236034 0.265337
H21   H     H_    0.335479 0.942781 0.055841 0.290851
H22   H     H_    0.305507 0.099701 0.187908 0.240788
H23   H     H_    0.533714 0.068950 0.172316 0.242754
H24   H     H_    0.522250 0.928758 0.212502 0.203922

loop_
_geom_bond_atom_site_label_1
_geom_bond_atom_site_label_2
_ccdc_geom_bond_type
C10   O6    A    
C2    C4    S    
C9    C24   S    
C9    O5    A    
C11   S1    S    
Cu1   O5    S    
C10   C23   S    
C4    C25   S    
C7    H10   S    
C19   C23   A    
C27   H23   S    
C6    H7    S    
C20   C22   A    
C28   H22   S    
S2    O14   S    
C5    H8    S    
S1    O11   S    
C16   H1    S    
C27   C28   S    
C25   H18   S    
C14   H4    S    
C7    C8    S    
C16   C18   A    
C25   H19   S    
C11   C21   A    
C28   H21   S    
C27   H24   S    
C11   C13   A    
Cu1   O8    S    
C15   H2    S    
C5    C6    S    
Cu2   O7    S    
C2    O2    A    
C26   H17   S    
Cu1   O4    S    
C1    O1    A    
C19   C21   A    
C12   C14   A    
Cu2   O3    S    
C9    O7    A    
H11   N2    S    
O14   H14   S    
C13   C15   A    
Cu1   N2    S    
C10   O8    A    
H12   N1    S    
C17   H5    S    
C14   C16   A    
Cu2   N1    S    
C3    C27   S    
C18   H6    S    
Cu2   O6    S    
Cu1   O1    S    
C28   H20   S    
C12   C22   A    
C25   C26   S    
O11   H13   S    
Cu2   O2    S    
C18   C20   A    
C26   H16   S    
C4    C6    D    
C21   C24   A    
C13   H3    S    
C1    C3    S    
S1    O9    D    
S1    O10   D    
C7    N1    D    
S2    O12   D    
C26   H15   S    
C8    N2    D    
C17   C19   A    
Cu1   Cu2   S    
C15   C17   A    
C1    O3    A    
C22   C23   A    
C12   S2    S    
C20   C24   A    
C2    O4    A    
S2    O13   D    
C3    C5    D    
C8    H9    S    
