data_mof_unit_41925.cif
_audit_creation_date              2012-12-10T17:33:58-0500
_audit_creation_method            fapswitch 2.2
_symmetry_space_group_name_H-M    P1
_symmetry_Int_Tables_number       1
_space_group_crystal_system       triclinic
_cell_length_a                    10.71211
_cell_length_b                    12.049921
_cell_length_c                    12.902356
_cell_angle_alpha                 94.700125
_cell_angle_beta                  89.801408
_cell_angle_gamma                 85.832346
_cell_volume                      1655.37309358

loop_
_atom_site_label
_atom_site_type_symbol
_atom_type_description
_atom_site_fract_x
_atom_site_fract_y
_atom_site_fract_z
_atom_type_partial_charge
C1    C     C_R   0.495465 0.523338 0.700285 0.927083
C2    C     C_R   0.475281 0.455430 0.973687 -0.080686
C3    C     C_R   0.539625 0.544270 0.024460 0.016705
C4    C     C_R   0.742199 0.500607 0.503851 0.867281
C5    C     C_R   0.568990 0.539705 0.130181 0.030593
C6    C     C_R   0.462358 0.367474 0.135052 0.052119
C7    C     C_R   0.446238 0.363038 0.028342 0.071393
C8    C     C_R   0.376787 0.953714 0.411229 -0.295250
C9    C     C_R   0.389120 0.837990 0.417488 0.271973
C10   C     C_R   0.555895 0.857304 0.536451 -0.030742
C11   C     C_R   0.544650 0.975157 0.535089 -0.132035
C12   C     C_3   0.122341 0.502140 0.500330 0.036337
C13   C     C_R   0.454352 0.023428 0.470422 0.015298
C14   C     C_R   0.442119 0.140445 0.466517 0.084111
C15   C     C_R   0.608284 0.162993 0.586227 0.502073
C16   C     C_R   0.506699 0.476575 0.299387 0.888263
C17   C     C_R   0.619438 0.045951 0.596985 0.327381
C18   C     C_R   0.258190 0.500618 0.500616 0.881165
C19   C     C_3   0.937444 0.438254 0.597169 0.353848
C20   C     C_3   0.080595 0.444813 0.597149 -0.532616
C21   C     C_3   0.932479 0.446663 0.397293 -0.072021
C22   C     C_3   0.919437 0.625955 0.520389 -0.118559
C23   C     C_3   0.078117 0.437584 0.398856 -0.098998
C24   C     C_3   0.879111 0.501556 0.504840 -0.031817
C25   C     C_3   0.937709 0.240893 0.542747 -0.143855
C26   C     C_3   0.237207 0.444695 0.843177 -0.377264
C27   C     C_3   0.663762 0.244105 0.745435 -0.140481
C28   C     C_3   0.650066 0.974314 0.754641 -0.332692
C29   C     C_3   0.062242 0.624679 0.509264 -0.401881
C30   C     C_R   0.515358 0.459418 0.186803 -0.133341
C31   C     C_R   0.495190 0.539757 0.811910 -0.209796
C32   C     C_R   0.570584 0.635284 0.967133 0.128535
C33   C     C_R   0.553002 0.628832 0.860792 -0.305569
C34   C     C_R   0.443378 0.461052 0.869097 0.466284
H1    H     H_    0.084859 0.669007 0.440473 0.164645
H2    H     H_    0.877572 0.675260 0.458381 0.198006
H3    H     H_    0.102674 0.673185 0.576625 0.194371
H4    H     H_    0.030455 0.246574 0.508018 0.081160
H5    H     H_    0.866731 0.226188 0.481850 0.166675
H6    H     H_    0.945430 0.164673 0.585700 0.195996
H7    H     H_    0.901528 0.457165 0.240706 0.200540
H8    H     H_    0.921689 0.581808 0.305296 0.195688
H9    H     H_    0.226493 0.436813 0.295782 0.180841
H10   H     H_    0.138254 0.557841 0.304998 0.192061
H11   H     H_    0.745344 0.585905 0.138379 0.166859
H12   H     H_    0.585810 0.693484 0.816042 0.177734
H13   H     H_    0.678143 0.597510 0.253757 0.225235
H14   H     H_    0.327185 0.270108 0.177176 0.185554
H15   H     H_    0.472604 0.204082 0.163817 0.208012
H16   H     H_    0.708576 0.725530 0.032878 0.191785
H17   H     H_    0.558965 0.766780 0.078046 0.213860
H18   H     H_    0.460535 0.233091 0.915506 0.199827
H19   H     H_    0.309663 0.274363 0.956606 0.230434
H20   H     H_    0.225680 0.527247 0.810166 0.159243
H21   H     H_    0.216565 0.455859 0.928181 0.165067
H22   H     H_    0.167411 0.390018 0.807534 0.200891
H23   H     H_    0.903280 0.487809 0.669210 0.094272
H24   H     H_    0.268747 0.216063 0.467829 0.189663
H25   H     H_    0.364474 0.253639 0.373466 0.257385
H26   H     H_    0.725642 0.183558 0.785112 0.168481
H27   H     H_    0.563715 0.236516 0.764755 0.125429
H28   H     H_    0.687624 0.328381 0.776688 0.169508
H29   H     H_    0.720300 0.974113 0.817623 0.191154
H30   H     H_    0.616650 0.889261 0.744894 0.166854
H31   H     H_    0.570683 0.034757 0.781790 0.134387
H32   H     H_    0.327770 0.777915 0.278096 0.164024
H33   H     H_    0.217830 0.795581 0.373058 0.141766
H34   H     H_    0.306828 0.987844 0.359859 0.161206
H35   H     H_    0.787721 0.669984 0.640850 0.189280
H36   H     H_    0.936618 0.665500 0.681326 0.175745
H37   H     H_    0.627615 0.816446 0.581419 0.167583
H38   H     H_    0.106030 0.497346 0.667335 0.139569
H39   H     H_    0.131385 0.362212 0.603792 0.207878
H40   H     H_    0.901508 0.361037 0.384651 0.138671
H41   H     H_    0.109476 0.348232 0.401759 0.133525
N1    N     N_R   0.523380 0.207800 0.519350 -0.177454
N2    N     N_3   0.310916 0.767549 0.356459 -0.401967
N3    N     N_3   0.878195 0.686896 0.620229 -0.446741
N4    N     N_R   0.476620 0.792180 0.480650 -0.107912
N5    N     N_3   0.881167 0.506186 0.310253 -0.492782
N6    N     N_3   0.134235 0.471526 0.302905 -0.472773
N7    N     N_3   0.660271 0.610447 0.176457 -0.467037
N8    N     N_3   0.422297 0.278353 0.191268 -0.453163
N9    N     N_3   0.614398 0.737504 0.013288 -0.467189
N10   N     N_3   0.402851 0.261966 0.978670 -0.469295
N11   N     N_3   0.337539 0.187530 0.412562 -0.473288
O1    O     O_R   0.506240 0.421700 0.658830 -0.555083
O2    O     O_3   0.358075 0.392891 0.821951 -0.615310
O3    O     O_3   0.688333 0.233023 0.637546 -0.534944
O4    O     O_3   0.708888 0.002279 0.662744 -0.589909
O5    O     O_R   0.491240 0.609310 0.646410 -0.648029
O6    O     O_R   0.692710 0.406190 0.506230 -0.552094
O7    O     O_R   0.677700 0.593810 0.493810 -0.650578
O8    O     O_R   0.508760 0.390690 0.353590 -0.619676
O9    O     O_R   0.493760 0.578300 0.341170 -0.600965
O10   O     O_R   0.322300 0.406190 0.506190 -0.650513
O11   O     O_R   0.307290 0.593810 0.493770 -0.611597
O12   O     O_3   0.895323 0.331528 0.613650 -0.561639
Zn1   Zn    Zn3+2 0.510020 0.374730 0.508290 0.984134
Zn2   Zn    Zn3+2 0.489980 0.625270 0.491710 0.942096

loop_
_geom_bond_atom_site_label_1
_geom_bond_atom_site_label_2
_ccdc_geom_bond_type
C1    O1    A    
H8    N5    S    
C8    C13   A    
C22   C29   S    
C12   C29   S    
H36   N3    S    
C18   O10   A    
C19   C20   S    
H33   N2    S    
C26   H21   S    
H7    N5    S    
H16   N9    S    
C19   H23   S    
N1    Zn1   S    
C12   C23   S    
H18   N10   S    
C2    C3    A    
C27   H26   S    
C25   H6    S    
C4    C24   S    
H11   N7    S    
C16   C30   S    
O10   Zn1   S    
C26   H20   S    
C1    C31   S    
C9    N4    A    
H13   N7    S    
C27   H27   S    
C2    C7    A    
C8    C9    A    
C31   C33   A    
C18   O11   A    
O5    Zn2   S    
C10   H37   S    
C2    C34   A    
C15   N1    A    
C1    O5    A    
C13   C14   A    
C33   H12   S    
H35   N3    S    
H24   N11   S    
C19   O12   S    
O1    Zn1   S    
C32   N9    S    
N4    Zn2   S    
C14   N11   S    
H10   N6    S    
O9    Zn2   S    
C34   O2    S    
C28   H31   S    
C21   H40   S    
C14   N1    A    
C27   H28   S    
C25   H4    S    
C15   O3    S    
C12   C20   S    
C31   C34   A    
C9    N2    S    
O7    Zn2   S    
C22   N3    S    
C28   H30   S    
C6    C30   A    
C8    H34   S    
C21   C23   S    
H9    N6    S    
C22   C24   S    
C12   C18   S    
O11   Zn2   S    
C5    C30   A    
C15   C17   A    
H32   N2    S    
C11   C17   A    
C16   O9    A    
C6    N8    S    
C23   N6    S    
C17   O4    S    
C23   H41   S    
C3    C5    A    
C26   H22   S    
C28   O4    S    
C10   N4    A    
C6    C7    A    
C22   H2    S    
C29   H1    S    
C16   O8    A    
H14   N8    S    
C32   C33   A    
H15   N8    S    
C19   C24   S    
H25   N11   S    
C25   H5    S    
C5    N7    S    
C11   C13   A    
C7    N10   S    
O8    Zn1   S    
C21   N5    S    
C20   H39   S    
C27   O3    S    
C3    C32   A    
C10   C11   A    
C4    O7    A    
C28   H29   S    
C25   O12   S    
C26   O2    S    
C21   C24   S    
C29   H3    S    
C20   H38   S    
H19   N10   S    
H17   N9    S    
O6    Zn1   S    
C4    O6    A    
