data_mof_unit_11047.cif
_audit_creation_date              2012-10-26T21:24:50-0400
_audit_creation_method            fapswitch 2.2
_symmetry_space_group_name_H-M    P1
_symmetry_Int_Tables_number       1
_space_group_crystal_system       triclinic
_cell_length_a                    9.552882
_cell_length_b                    10.789041
_cell_length_c                    15.728796
_cell_angle_alpha                 89.971844
_cell_angle_beta                  73.682219
_cell_angle_gamma                 91.293992
_cell_volume                      1555.37334283

loop_
_atom_site_label
_atom_site_type_symbol
_atom_type_description
_atom_site_fract_x
_atom_site_fract_y
_atom_site_fract_z
_atom_type_partial_charge
C1    C     C_R   0.998083 0.262754 0.500253 0.548629
C2    C     C_R   0.236008 0.550340 0.047441 -0.035688
C3    C     C_R   0.334367 0.514007 0.095068 0.038226
C4    C     C_R   0.916810 0.493418 0.671602 0.585800
C5    C     C_R   0.087294 0.562295 0.090934 -0.045843
C6    C     C_R   0.034589 0.538933 0.181448 0.350452
C7    C     C_R   0.283640 0.515069 0.187856 0.382012
C8    C     C_R   0.078294 0.066495 0.426943 -0.046559
C9    C     C_R   0.992009 0.129957 0.498749 -0.022676
C10   C     C_R   0.891179 0.063554 0.566400 -0.086785
C11   C     C_R   0.894383 0.933930 0.568316 0.203356
C12   C     C_R   0.675345 0.483121 0.907865 -0.015761
C13   C     C_R   0.999451 0.871443 0.501753 -0.003200
C14   C     C_R   0.082456 0.939027 0.428378 0.052543
C15   C     C_3   0.242464 0.942377 0.382863 0.262494
C16   C     C_R   0.000927 0.737679 0.500294 0.595646
C17   C     C_3   0.235822 0.082563 0.379296 -0.176798
C18   C     C_R   0.603619 0.569538 0.439539 0.243878
C19   C     C_R   0.548521 0.419780 0.551704 0.047840
C20   C     C_R   0.399284 0.420826 0.552766 0.483914
C21   C     C_R   0.456319 0.569119 0.439361 0.135845
C22   C     C_3   0.459228 0.705967 0.428551 -0.210473
C23   C     C_R   0.777528 0.452629 0.953834 -0.044898
C24   C     C_3   0.617654 0.706660 0.428575 0.260296
C25   C     C_R   0.083187 0.505077 0.328378 0.597045
C26   C     C_R   0.868657 0.479699 0.768844 -0.024911
C27   C     C_R   0.132977 0.517403 0.231206 0.014546
C28   C     C_R   0.925536 0.442129 0.907217 0.360284
C29   C     C_R   0.971634 0.465242 0.816283 -0.095808
C30   C     C_R   0.718813 0.473372 0.815034 0.220295
C31   C     C_R   0.530514 0.511876 0.956057 0.002487
C32   C     C_R   0.481548 0.486870 0.048420 0.058940
C33   C     C_R   0.580187 0.430599 0.088867 0.452907
C34   C     C_R   0.727825 0.423425 0.043848 -0.026201
C35   C     C_R   0.435273 0.568745 0.914402 -0.040180
C36   C     C_R   0.288582 0.581006 0.958011 -0.044765
Cl1   Cl    Cl    0.774038 0.854177 0.658395 -0.567549
Cl2   Cl    Cl    0.591750 0.406292 0.763838 -0.575542
Cu1   Cu    Cu3+1 0.140670 0.499980 0.500000 1.103818
Cu2   Cu    Cu3+1 0.859330 0.500020 0.500000 1.105730
F1    F     F_    0.273669 0.889072 0.299804 -0.576120
F2    F     F_    0.302513 0.343137 0.608564 -0.593099
F3    F     F_    0.380703 0.533488 0.235541 -0.535865
F4    F     F_    0.711454 0.740488 0.347185 -0.532865
F5    F     F_    0.889104 0.546657 0.220696 -0.541475
F6    F     F_    0.024945 0.407003 0.948812 -0.636423
F7    F     F_    0.534901 0.371882 0.168495 -0.544755
H1    H     H_    0.801640 0.387056 0.078410 0.222237
H2    H     H_    0.638855 0.756485 0.485683 0.149182
H3    H     H_    0.216831 0.617921 0.922178 0.151904
H4    H     H_    0.087070 0.462487 0.782239 0.199688
H5    H     H_    0.473136 0.603476 0.847143 0.187590
H6    H     H_    0.011523 0.589625 0.054827 0.184817
H7    H     H_    0.816078 0.112251 0.619812 0.180081
H8    H     H_    0.309729 0.910797 0.425010 0.102653
H9    H     H_    0.299075 0.130442 0.419665 0.141036
H10   H     H_    0.253209 0.120497 0.311286 0.211432
H11   H     H_    0.583440 0.354959 0.593445 0.198367
H12   H     H_    0.443210 0.733085 0.363845 0.247925
H13   H     H_    0.388479 0.751276 0.488150 0.084410
N1    N     N_R   0.648210 0.500930 0.499430 -0.318175
N2    N     N_R   0.352300 0.500890 0.499430 -0.254680
O1    O     O_R   0.118810 0.319640 0.500000 -0.457034
O2    O     O_R   0.881230 0.319680 0.499990 -0.519190
O3    O     O_R   0.055580 0.499970 0.629840 -0.477024
O4    O     O_R   0.818000 0.500010 0.629830 -0.448737
O5    O     O_R   0.118770 0.680320 0.500010 -0.530271
O6    O     O_R   0.881190 0.680360 0.500000 -0.467783
O7    O     O_R   0.182000 0.499990 0.370170 -0.443100
O8    O     O_R   0.944420 0.500030 0.370160 -0.428072

loop_
_geom_bond_atom_site_label_1
_geom_bond_atom_site_label_2
_ccdc_geom_bond_type
C4    C26   S    
C18   N1    A    
C16   O6    A    
C6    F5    S    
C7    F3    S    
C25   C27   S    
C18   C21   A    
Cu1   O1    S    
C9    C10   A    
C25   O7    A    
C20   F2    S    
C19   C20   A    
C12   C23   A    
C23   C34   A    
C32   C33   A    
C33   C34   A    
Cu1   O7    S    
C7    C27   A    
C3    C32   A    
C19   H11   S    
C16   O5    A    
Cu2   O4    S    
C23   C28   A    
C8    C17   S    
C22   H13   S    
Cu1   O3    S    
C17   H9    S    
C28   F6    S    
C21   N2    A    
C4    O3    A    
Cu2   O8    S    
C19   N1    A    
C18   C24   S    
C1    O1    A    
C22   C24   S    
C5    H6    S    
C28   C29   A    
C24   H2    S    
C24   F4    S    
C15   H8    S    
C26   C30   A    
C3    C7    A    
C12   C31   A    
C20   N2    A    
C5    C6    A    
C33   F7    S    
C31   C35   A    
C2    C5    A    
C34   H1    S    
C10   C11   A    
C10   H7    S    
Cu2   O6    S    
C13   C14   A    
Cu1   Cu2   S    
C1    O2    A    
C11   C13   A    
C1    C9    S    
C15   F1    S    
C26   C29   A    
C11   Cl1   S    
C29   H4    S    
C13   C16   S    
C2    C36   A    
C22   H12   S    
C15   C17   S    
Cu1   N2    S    
C14   C15   S    
C35   H5    S    
C2    C3    A    
C25   O8    A    
C8    C14   A    
C30   Cl2   S    
C12   C30   A    
C4    O4    A    
C21   C22   S    
Cu1   O5    S    
C31   C32   A    
Cu2   N1    S    
C6    C27   A    
C36   H3    S    
C17   H10   S    
C8    C9    A    
C35   C36   A    
Cu2   O2    S    
