data_mof_unit_45696.cif
_audit_creation_date              2012-12-10T20:49:25-0500
_audit_creation_method            fapswitch 2.2
_symmetry_space_group_name_H-M    P1
_symmetry_Int_Tables_number       1
_space_group_crystal_system       triclinic
_cell_length_a                    15.657713
_cell_length_b                    8.951288
_cell_length_c                    8.137124
_cell_angle_alpha                 90.200839
_cell_angle_beta                  89.51715
_cell_angle_gamma                 92.649622
_cell_volume                      1139.20716842

loop_
_atom_site_label
_atom_site_type_symbol
_atom_type_description
_atom_site_fract_x
_atom_site_fract_y
_atom_site_fract_z
_atom_type_partial_charge
C1    C     C_1   0.500139 0.065183 0.499758 -0.195400
C2    C     C_3   0.987833 0.597940 0.583428 0.115819
C3    C     C_1   0.248582 0.461416 0.502016 -0.189121
C4    C     C_1   0.752214 0.520092 0.497799 -0.204377
C5    C     C_3   0.026790 0.456093 0.654140 -0.293029
C6    C     C_3   0.972670 0.488624 0.342116 -0.271866
C7    C     C_3   0.081708 0.445678 0.497248 0.091693
C8    C     C_3   0.917961 0.499503 0.500102 0.098217
C9    C     C_1   0.173106 0.442514 0.501121 -0.075674
C10   C     C_1   0.827895 0.519855 0.498248 -0.074971
C11   C     C_3   0.029518 0.210391 0.306036 -0.425171
C12   C     C_1   0.500317 0.934854 0.500272 -0.198266
C13   C     C_3   0.945842 0.136039 0.242013 -0.338526
C14   C     C_3   0.961480 0.039683 0.091528 -0.914642
C15   C     C_3   0.977266 0.744737 0.677159 -0.418708
C16   C     C_3   0.059623 0.793981 0.769857 -0.325986
C17   C     C_3   0.099044 0.945149 0.714925 -0.901368
C18   C     C_3   0.912437 0.222399 0.658059 -0.448103
C19   C     C_3   0.818650 0.189905 0.611332 -0.331455
C20   C     C_3   0.787568 0.032444 0.661919 -0.883379
C21   C     C_3   0.095940 0.714362 0.346762 -0.414932
C22   C     C_3   0.135370 0.666735 0.182744 -0.363084
C23   C     C_R   0.499861 0.218047 0.499825 0.930936
C24   C     C_3   0.195106 0.790829 0.113060 -0.873858
C25   C     C_R   0.500380 0.781970 0.500179 0.929553
C26   C     C_R   0.337343 0.490650 0.500633 0.900300
C27   C     C_R   0.662717 0.508672 0.499351 0.897791
C28   C     C_3   0.956202 0.356885 0.568389 0.135092
C29   C     C_3   0.043021 0.586155 0.427431 0.136248
C30   C     C_3   0.012556 0.347045 0.412214 0.109748
H1    H     H_    0.949472 0.503904 0.214958 0.143469
H2    H     H_    0.103816 0.952379 0.579513 0.252534
H3    H     H_    0.060712 0.036979 0.761223 0.253968
H4    H     H_    0.164258 0.961274 0.766479 0.255660
H5    H     H_    0.043863 0.802199 0.902083 0.221466
H6    H     H_    0.109464 0.710148 0.757322 0.229284
H7    H     H_    0.958611 0.831656 0.589064 0.203376
H8    H     H_    0.923838 0.727466 0.766854 0.183494
H9    H     H_    0.822043 0.947731 0.590739 0.250370
H10   H     H_    0.797853 0.015403 0.795315 0.267624
H11   H     H_    0.718181 0.016433 0.636268 0.255487
H12   H     H_    0.049652 0.441046 0.781624 0.140176
H13   H     H_    0.778270 0.270282 0.676440 0.236515
H14   H     H_    0.809845 0.201996 0.476891 0.220979
H15   H     H_    0.949421 0.122938 0.630076 0.213827
H16   H     H_    0.915267 0.243303 0.792470 0.200489
H17   H     H_    0.160377 0.894947 0.096003 0.262728
H18   H     H_    0.249512 0.814088 0.197568 0.269958
H19   H     H_    0.220957 0.755295 0.992365 0.255210
H20   H     H_    0.172706 0.565535 0.198843 0.240153
H21   H     H_    0.083814 0.637945 0.093993 0.204989
H22   H     H_    0.054242 0.809272 0.327622 0.195723
H23   H     H_    0.989297 0.110215 0.991369 0.259403
H24   H     H_    0.148008 0.750559 0.431779 0.219368
H25   H     H_    0.006080 0.951825 0.121461 0.264000
H26   H     H_    0.900242 0.985795 0.049211 0.255772
H27   H     H_    0.916024 0.063922 0.339325 0.227532
H28   H     H_    0.900157 0.221864 0.207604 0.227967
H29   H     H_    0.071171 0.248519 0.201598 0.207960
H30   H     H_    0.064581 0.128759 0.378631 0.188045
N1    N     N_1   0.500010 0.500000 0.073640 -0.033244
N2    N     N_1   0.499990 0.500000 0.926360 -0.033321
O1    O     O_R   0.500000 0.285340 0.636850 -0.614654
O2    O     O_R   0.500000 0.714660 0.363150 -0.614471
O3    O     O_R   0.500000 0.285340 0.363150 -0.614743
O4    O     O_R   0.500000 0.714660 0.636850 -0.614800
O5    O     O_R   0.376770 0.500000 0.636850 -0.615377
O6    O     O_R   0.623230 0.500000 0.363150 -0.612541
O7    O     O_R   0.376780 0.500000 0.363100 -0.615167
O8    O     O_R   0.623220 0.500000 0.636900 -0.616427
Zn1   Zn    Zn3+2 0.499990 0.500000 0.682780 0.986325
Zn2   Zn    Zn3+2 0.500010 0.500000 0.317220 0.987412

loop_
_geom_bond_atom_site_label_1
_geom_bond_atom_site_label_2
_ccdc_geom_bond_type
C6    C29   S    
C15   C16   S    
O7    Zn2   S    
C14   H26   S    
C5    H12   S    
C8    C10   S    
C15   H8    S    
C1    C23   S    
O8    Zn1   S    
C3    C9    T    
C5    C28   S    
C5    C7    S    
C19   C20   S    
O6    Zn2   S    
C12   C25   S    
C22   H20   S    
C27   O8    A    
C23   O3    A    
C28   C30   S    
C6    H1    S    
C20   H9    S    
C7    C30   S    
C21   C22   S    
C16   H6    S    
C2    C15   S    
C11   C13   S    
C21   H24   S    
C1    C12   T    
C17   H3    S    
O4    Zn1   S    
C2    C29   S    
C20   H11   S    
C26   O5    A    
C18   H16   S    
N1    Zn2   S    
C23   O1    A    
C6    C30   S    
O1    Zn1   S    
N2    Zn1   S    
C14   H25   S    
O5    Zn1   S    
O2    Zn2   S    
C16   H5    S    
C13   H28   S    
N1    N2    T    
C20   H10   S    
C16   C17   S    
C22   C24   S    
C2    C5    S    
C13   H27   S    
C17   H4    S    
C4    C10   T    
C7    C29   S    
O3    Zn2   S    
C18   H15   S    
C21   H22   S    
C14   H23   S    
C18   C28   S    
C19   H14   S    
C8    C28   S    
C7    C9    S    
C18   C19   S    
C2    C8    S    
C24   H19   S    
C26   O7    A    
C17   H2    S    
C15   H7    S    
C6    C8    S    
C4    C27   S    
C27   O6    A    
C13   C14   S    
C24   H17   S    
C21   C29   S    
C3    C26   S    
C11   H29   S    
C25   O4    A    
C11   H30   S    
C11   C30   S    
C19   H13   S    
C22   H21   S    
C25   O2    A    
C24   H18   S    
