data_mof_unit_23027.cif
_audit_creation_date              2012-12-10T19:23:55-0500
_audit_creation_method            fapswitch 2.2
_symmetry_space_group_name_H-M    P1
_symmetry_Int_Tables_number       1
_space_group_crystal_system       triclinic
_cell_length_a                    17.792805
_cell_length_b                    16.647688
_cell_length_c                    10.864032
_cell_angle_alpha                 92.517491
_cell_angle_beta                  93.332454
_cell_angle_gamma                 90.931531
_cell_volume                      3208.91174879

loop_
_atom_site_label
_atom_site_type_symbol
_atom_type_description
_atom_site_fract_x
_atom_site_fract_y
_atom_site_fract_z
_atom_type_partial_charge
C1    C     C_R   0.355136 0.499327 0.503111 0.882500
C2    C     C_R   0.644140 0.500478 0.497314 0.809960
C3    C     C_R   0.725906 0.500129 0.482817 -0.155699
C4    C     C_R   0.271091 0.497785 0.496593 -0.132508
C5    C     C_R   0.757165 0.444590 0.399270 -0.016877
C6    C     C_R   0.227588 0.425935 0.502335 0.031208
C7    C     C_R   0.835894 0.435540 0.402162 0.382159
C8    C     C_R   0.152226 0.424623 0.455726 0.365756
C9    C     C_R   0.883298 0.493534 0.468900 -0.182564
C10   C     C_R   0.113201 0.497095 0.445735 -0.167920
C11   C     C_1   0.964090 0.494121 0.455427 0.235846
C12   C     C_1   0.031669 0.495637 0.447282 0.241964
C13   C     C_R   0.558539 0.833159 0.565026 0.023591
C14   C     C_R   0.448080 0.828216 0.424858 0.011047
C15   C     C_R   0.554926 0.747074 0.569445 0.296931
C16   C     C_R   0.448566 0.741875 0.424216 0.318887
C17   C     C_R   0.502877 0.873974 0.496732 0.027958
C18   C     C_1   0.503348 0.963403 0.497196 0.066966
C19   C     C_1   0.503269 0.037158 0.497205 0.236035
C20   C     C_R   0.507793 0.498025 0.263219 0.820380
C21   C     C_R   0.497269 0.502502 0.738703 0.884913
C22   C     C_R   0.567105 0.172864 0.534076 0.306388
C23   C     C_R   0.436766 0.167066 0.459543 0.277700
C24   C     C_R   0.561131 0.258142 0.551992 0.200914
C25   C     C_R   0.440526 0.252222 0.445470 0.166877
C26   C     C_R   0.502368 0.126336 0.497096 -0.166376
C27   C     C_R   0.588175 0.624907 0.143334 -0.090674
C28   C     C_R   0.533424 0.653598 0.905228 -0.136153
C29   C     C_R   0.601003 0.699393 0.094713 -0.107275
C30   C     C_R   0.570759 0.714800 0.977800 -0.144474
C31   C     C_R   0.525264 0.575127 0.948820 0.044151
C32   C     C_R   0.544634 0.564495 0.074937 0.046365
C33   C     C_R   0.520669 0.493897 0.130090 -0.300933
C34   C     C_R   0.494036 0.508521 0.874901 -0.273868
C35   C     C_R   0.492645 0.427502 0.054402 0.325993
C36   C     C_R   0.468342 0.440541 0.932903 0.334065
C37   C     C_R   0.851184 0.552379 0.546707 0.417886
C38   C     C_R   0.154522 0.570325 0.452801 0.414433
C39   C     C_R   0.773022 0.553540 0.555084 -0.284104
C40   C     C_R   0.233066 0.569328 0.472352 -0.283836
Cu1   Cu    Cu3+1 0.500000 0.580420 0.500000 0.936607
Cu2   Cu    Cu3+1 0.500000 0.419580 0.500000 1.011448
H1    H     H_    0.612675 0.614904 0.234797 0.151833
H2    H     H_    0.507030 0.671356 0.819488 0.182163
H3    H     H_    0.632330 0.745982 0.149372 0.155168
H4    H     H_    0.576320 0.774438 0.943079 0.151246
H5    H     H_    0.748523 0.596244 0.618347 0.190945
H6    H     H_    0.264446 0.625421 0.471990 0.204719
N1    N     N_R   0.500000 0.701220 0.500000 -0.198055
N2    N     N_R   0.500000 0.298780 0.500000 -0.181464
O1    O     O_R   0.391260 0.567930 0.500000 -0.592571
O2    O     O_R   0.608740 0.567930 0.500000 -0.596867
O3    O     O_R   0.391280 0.432120 0.500000 -0.585659
O4    O     O_R   0.608720 0.432120 0.500000 -0.587491
O5    O     O_R   0.500000 0.567920 0.319650 -0.599590
O6    O     O_R   0.500000 0.567920 0.680350 -0.616571
O7    O     O_R   0.500030 0.432100 0.319660 -0.536574
O8    O     O_R   0.499970 0.432100 0.680340 -0.529095
S1    S     S_3+6 0.512274 0.325773 0.087762 0.024959
O9    O     O_2   0.564680 0.318618 0.199687 -0.290326
O10   O     O_2   0.440809 0.279690 0.104728 -0.270186
O11   O     O_3   0.553414 0.283821 0.965689 -0.534830
H7    H     H_    0.556729 0.225929 0.982372 0.389212
S2    S     S_3+6 0.388141 0.386714 0.866640 0.052281
O12   O     O_2   0.340048 0.356811 0.964919 -0.222711
O13   O     O_2   0.342119 0.443556 0.791114 -0.318139
O14   O     O_3   0.414072 0.308698 0.775839 -0.512211
H8    H     H_    0.418060 0.262590 0.830230 0.391732
S3    S     S_3+6 0.654949 0.123524 0.558476 0.006155
O15   O     O_2   0.657299 0.087634 0.683143 -0.295234
O16   O     O_2   0.661233 0.057608 0.460765 -0.286809
O17   O     O_3   0.729305 0.186456 0.551243 -0.498127
H9    H     H_    0.773990 0.153111 0.568350 0.407097
S4    S     S_3+6 0.351702 0.109800 0.425463 0.014469
O18   O     O_2   0.354979 0.068643 0.300090 -0.240328
O19   O     O_2   0.344583 0.046937 0.519590 -0.308589
O20   O     O_3   0.274447 0.166303 0.426584 -0.500303
H10   H     H_    0.252398 0.157194 0.506548 0.386210
C41   C     C_3   0.621627 0.300441 0.635535 -0.553873
H11   H     H_    0.640661 0.261178 0.710817 0.239902
H12   H     H_    0.670780 0.316420 0.582799 0.250606
H13   H     H_    0.602282 0.354182 0.684819 0.231366
C42   C     C_3   0.381702 0.288006 0.360279 -0.479287
H14   H     H_    0.364629 0.244857 0.282666 0.272576
H15   H     H_    0.331236 0.302717 0.409038 0.230510
H16   H     H_    0.401774 0.341971 0.317441 0.247971
S5    S     S_3+6 0.906896 0.624645 0.636916 0.054598
O21   O     O_2   0.928977 0.690627 0.555474 -0.222661
O22   O     O_2   0.862897 0.659840 0.739653 -0.268408
O23   O     O_3   0.984794 0.582000 0.697789 -0.510267
H17   H     H_    0.012068 0.625894 0.747161 0.406815
S6    S     S_3+6 0.111073 0.664088 0.432945 0.062191
O24   O     O_2   0.091635 0.698218 0.557130 -0.215798
O25   O     O_2   0.164593 0.721156 0.377440 -0.273507
O26   O     O_3   0.032392 0.653205 0.339730 -0.504742
H18   H     H_    0.012139 0.708094 0.334472 0.404608
C43   C     C_3   0.706775 0.400322 0.301401 -0.532194
H19   H     H_    0.659582 0.438772 0.270783 0.184508
H20   H     H_    0.736873 0.386203 0.216724 0.259114
H21   H     H_    0.684398 0.344357 0.338721 0.287486
C44   C     C_3   0.251211 0.358052 0.583691 -0.604874
H22   H     H_    0.221608 0.364206 0.670691 0.262123
H23   H     H_    0.235152 0.298582 0.540743 0.255372
H24   H     H_    0.311793 0.356395 0.608519 0.283784
S7    S     S_3+6 0.874270 0.347530 0.334070 0.057357
O27   O     O_2   0.906710 0.368219 0.214572 -0.229108
O28   O     O_2   0.934753 0.317877 0.421690 -0.199641
O29   O     O_3   0.809917 0.272719 0.306989 -0.504307
H25   H     H_    0.837709 0.227711 0.269434 0.403161
S8    S     S_3+6 0.113605 0.333557 0.387364 0.059861
O30   O     O_2   0.080870 0.284345 0.484559 -0.225250
O31   O     O_2   0.054440 0.350981 0.288622 -0.194466
O32   O     O_3   0.181703 0.281565 0.320656 -0.502373
H26   H     H_    0.155750 0.233415 0.280345 0.415918
C45   C     C_3   0.621908 0.883785 0.631112 -0.716082
H27   H     H_    0.669260 0.849785 0.671800 0.237807
H28   H     H_    0.647623 0.922633 0.564149 0.285403
H29   H     H_    0.598934 0.922283 0.705533 0.250471
C46   C     C_3   0.390624 0.874082 0.347198 -0.679552
H30   H     H_    0.350370 0.837150 0.286742 0.235294
H31   H     H_    0.356390 0.910911 0.409285 0.293965
H32   H     H_    0.420305 0.914118 0.286006 0.246977
C47   C     C_3   0.615112 0.708804 0.649950 -0.760900
H33   H     H_    0.621288 0.740969 0.741376 0.197295
H34   H     H_    0.603600 0.647138 0.672988 0.262459
H35   H     H_    0.669560 0.711590 0.605276 0.232220
C48   C     C_3   0.391945 0.698629 0.333633 -0.713656
H36   H     H_    0.401774 0.717217 0.238839 0.209610
H37   H     H_    0.392224 0.633525 0.326269 0.264142
H38   H     H_    0.334078 0.714525 0.357352 0.223351

loop_
_geom_bond_atom_site_label_1
_geom_bond_atom_site_label_2
_ccdc_geom_bond_type
S5    O21   D    
C44   H22   S    
C27   C29   A    
Cu1   Cu2   S    
O26   H18   S    
Cu2   O8    S    
C43   H19   S    
C47   H33   S    
O20   H10   S    
S7    O28   D    
O11   H7    S    
C15   C47   S    
Cu2   O3    S    
C23   C26   A    
C45   H27   S    
C38   S6    S    
O29   H25   S    
C35   S1    S    
C18   C19   T    
C6    C44   S    
S3    O16   D    
C19   C26   S    
C1    O3    A    
S8    O30   D    
Cu1   O5    S    
C25   N2    A    
C4    C40   A    
C45   H28   S    
S4    O20   S    
C7    S7    S    
C14   C16   A    
Cu1   O2    S    
C23   C25   A    
C3    C39   A    
S1    O9    D    
C44   H23   S    
C14   C17   A    
C20   O5    A    
C10   C12   S    
Cu2   O7    S    
Cu1   N1    S    
C43   H20   S    
C30   H4    S    
C46   H31   S    
C24   N2    A    
S7    O29   S    
S1    O10   D    
C28   C31   A    
S4    O18   D    
O14   H8    S    
S2    O14   S    
C16   N1    A    
C4    C6    A    
C2    O4    A    
C5    C7    A    
C47   H35   S    
C6    C8    A    
C21   C34   S    
C28   H2    S    
S6    O26   S    
C29   H3    S    
C35   C36   A    
S2    O13   D    
S3    O17   S    
C48   H37   S    
Cu1   O6    S    
C29   C30   A    
C8    S8    S    
C41   H13   S    
C9    C11   S    
C24   C41   S    
C42   H14   S    
C46   H30   S    
C45   H29   S    
S6    O25   D    
C17   C18   S    
C31   C34   A    
C1    O1    A    
S8    O32   S    
C13   C45   S    
C2    O2    A    
Cu2   N2    S    
C20   C33   S    
C42   H15   S    
C5    C43   S    
C44   H24   S    
C13   C15   A    
C22   C24   A    
S4    O19   D    
C23   S4    S    
C48   H36   S    
C43   H21   S    
C39   H5    S    
O32   H26   S    
C46   H32   S    
C7    C9    A    
C40   H6    S    
S1    O11   S    
C22   S3    S    
C27   C32   A    
C37   S5    S    
C31   C32   A    
O17   H9    S    
C3    C5    A    
C21   O6    A    
C9    C37   A    
C11   C12   T    
S7    O27   D    
C41   H12   S    
C13   C17   A    
C10   C38   A    
C1    C4    S    
S2    O12   D    
C28   C30   A    
C2    C3    S    
C48   H38   S    
C21   O8    A    
C37   C39   A    
C32   C33   A    
C38   C40   A    
O23   H17   S    
S6    O24   D    
C33   C35   A    
C34   C36   A    
C15   N1    A    
S3    O15   D    
C16   C48   S    
S8    O31   D    
C47   H34   S    
C41   H11   S    
C27   H1    S    
C42   H16   S    
C8    C10   A    
C14   C46   S    
C22   C26   A    
S5    O23   S    
C25   C42   S    
S5    O22   D    
C20   O7    A    
C36   S2    S    
Cu1   O1    S    
Cu2   O4    S    
