data_mof_unit_19235.cif
_audit_creation_date              2012-10-26T18:40:20-0400
_audit_creation_method            fapswitch 2.2
_symmetry_space_group_name_H-M    P1
_symmetry_Int_Tables_number       1
_space_group_crystal_system       triclinic
_cell_length_a                    8.755523
_cell_length_b                    15.101694
_cell_length_c                    13.981647
_cell_angle_alpha                 88.316481
_cell_angle_beta                  96.938363
_cell_angle_gamma                 93.114282
_cell_volume                      1831.96415316

loop_
_atom_site_label
_atom_site_type_symbol
_atom_type_description
_atom_site_fract_x
_atom_site_fract_y
_atom_site_fract_z
_atom_type_partial_charge
C1    C     C_R   0.501346 0.329980 0.500990 0.551488
C2    C     C_R   0.604329 0.557350 0.896889 -0.151696
C3    C     C_R   0.502829 0.497406 0.054494 -0.024227
C4    C     C_R   0.503889 0.500201 0.945626 -0.019162
C5    C     C_R   0.204532 0.498207 0.476012 0.590378
C6    C     C_R   0.795468 0.502640 0.523796 0.587834
C7    C     C_2   0.039525 0.484869 0.465692 0.147658
C8    C     C_2   0.960346 0.516833 0.533282 0.146347
C9    C     C_R   0.554853 0.093735 0.585440 -0.106437
C10   C     C_R   0.389248 0.901955 0.441364 -0.100254
C11   C     C_R   0.555576 0.185899 0.585676 -0.086552
C12   C     C_R   0.500588 0.669565 0.498984 0.544829
C13   C     C_R   0.389501 0.809976 0.439612 -0.078550
C14   C     C_R   0.503183 0.233251 0.501650 0.016208
C15   C     C_R   0.503683 0.765459 0.497329 0.047149
C16   C     C_R   0.455865 0.187668 0.416308 -0.129908
C17   C     C_R   0.618900 0.812682 0.555868 -0.126532
C18   C     C_R   0.458582 0.095899 0.415365 -0.113653
C19   C     C_R   0.621226 0.904775 0.555865 -0.109894
C20   C     C_R   0.506255 0.047863 0.500163 0.027530
C21   C     C_R   0.505618 0.950319 0.499194 0.032809
C22   C     C_3   0.951247 0.457949 0.296613 -0.255275
C23   C     C_R   0.561349 0.570124 0.107884 -0.104729
C24   C     C_3   0.042601 0.546818 0.702494 -0.247589
C25   C     C_R   0.401665 0.444834 0.888420 -0.105011
C26   C     C_R   0.568210 0.570232 0.208697 0.386221
C27   C     C_R   0.403630 0.441096 0.788319 0.383157
C28   C     C_R   0.437345 0.428499 0.207378 -0.003416
C29   C     C_R   0.597601 0.557708 0.795341 0.007596
C30   C     C_R   0.441193 0.424820 0.106711 -0.156961
Cu1   Cu    Cu3+1 0.500000 0.499990 0.596430 1.033909
Cu2   Cu    Cu3+1 0.500000 0.500010 0.403570 1.032389
H1    H     H_    0.591559 0.058588 0.652130 0.124594
H2    H     H_    0.322104 0.401052 0.922531 0.153382
H3    H     H_    0.385415 0.372834 0.244174 0.127665
H4    H     H_    0.673949 0.603069 0.760067 0.123057
H5    H     H_    0.396124 0.364672 0.071289 0.120500
H6    H     H_    0.689830 0.601246 0.935967 0.115866
H7    H     H_    0.016012 0.362904 0.401116 0.241897
H8    H     H_    0.866285 0.414363 0.252141 0.146548
H9    H     H_    0.062639 0.458613 0.266100 0.149390
H10   H     H_    0.908786 0.525955 0.292435 0.221234
H11   H     H_    0.989590 0.640691 0.593985 0.233974
H12   H     H_    0.296720 0.934939 0.398571 0.116114
H13   H     H_    0.141004 0.582812 0.744749 0.147819
H14   H     H_    0.061840 0.474810 0.708197 0.223154
H15   H     H_    0.935741 0.559538 0.734040 0.133055
H16   H     H_    0.808405 0.714140 0.386937 0.349360
H17   H     H_    0.181833 0.286720 0.608593 0.352085
H18   H     H_    0.599412 0.220048 0.650982 0.182245
H19   H     H_    0.298916 0.773417 0.395110 0.137924
H20   H     H_    0.416671 0.222891 0.350042 0.121545
H21   H     H_    0.708019 0.778240 0.600399 0.103627
H22   H     H_    0.424538 0.062776 0.347921 0.122963
H23   H     H_    0.714161 0.940144 0.599499 0.114228
H24   H     H_    0.601416 0.628786 0.070537 0.155948
N1    N     N_R   0.500000 0.500020 0.258690 -0.242587
N2    N     N_R   0.500000 0.499980 0.741310 -0.241635
N3    N     N_2   0.968391 0.424112 0.395106 -0.525840
N4    N     N_2   0.031581 0.578111 0.603189 -0.531079
O1    O     O_R   0.500010 0.371450 0.581430 -0.429652
O2    O     O_2   0.546469 0.735049 0.269037 -0.283233
O3    O     O_3   0.772614 0.653710 0.365723 -0.530418
O4    O     O_2   0.406860 0.269735 0.752038 -0.302813
O5    O     O_2   0.167931 0.320447 0.796822 -0.327364
O6    O     O_3   0.221305 0.348143 0.623307 -0.518583
O7    O     O_R   0.499990 0.628550 0.418570 -0.417577
O8    O     O_R   0.500010 0.371460 0.418560 -0.535617
O9    O     O_R   0.499990 0.628540 0.581440 -0.531904
O10   O     O_R   0.274840 0.499990 0.562640 -0.428903
O11   O     O_R   0.725160 0.500010 0.437360 -0.435994
O12   O     O_R   0.274840 0.500000 0.399770 -0.527758
O13   O     O_R   0.725160 0.500000 0.600230 -0.528451
O14   O     O_2   0.772295 0.707907 0.191197 -0.317160
S1    S     S_3+6 0.665107 0.668632 0.259366 0.014374
S2    S     S_3+6 0.298826 0.344122 0.738767 0.008362

loop_
_geom_bond_atom_site_label_1
_geom_bond_atom_site_label_2
_ccdc_geom_bond_type
C12   O9    A    
Cu1   O1    S    
C3    C23   A    
C4    C25   A    
C7    C8    D    
Cu2   O12   S    
C28   N1    A    
C29   H4    S    
O5    S2    D    
C2    C29   A    
C24   H13   S    
Cu1   N2    S    
C19   C21   A    
C5    O12   A    
C11   C14   A    
Cu1   O13   S    
C22   H9    S    
C1    O8    A    
C23   C26   A    
C13   H19   S    
Cu1   O10   S    
C28   H3    S    
C25   H2    S    
Cu2   O8    S    
C22   H8    S    
C9    H1    S    
Cu2   N1    S    
C7    N3    S    
Cu2   O11   S    
C10   C21   A    
C6    O11   A    
C12   O7    A    
H17   O6    S    
C10   H12   S    
C23   H24   S    
O14   S1    D    
C22   N3    S    
C5    C7    S    
H16   O3    S    
C6    C8    S    
C10   C13   A    
C30   H5    S    
C3    C30   A    
C2    C4    A    
C5    O10   A    
C2    H6    S    
C9    C20   A    
Cu1   Cu2   S    
C12   C15   S    
C24   N4    S    
H7    N3    S    
C26   S1    S    
O4    S2    D    
C20   C21   S    
C9    C11   A    
H11   N4    S    
Cu2   O7    S    
C13   C15   A    
C14   C16   A    
O2    S1    D    
C3    C4    S    
C17   H21   S    
C6    O13   A    
C19   H23   S    
C15   C17   A    
C24   H15   S    
C16   H20   S    
C27   N2    A    
C1    O1    A    
C25   C27   A    
C24   H14   S    
C28   C30   A    
C11   H18   S    
C8    N4    S    
C22   H10   S    
O3    S1    S    
C17   C19   A    
C18   C20   A    
C26   N1    A    
C18   H22   S    
Cu1   O9    S    
C29   N2    A    
C16   C18   A    
C1    C14   S    
O6    S2    S    
C27   S2    S    
