data_mof_unit_18595.cif
_audit_creation_date              2013-03-05T16:05:19-0500
_audit_creation_method            fapswitch 2.2
_symmetry_space_group_name_H-M    P1
_symmetry_Int_Tables_number       1
_space_group_crystal_system       triclinic
_cell_length_a                    10.803076
_cell_length_b                    9.537783
_cell_length_c                    15.91087
_cell_angle_alpha                 89.952734
_cell_angle_beta                  90.446149
_cell_angle_gamma                 90.14616
_cell_volume                      1639.35902388

loop_
_atom_site_label
_atom_site_type_symbol
_atom_site_description
_atom_site_fract_x
_atom_site_fract_y
_atom_site_fract_z
_atom_type_partial_charge
O1    O     O_R   0.319660 0.618740 0.500000 -0.529095
O2    O     O_R   0.319660 0.381260 0.500000 -0.541479
C1    C     C_R   0.262291 0.499932 0.499799 0.956402
O3    O     O_R   0.500020 0.618840 0.379440 -0.543759
O4    O     O_R   0.500020 0.381160 0.379440 -0.511767
C2    C     C_R   0.500406 0.500030 0.340346 0.838387
Cu1   Cu    Cu3+1 0.500020 0.640660 0.500000 1.170369
Cu2   Cu    Cu3+1 0.500020 0.359340 0.500000 1.173398
O5    O     O_R   0.680370 0.618830 0.500010 -0.528247
O6    O     O_R   0.680370 0.381170 0.500010 -0.513689
O7    O     O_R   0.500010 0.618730 0.620560 -0.516048
O8    O     O_R   0.500010 0.381270 0.620560 -0.541808
C3    C     C_R   0.737543 0.500153 0.500172 0.954953
C4    C     C_R   0.500386 0.499898 0.659695 0.838969
C5    C     C_3   0.452746 0.631758 0.048223 -0.057276
C6    C     C_3   0.433372 0.368467 0.050839 -0.093966
C7    C     C_3   0.415409 0.375595 0.952170 0.683422
C8    C     C_3   0.461934 0.640250 0.950113 0.655140
H1    H     H_    0.352184 0.614904 0.060399 0.227322
H2    H     H_    0.339449 0.384676 0.077869 0.221446
C9    C     C_1   0.501771 0.499144 0.749077 0.061566
C10   C     C_3   0.516929 0.494345 0.083600 -0.419800
C11   C     C_3   0.507085 0.492595 0.916702 -0.442149
C12   C     C_3   0.642293 0.458943 0.949251 0.913071
C13   C     C_3   0.655356 0.478491 0.048935 0.318527
C14   C     C_1   0.503689 0.496529 0.824425 0.320696
C15   C     C_1   0.510057 0.497867 0.175843 0.265466
C16   C     C_1   0.504614 0.499714 0.251077 0.045775
C17   C     C_R   0.062430 0.412905 0.443051 0.198009
C18   C     C_R   0.064488 0.588457 0.556091 0.199527
C19   C     C_R   0.933613 0.411660 0.445056 0.539118
C20   C     C_R   0.935631 0.589594 0.554521 0.569043
C21   C     C_R   0.871048 0.500423 0.499994 -0.391743
C22   C     C_R   0.128105 0.500124 0.499770 -0.408010
C23   C     C_R   0.426304 0.074042 0.445461 0.565949
C24   C     C_R   0.425942 0.925504 0.445649 0.556820
N1    N     N_R   0.500030 0.852070 0.500020 -0.365227
N2    N     N_R   0.500030 0.147930 0.500020 -0.362547
C25   C     C_R   0.574278 0.925855 0.554325 0.573575
C26   C     C_R   0.574235 0.074465 0.554356 0.563676
F1    F     F_    0.342295 0.663148 0.919792 -0.505121
F2    F     F_    0.294406 0.417731 0.936548 -0.532547
F3    F     F_    0.649211 0.856501 0.608833 -0.492803
F4    F     F_    0.649319 0.144155 0.608774 -0.524231
N3    N     N_R   0.473753 0.230708 0.083159 0.193294
O9    O     O_R   0.418172 0.177053 0.147998 -0.186518
O10   O     O_R   0.557250 0.156055 0.045394 -0.149645
N4    N     N_R   0.480715 0.763227 0.093793 0.188662
O11   O     O_R   0.396596 0.816960 0.142168 -0.199991
O12   O     O_R   0.584152 0.831202 0.085290 -0.153923
N5    N     N_R   0.424985 0.235694 0.912598 0.214467
O13   O     O_R   0.346403 0.138871 0.934544 -0.148874
O14   O     O_R   0.492487 0.212766 0.846660 -0.220857
N6    N     N_R   0.536725 0.759335 0.918831 0.175126
O15   O     O_R   0.484336 0.854508 0.871973 -0.135892
O16   O     O_R   0.653864 0.773310 0.935649 -0.174167
N7    N     N_R   0.731876 0.601490 0.072426 0.179925
O17   O     O_R   0.732906 0.640820 0.150787 -0.258513
O18   O     O_R   0.830963 0.630595 0.029698 -0.107537
N8    N     N_R   0.721188 0.356096 0.085221 0.209964
O19   O     O_R   0.701994 0.317117 0.162451 -0.245685
O20   O     O_R   0.824578 0.316387 0.051140 -0.113930
F5    F     F_    0.728023 0.536292 0.904600 -0.513067
F6    F     F_    0.669147 0.321509 0.928539 -0.518439
N9    N     N_R   0.124998 0.331493 0.380433 0.217756
O21   O     O_R   0.087357 0.205066 0.362784 -0.142362
O22   O     O_R   0.208380 0.389859 0.333182 -0.295855
N10   N     N_R   0.129356 0.672798 0.617103 0.194670
O23   O     O_R   0.214044 0.617003 0.665045 -0.310491
O24   O     O_R   0.094248 0.800867 0.631625 -0.174690
F7    F     F_    0.868874 0.330687 0.389725 -0.557686
F8    F     F_    0.873027 0.671186 0.609747 -0.508909
F9    F     F_    0.352858 0.143177 0.390092 -0.513057
F10   F     F_    0.350988 0.855831 0.391136 -0.533087

loop_
_geom_bond_atom_site_label_1
_geom_bond_atom_site_label_2
_geom_bond_distance
_ccdc_geom_bond_type
C6    N3    1.476286 S    
O4    Cu2   1.929300 S    
C5    H1    1.116215 S    
C9    C14   1.199123 T    
C19   C21   1.396776 A    
C3    C21   1.442290 S    
C13   N8    1.482777 S    
C5    C8    1.566953 S    
C24   N1    1.367705 A    
N5    O14   1.301289 A    
N6    O15   1.301964 A    
C23   C24   1.416724 A    
Cu2   O8    1.929755 S    
C11   C12   1.579595 S    
C20   C21   1.396990 A    
C7    N5    1.480108 S    
C19   F7    1.359922 S    
O2    C1    1.291812 A    
Cu1   N1    2.016383 S    
C5    C10   1.585137 S    
Cu1   Cu2   2.683169 S    
C17   C19   1.392254 A    
C18   N10   1.438177 S    
N3    O9    1.301507 A    
Cu1   O7    1.929412 S    
N7    O17   1.302245 A    
C7    C11   1.595813 S    
C24   F10   1.355291 S    
C5    N4    1.478345 S    
N8    O19   1.301526 A    
O3    Cu1   1.929642 S    
C17   N9    1.437656 S    
C4    C9    1.422107 S    
N4    O12   1.298393 A    
C6    H2    1.116280 S    
N2    C26   1.368244 A    
O8    C4    1.291904 A    
C12   F6    1.383886 S    
C12   F5    1.382979 S    
C10   C15   1.470535 S    
N3    O10   1.301579 A    
C25   F3    1.354939 S    
O4    C2    1.292742 A    
N1    C25   1.368407 A    
O7    C4    1.292730 A    
N6    O16   1.297948 A    
N7    O18   1.301761 A    
O3    C2    1.293162 A    
C20   F8    1.359478 S    
C8    N6    1.480286 S    
C25   C26   1.417410 A    
C8    C11   1.585116 S    
C18   C20   1.392147 A    
Cu1   O5    1.959956 S    
C13   N7    1.479957 S    
C26   F4    1.355251 S    
C23   N2    1.368190 A    
C12   C13   1.602223 S    
C10   C13   1.605478 S    
N8    O20   1.302671 A    
N9    O21   1.301735 A    
N4    O11   1.301841 A    
C8    F1    1.393724 S    
O2    Cu2   1.960157 S    
C15   C16   1.199084 T    
C11   C14   1.468831 S    
N10   O24   1.301341 A    
C18   C22   1.413841 A    
C7    F2    1.389079 S    
C23   F9    1.353252 S    
O5    C3    1.290835 A    
C1    C22   1.449626 S    
N9    O22   1.301467 A    
O1    Cu1   1.959097 S    
C17   C22   1.413534 A    
N10   O23   1.301172 A    
Cu2   O6    1.958900 S    
C2    C16   1.421428 S    
N5    O13   1.302115 A    
C6    C10   1.586233 S    
C6    C7    1.581782 S    
O1    C1    1.290181 A    
O6    C3    1.290636 A    
Cu2   N2    2.016384 S    
