data_mof_unit_23846.cif
_audit_creation_date              2012-12-10T17:31:14-0500
_audit_creation_method            fapswitch 2.2
_symmetry_space_group_name_H-M    P1
_symmetry_Int_Tables_number       1
_space_group_crystal_system       triclinic
_cell_length_a                    11.996589
_cell_length_b                    12.895671
_cell_length_c                    15.467959
_cell_angle_alpha                 87.17106
_cell_angle_beta                  115.457249
_cell_angle_gamma                 93.335344
_cell_volume                      2156.16828818

loop_
_atom_site_label
_atom_site_type_symbol
_atom_type_description
_atom_site_fract_x
_atom_site_fract_y
_atom_site_fract_z
_atom_type_partial_charge
C1    C     C_R   0.477700 0.299438 0.499242 0.891362
C2    C     C_R   0.661472 0.969430 0.526209 -0.214445
C3    C     C_R   0.349703 0.137760 0.478504 -0.204658
C4    C     C_R   0.650352 0.862209 0.521642 -0.204798
C5    C     C_R   0.568247 0.131940 0.515585 -0.261848
C6    C     C_R   0.431811 0.868035 0.484567 -0.261932
C7    C     C_R   0.557916 0.025488 0.510685 0.178951
C8    C     C_R   0.442155 0.974480 0.489506 0.178611
C9    C     C_R   0.999390 0.592931 0.405099 -0.427430
C10   C     C_R   0.000467 0.406891 0.594664 -0.425507
C11   C     C_R   0.121727 0.585237 0.414782 0.607480
C12   C     C_R   0.522310 0.700558 0.500780 0.888712
C13   C     C_R   0.878170 0.414584 0.585032 0.605683
C14   C     C_R   0.162797 0.460936 0.542181 -0.133897
C15   C     C_R   0.837164 0.539095 0.457793 -0.131197
C16   C     C_R   0.576413 0.497069 0.680508 0.875866
C17   C     C_R   0.424275 0.507617 0.319584 0.874281
C18   C     C_R   0.041263 0.466548 0.534658 0.052775
C19   C     C_R   0.958656 0.533430 0.465232 0.055600
C20   C     C_R   0.624436 0.512179 0.783464 -0.062141
C21   C     C_R   0.381102 0.528759 0.216880 -0.060167
C22   C     C_R   0.791196 0.543091 0.939844 -0.207584
C23   C     C_R   0.657223 0.583978 0.109847 -0.228755
C24   C     C_R   0.222099 0.569364 0.059274 -0.209843
C25   C     C_R   0.751229 0.520267 0.843495 -0.185866
C26   C     C_R   0.256866 0.545265 0.156137 -0.179133
C27   C     C_R   0.539019 0.528469 0.819800 -0.263031
C28   C     C_R   0.469915 0.539687 0.181069 -0.266424
C29   C     C_R   0.576648 0.557239 0.914076 0.093064
C30   C     C_R   0.438239 0.567634 0.085587 0.093037
C31   C     C_R   0.704612 0.560158 0.975870 0.179695
C32   C     C_R   0.311628 0.578396 0.023197 0.179040
C33   C     C_R   0.489050 0.575790 0.949547 0.067895
C34   C     C_R   0.363040 0.591874 0.888616 -0.231678
C35   C     C_R   0.528756 0.576570 0.049550 0.071039
C36   C     C_R   0.743738 0.577959 0.072875 -0.235398
C37   C     C_R   0.276163 0.595228 0.925477 -0.235009
C38   C     C_R   0.535689 0.811843 0.501621 -0.058370
C39   C     C_R   0.464352 0.188137 0.498484 -0.061286
C40   C     C_R   0.338600 0.030534 0.473983 -0.214383
H1    H     H_    0.841314 0.582936 0.121012 0.145572
H2    H     H_    0.125331 0.579270 0.012363 0.131080
H3    H     H_    0.693183 0.596729 0.185720 0.141710
H4    H     H_    0.329748 0.604156 0.812165 0.152135
H5    H     H_    0.342591 0.829180 0.468110 0.181617
H6    H     H_    0.657459 0.170798 0.532024 0.181926
H7    H     H_    0.731124 0.818928 0.534880 0.163129
H8    H     H_    0.268922 0.181037 0.465248 0.164087
H9    H     H_    0.249598 0.991662 0.457943 0.141654
H10   H     H_    0.750478 0.008299 0.542261 0.141639
H11   H     H_    0.772965 0.590838 0.404870 0.142590
H12   H     H_    0.180211 0.606247 0.876842 0.148310
H13   H     H_    0.226989 0.409216 0.595121 0.147583
H14   H     H_    0.903811 0.313634 0.688597 0.305163
H15   H     H_    0.095754 0.685496 0.310643 0.301946
H16   H     H_    0.936699 0.644715 0.350958 0.139401
H17   H     H_    0.063069 0.354932 0.648642 0.145108
H18   H     H_    0.563935 0.522131 0.228140 0.161214
H19   H     H_    0.442151 0.515637 0.773883 0.159669
H20   H     H_    0.187026 0.538759 0.183156 0.172862
H21   H     H_    0.818882 0.509089 0.816155 0.169129
H22   H     H_    0.889369 0.546868 0.986203 0.131311
N1    N     N_R   0.799120 0.480200 0.517090 -0.107420
N2    N     N_R   0.200880 0.519800 0.482910 -0.107573
O1    O     O_R   0.580150 0.341050 0.504560 -0.577017
O2    O     O_3   0.163405 0.642558 0.356137 -0.761073
O3    O     O_R   0.419850 0.658950 0.495440 -0.578973
O4    O     O_R   0.388090 0.353760 0.493600 -0.634431
O5    O     O_R   0.611910 0.646240 0.506400 -0.636727
O6    O     O_R   0.650890 0.490020 0.640860 -0.568592
O7    O     O_R   0.349110 0.509980 0.359140 -0.569216
O8    O     O_R   0.458830 0.502730 0.629890 -0.635413
O9    O     O_R   0.541170 0.497270 0.370110 -0.633892
O10   O     O_3   0.836396 0.357051 0.643507 -0.757386
Zn1   Zn    Zn3+2 0.628240 0.491510 0.507320 0.985687
Zn2   Zn    Zn3+2 0.371760 0.508490 0.492680 0.984883

loop_
_geom_bond_atom_site_label_1
_geom_bond_atom_site_label_2
_ccdc_geom_bond_type
C21   C26   A    
C6    H5    S    
C27   C29   A    
C34   C37   A    
C24   H2    S    
C14   C18   A    
C2    C7    A    
C16   O8    A    
O8    Zn2   S    
C7    C8    A    
C15   C19   A    
C30   C35   A    
C24   C26   A    
O7    Zn2   S    
C20   C25   A    
C40   H9    S    
C29   C33   A    
C3    H8    S    
C1    O4    A    
C23   H3    S    
C18   C19   A    
C2    H10   S    
H14   O10   S    
C9    C19   A    
C22   C25   A    
C1    O1    A    
C6    C38   A    
C15   H11   S    
C11   O2    S    
C3    C39   A    
C17   O9    A    
O9    Zn1   S    
C36   H1    S    
C12   O3    A    
C22   C31   A    
C10   H17   S    
C16   O6    A    
C11   N2    A    
C5    C7    A    
C37   H12   S    
C6    C8    A    
C17   C21   S    
C2    C4    A    
C24   C32   A    
C22   H22   S    
C13   N1    A    
C16   C20   S    
C14   N2    A    
C33   C34   A    
N2    Zn2   S    
C34   H4    S    
C9    H16   S    
C25   H21   S    
C32   C37   A    
C9    C11   A    
C12   O5    A    
C4    C38   A    
C3    C40   A    
C17   O7    A    
C23   C35   A    
C5    C39   A    
H15   O2    S    
C21   C28   A    
C10   C13   A    
C20   C27   A    
C28   H18   S    
O4    Zn2   S    
C5    H6    S    
O1    Zn1   S    
C28   C30   A    
C29   C31   A    
C27   H19   S    
C30   C32   A    
N1    Zn1   S    
C10   C18   A    
C33   C35   A    
O5    Zn1   S    
C12   C38   S    
C1    C39   S    
C14   H13   S    
C13   O10   S    
C23   C36   A    
O6    Zn1   S    
C15   N1    A    
C31   C36   A    
O3    Zn2   S    
C8    C40   A    
C26   H20   S    
C4    H7    S    
