data_mof_unit_63065.cif
_audit_creation_date              2013-03-05T16:07:50-0500
_audit_creation_method            fapswitch 2.2
_symmetry_space_group_name_H-M    P1
_symmetry_Int_Tables_number       1
_space_group_crystal_system       triclinic
_cell_length_a                    19.192019
_cell_length_b                    11.571002
_cell_length_c                    10.776829
_cell_angle_alpha                 90.043666
_cell_angle_beta                  90.0
_cell_angle_gamma                 90.00006
_cell_volume                      2393.2193149

loop_
_atom_site_label
_atom_site_type_symbol
_atom_site_description
_atom_site_fract_x
_atom_site_fract_y
_atom_site_fract_z
_atom_type_partial_charge
O1    O     O_R   0.500000 0.334450 0.602530 -0.573319
O2    O     O_R   0.500000 0.665550 0.397470 -0.573306
O3    O     O_R   0.500000 0.665550 0.602530 -0.629315
O4    O     O_R   0.500000 0.334450 0.397470 -0.629309
C1    C     C_R   0.500010 0.281169 0.499961 0.958887
C2    C     C_R   0.500010 0.718831 0.500039 0.958903
O5    O     O_R   0.398140 0.500000 0.602560 -0.588980
O6    O     O_R   0.601860 0.500000 0.397440 -0.588604
O7    O     O_R   0.601860 0.500000 0.602560 -0.588607
O8    O     O_R   0.398140 0.500000 0.397440 -0.588980
C3    C     C_R   0.365205 0.500000 0.500000 1.001310
C4    C     C_R   0.634805 0.500001 0.500000 0.999763
Zn1   Zn    Zn3+2 0.500000 0.500000 0.636920 1.096876
Zn2   Zn    Zn3+2 0.500000 0.500000 0.363080 1.096882
C5    C     C_1   0.500014 0.161054 0.499914 -0.068455
C6    C     C_1   0.500014 0.838946 0.500086 -0.068443
C7    C     C_1   0.500016 0.059158 0.499961 0.068368
C8    C     C_1   0.500016 0.940842 0.500039 0.068369
N1    N     N_1   0.500000 0.500000 0.180630 -0.056857
N2    N     N_1   0.500000 0.500000 0.819370 -0.056857
C9    C     C_1   0.500000 0.500003 0.069756 0.135411
C10   C     C_1   0.500000 0.499997 0.930244 0.135412
C11   C     C_R   0.253325 0.425152 0.580577 0.231327
C12   C     C_R   0.746714 0.574052 0.418566 0.231550
C13   C     C_R   0.746718 0.425979 0.581441 0.231557
C14   C     C_R   0.253329 0.574870 0.419427 0.231327
C15   C     C_R   0.180581 0.425184 0.580287 0.109094
C16   C     C_R   0.819455 0.574038 0.418856 0.108915
C17   C     C_R   0.819458 0.426017 0.581167 0.108910
C18   C     C_R   0.180586 0.574857 0.419725 0.109095
C19   C     C_R   0.144870 0.500025 0.500009 -0.153118
C20   C     C_R   0.855179 0.500033 0.500015 -0.153084
C21   C     C_R   0.289534 0.500007 0.500000 -0.340154
C22   C     C_R   0.710495 0.500010 0.500001 -0.340328
N3    N     N_R   0.034588 0.453163 0.403538 -0.114976
N4    N     N_R   0.965474 0.546912 0.596480 -0.114968
N5    N     N_R   0.965471 0.453159 0.403543 -0.114971
N6    N     N_R   0.034590 0.546903 0.596482 -0.114974
C23   C     C_R   0.930208 0.500036 0.500012 0.365783
C24   C     C_R   0.069848 0.500032 0.500009 0.365794
N7    N     N_R   0.290341 0.345886 0.658862 0.237523
O9    O     O_R   0.331275 0.268422 0.610370 -0.384357
O10   O     O_R   0.285656 0.354409 0.778951 -0.314104
N8    N     N_R   0.709718 0.652506 0.339332 0.237693
O11   O     O_R   0.669011 0.730798 0.386914 -0.383702
O12   O     O_R   0.714164 0.642387 0.219350 -0.314038
N9    N     N_R   0.709726 0.347509 0.660664 0.237689
O13   O     O_R   0.669038 0.269195 0.613067 -0.383686
O14   O     O_R   0.714150 0.357641 0.780647 -0.314046
N10   N     N_R   0.290349 0.654127 0.341140 0.237522
O15   O     O_R   0.331287 0.731588 0.389630 -0.384365
O16   O     O_R   0.285662 0.645604 0.221051 -0.314104
I1    I     I_    0.124960 0.304694 0.693787 -0.078515
I2    I     I_    0.875011 0.693444 0.303937 -0.078461
I3    I     I_    0.875019 0.306629 0.696100 -0.078462
I4    I     I_    0.124972 0.695359 0.306230 -0.078514

loop_
_geom_bond_atom_site_label_1
_geom_bond_atom_site_label_2
_geom_bond_distance
_ccdc_geom_bond_type
N10   O16   1.300974 A    
C15   I1    2.140559 S    
C14   C18   1.396102 A    
C11   C15   1.396102 A    
C2    C6    1.389856 S    
N7    O9    1.301152 A    
C13   N9    1.434767 S    
C14   C21   1.410078 A    
O5    C3    1.273247 A    
N9    O13   1.301276 A    
C11   N7    1.434866 S    
O5    Zn1   1.989662 S    
C13   C22   1.410146 A    
O6    C4    1.273346 A    
O3    C2    1.265349 A    
N4    N6    1.326487 A    
C7    C8    1.369032 S    
O2    Zn2   1.950825 S    
N5    C23   1.353591 A    
C9    C10   1.503504 S    
C19   C24   1.439822 S    
N6    C24   1.353546 A    
N7    O10   1.300965 A    
O2    C2    1.265260 A    
O1    C1    1.265260 A    
C16   C20   1.403380 A    
C6    C8    1.179038 T    
N3    N5    1.326485 A    
N2    C10   1.194867 T    
N10   O15   1.301161 A    
C17   C20   1.403383 A    
C14   N10   1.434864 S    
C15   C19   1.403314 A    
O4    Zn2   1.951381 S    
C18   C19   1.403317 A    
C12   N8    1.434772 S    
O7    C4    1.273348 A    
C1    C5    1.389856 S    
O1    Zn1   1.950826 S    
O8    C3    1.273247 A    
C4    C22   1.452640 S    
C3    C21   1.452277 S    
N8    O11   1.301257 A    
C13   C17   1.396038 A    
N9    O14   1.301025 A    
O8    Zn2   1.989662 S    
C20   C23   1.439964 S    
N3    C24   1.353546 A    
C5    C7    1.179038 T    
O7    Zn1   1.989660 S    
O6    Zn2   1.989660 S    
C17   I3    2.140606 S    
Zn1   N2    1.966231 S    
N1    C9    1.194867 T    
C16   I2    2.140607 S    
C18   I4    2.140556 S    
Zn2   N1    1.966232 S    
N4    C23   1.353593 A    
C12   C22   1.410152 A    
C12   C16   1.396041 A    
N8    O12   1.301027 A    
O4    C1    1.265349 A    
C11   C21   1.410081 A    
O3    Zn1   1.951380 S    
