data_mof_unit_54798.cif
_audit_creation_date              2012-10-26T20:00:13-0400
_audit_creation_method            fapswitch 2.2
_symmetry_space_group_name_H-M    P1
_symmetry_Int_Tables_number       1
_space_group_crystal_system       triclinic
_cell_length_a                    23.513052
_cell_length_b                    10.952132
_cell_length_c                    9.69076
_cell_angle_alpha                 90.636417
_cell_angle_beta                  90.031595
_cell_angle_gamma                 90.226263
_cell_volume                      2495.37176455

loop_
_atom_site_label
_atom_site_type_symbol
_atom_type_description
_atom_site_fract_x
_atom_site_fract_y
_atom_site_fract_z
_atom_type_partial_charge
C1    C     C_R   0.501421 0.265275 0.498946 0.547783
C2    C     C_R   0.119764 0.605291 0.511160 0.401313
C3    C     C_R   0.238740 0.510941 0.624050 -0.058294
C4    C     C_R   0.390921 0.499696 0.499994 0.554370
C5    C     C_R   0.298045 0.511414 0.624381 -0.142870
C6    C     C_R   0.328281 0.498931 0.499894 0.004021
C7    C     C_R   0.298082 0.485491 0.375312 -0.141520
C8    C     C_R   0.238778 0.484396 0.375422 -0.057769
C9    C     C_R   0.209020 0.497314 0.499677 0.245556
C10   C     C_R   0.761278 0.492272 0.624493 -0.063239
C11   C     C_R   0.701984 0.493603 0.624870 -0.145448
C12   C     C_R   0.970626 0.272824 0.487331 0.257944
C13   C     C_R   0.671707 0.497762 0.499826 0.002328
C14   C     C_R   0.701862 0.500078 0.374582 -0.152202
C15   C     C_R   0.761148 0.498603 0.374569 -0.065691
C16   C     C_R   0.501501 0.734677 0.500823 0.565204
C17   C     C_R   0.790910 0.494923 0.499444 0.244710
C18   C     C_2   0.512081 0.930702 0.388225 -0.156542
C19   C     C_2   0.507155 0.866449 0.504503 -0.127724
C20   C     C_2   0.519466 0.064259 0.388413 -0.041416
C21   C     C_2   0.501152 0.132669 0.496834 -0.120379
C22   C     C_2   0.467571 0.428615 0.921206 -0.020012
C23   C     C_R   0.029963 0.275180 0.479962 -0.111766
C24   C     C_2   0.468208 0.427277 0.076932 -0.008311
C25   C     C_R   0.609078 0.499435 0.499958 0.546271
C26   C     C_R   0.880040 0.603904 0.511537 0.398459
C27   C     C_R   0.879886 0.386653 0.487042 0.397405
C28   C     C_R   0.939769 0.383734 0.491185 0.026144
C29   C     C_R   0.969786 0.495799 0.499276 -0.114524
C30   C     C_R   0.939909 0.607510 0.507341 0.025658
C31   C     C_3   0.931841 0.124843 0.623242 0.050382
C32   C     C_3   0.984475 0.070421 0.693098 -0.270643
C33   C     C_3   0.968113 0.000161 0.821821 -0.465519
C34   C     C_R   0.059967 0.385597 0.488222 -0.010027
C35   C     C_R   0.546722 0.118242 0.264658 0.069401
C36   C     C_R   0.598285 0.182969 0.276874 -0.046267
C37   C     C_R   0.623185 0.235631 0.160685 -0.096198
C38   C     C_R   0.597100 0.223410 0.031598 -0.095694
C39   C     C_R   0.546221 0.157909 0.018314 -0.113862
C40   C     C_R   0.521094 0.105275 0.134264 -0.100126
C41   C     C_3   0.932206 0.866250 0.375154 0.050503
C42   C     C_3   0.984822 0.921733 0.305560 -0.270607
C43   C     C_3   0.968456 0.991506 0.176647 -0.465767
C44   C     C_R   0.029929 0.496163 0.499321 -0.058343
C45   C     C_R   0.060085 0.607100 0.510481 -0.010174
C46   C     C_R   0.030209 0.717163 0.518627 -0.111594
C47   C     C_R   0.970881 0.718796 0.511169 0.257780
C48   C     C_R   0.119656 0.388138 0.487747 0.400820
Cu1   Cu    Cu3+1 0.500010 0.500020 0.638630 0.933382
Cu2   Cu    Cu3+1 0.499990 0.499980 0.361370 0.945903
H1    H     H_    0.679943 0.491478 0.722912 0.125632
H2    H     H_    0.052445 0.189250 0.471877 0.160699
H3    H     H_    0.525297 0.561564 0.106869 0.202642
H4    H     H_    0.052779 0.803374 0.526733 0.160954
H5    H     H_    0.215806 0.520892 0.720365 0.123950
H6    H     H_    0.320141 0.522020 0.721886 0.131335
H7    H     H_    0.320209 0.475363 0.277895 0.128665
H8    H     H_    0.215876 0.473904 0.279016 0.123683
H9    H     H_    0.784273 0.489423 0.721242 0.115012
H10   H     H_    0.897901 0.054114 0.617721 0.206245
H11   H     H_    0.914402 0.200979 0.687704 0.130238
H12   H     H_    0.679730 0.503448 0.276693 0.123688
H13   H     H_    0.006874 0.007845 0.620900 0.199305
H14   H     H_    0.014324 0.144944 0.723253 0.148035
H15   H     H_    0.945541 0.061518 0.895300 0.140864
H16   H     H_    0.007091 0.964719 0.871877 0.154741
H17   H     H_    0.940112 0.921605 0.794506 0.195187
H18   H     H_    0.618825 0.193423 0.376416 0.105160
H19   H     H_    0.662694 0.285954 0.170728 0.105872
H20   H     H_    0.616312 0.264623 0.941852 0.115039
H21   H     H_    0.526052 0.148615 0.918277 0.113494
H22   H     H_    0.481331 0.055947 0.122810 0.102587
H23   H     H_    0.784034 0.500802 0.277688 0.114967
H24   H     H_    0.898225 0.936310 0.380566 0.206475
H25   H     H_    0.914820 0.789801 0.310575 0.130331
H26   H     H_    0.007111 0.984867 0.377825 0.198907
H27   H     H_    0.014763 0.847831 0.275684 0.148334
H28   H     H_    0.945959 0.929594 0.103153 0.141153
H29   H     H_    0.007423 0.027695 0.126723 0.154784
H30   H     H_    0.940381 0.069509 0.203706 0.194650
H31   H     H_    0.512922 0.883549 0.288964 0.150205
H32   H     H_    0.510365 0.909009 0.605680 0.100962
H33   H     H_    0.481991 0.091356 0.586611 0.087489
H34   H     H_    0.438607 0.366128 0.868995 0.136221
H35   H     H_    0.527701 0.556650 0.894670 0.203540
H36   H     H_    0.440503 0.362236 0.127520 0.138431
N1    N     N_R   0.851793 0.495121 0.499333 -0.416249
N2    N     N_R   0.148127 0.496890 0.499524 -0.392875
N3    N     N_2   0.499380 0.498660 0.846910 -0.348586
N4    N     N_2   0.499370 0.498630 0.153040 -0.344227
O1    O     O_R   0.500010 0.321960 0.617040 -0.502367
O2    O     O_R   0.582130 0.500060 0.617050 -0.501799
O3    O     O_R   0.582110 0.500020 0.382900 -0.499883
O4    O     O_2   0.849958 0.707629 0.528427 -0.464149
O5    O     O_3   0.943651 0.160483 0.486107 -0.556239
O6    O     O_3   0.944023 0.830808 0.512315 -0.556334
O7    O     O_2   0.849654 0.282615 0.470147 -0.467686
O8    O     O_2   0.149062 0.282897 0.476819 -0.498607
O9    O     O_2   0.149274 0.710902 0.522162 -0.497199
O10   O     O_R   0.499990 0.321920 0.382900 -0.478379
O11   O     O_R   0.417890 0.499980 0.617100 -0.495538
O12   O     O_R   0.417870 0.499940 0.382950 -0.496295
O13   O     O_R   0.500010 0.678080 0.617100 -0.491568
O14   O     O_R   0.499990 0.678040 0.382960 -0.494304

loop_
_geom_bond_atom_site_label_1
_geom_bond_atom_site_label_2
_ccdc_geom_bond_type
C26   O4    S    
C38   H20   S    
C1    C21   S    
C37   H19   S    
C41   C42   S    
C31   H11   S    
C5    H6    S    
C35   C36   A    
C33   H15   S    
C7    C8    A    
C45   C46   A    
C43   H28   S    
C25   O3    A    
C12   C23   A    
C28   C29   A    
C37   C38   A    
C12   C28   A    
C36   C37   A    
C9    N2    S    
Cu1   O11   S    
C38   C39   A    
C41   O6    S    
C10   C17   A    
C43   H29   S    
C14   H12   S    
C18   H31   S    
C18   C19   D    
C8    H8    S    
C41   H24   S    
C20   C35   S    
C3    H5    S    
C16   O14   A    
C21   H33   S    
C8    C9    A    
C4    O12   A    
C47   O6    S    
C48   N2    A    
C12   O5    S    
C2    N2    A    
C19   H32   S    
C1    O1    A    
C13   C14   A    
C13   C25   S    
Cu1   O1    S    
C1    O10   A    
Cu2   N4    S    
C33   H16   S    
C2    C45   A    
C30   C47   A    
C34   C44   A    
C32   H14   S    
C4    C6    S    
C39   C40   A    
H35   N3    S    
C26   N1    A    
C43   H30   S    
C22   H34   S    
C31   H10   S    
C29   C30   A    
C3    C9    A    
C41   H25   S    
C16   O13   A    
C31   C32   S    
C23   C34   A    
C4    O11   A    
C46   H4    S    
C27   N1    A    
C15   H23   S    
C2    O9    S    
C26   C30   A    
C29   C44   A    
C22   C24   S    
C34   C48   A    
C42   C43   S    
Cu1   O2    S    
H3    N4    S    
C44   C45   A    
C33   H17   S    
C15   C17   A    
C46   C47   A    
C27   O7    S    
C25   O2    A    
C40   H22   S    
C17   N1    S    
C42   H26   S    
C32   H13   S    
Cu1   N3    S    
C3    C5    A    
C24   N4    D    
Cu1   O13   S    
C36   H18   S    
Cu2   O3    S    
Cu2   O12   S    
C6    C7    A    
C48   O8    S    
Cu2   O10   S    
C32   C33   S    
C35   C40   A    
C11   C13   A    
C23   H2    S    
C5    C6    A    
C16   C19   S    
C31   O5    S    
C22   N3    D    
C10   H9    S    
C18   C20   S    
C11   H1    S    
C10   C11   A    
C20   C21   D    
C42   H27   S    
Cu1   Cu2   S    
C27   C28   A    
C39   H21   S    
C14   C15   A    
C24   H36   S    
C7    H7    S    
Cu2   O14   S    
