data_mof_unit_21254.cif
_audit_creation_date              2012-12-10T18:19:05-0500
_audit_creation_method            fapswitch 2.2
_symmetry_space_group_name_H-M    P1
_symmetry_Int_Tables_number       1
_space_group_crystal_system       triclinic
_cell_length_a                    14.924083
_cell_length_b                    14.241974
_cell_length_c                    11.492545
_cell_angle_alpha                 89.59069
_cell_angle_beta                  86.87944
_cell_angle_gamma                 90.38773
_cell_volume                      2438.97513072

loop_
_atom_site_label
_atom_site_type_symbol
_atom_type_description
_atom_site_fract_x
_atom_site_fract_y
_atom_site_fract_z
_atom_type_partial_charge
C1    C     C_R   0.327477 0.499740 0.496606 0.966893
C2    C     C_R   0.434388 0.198843 0.563890 0.414619
C3    C     C_R   0.426153 0.800214 0.548026 0.427668
C4    C     C_R   0.566031 0.200363 0.436815 0.430063
C5    C     C_R   0.422133 0.900438 0.534770 -0.095786
C6    C     C_R   0.575207 0.102459 0.458202 -0.091127
C7    C     C_R   0.577843 0.901987 0.466488 -0.087703
C8    C     C_R   0.424997 0.101016 0.542963 -0.092215
C9    C     C_R   0.499960 0.950893 0.500477 0.031612
C10   C     C_R   0.500009 0.051333 0.500442 0.050702
C11   C     C_R   0.342637 0.953027 0.557556 -0.039777
C12   C     C_R   0.672324 0.500034 0.506979 0.958935
C13   C     C_R   0.655602 0.053863 0.436618 -0.070314
C14   C     C_R   0.657564 0.955824 0.445142 -0.042822
C15   C     C_R   0.344758 0.051044 0.565978 -0.074275
C16   C     C_R   0.501625 0.500274 0.282174 0.960668
C17   C     C_R   0.499398 0.499708 0.717786 0.922989
C18   C     C_1   0.502112 0.500665 0.161556 -0.033911
C19   C     C_1   0.499622 0.499227 0.838321 -0.020588
C20   C     C_1   0.501603 0.500230 0.059248 0.084172
C21   C     C_1   0.500424 0.499478 0.940610 0.094291
C22   C     C_R   0.815665 0.528160 0.409803 -0.102260
C23   C     C_R   0.908562 0.534209 0.405472 -0.018161
C24   C     C_R   0.184926 0.497338 0.602531 -0.144241
C25   C     C_R   0.767926 0.500655 0.511616 -0.183426
C26   C     C_R   0.231915 0.499690 0.495069 -0.157380
C27   C     C_R   0.810839 0.479768 0.614919 0.377591
C28   C     C_R   0.188692 0.508649 0.390120 0.395239
C29   C     C_R   0.903988 0.495539 0.614974 -0.047337
C30   C     C_R   0.096044 0.525671 0.396754 -0.050801
C31   C     C_R   0.953138 0.515506 0.508650 -0.008334
C32   C     C_R   0.047079 0.514708 0.505189 -0.006671
C33   C     C_R   0.091900 0.499997 0.609316 -0.003959
C34   C     C_R   0.949430 0.491685 0.718478 -0.152343
C35   C     C_R   0.051289 0.554706 0.298792 -0.146512
C36   C     C_R   0.042456 0.490398 0.717058 0.417752
C37   C     C_R   0.958199 0.559306 0.301511 0.401605
C38   C     C_R   0.573785 0.802019 0.452573 0.376431
H1    H     H_    0.778819 0.541792 0.333181 0.235377
H2    H     H_    0.221620 0.447320 0.079146 0.421637
H3    H     H_    0.044408 0.415324 0.019780 0.421536
H4    H     H_    0.951766 0.644695 0.000404 0.410156
H5    H     H_    0.627749 0.675384 0.214392 0.378209
H6    H     H_    0.328113 0.366624 0.766278 0.380426
H7    H     H_    0.298152 0.636025 0.756222 0.390949
H8    H     H_    0.686980 0.364397 0.232397 0.381374
H9    H     H_    0.222433 0.492275 0.680117 0.200245
H10   H     H_    0.912862 0.490521 0.801897 0.260591
H11   H     H_    0.088700 0.576640 0.220286 0.266516
H12   H     H_    0.277595 0.919644 0.569369 0.216007
H13   H     H_    0.717772 0.091638 0.416397 0.197170
H14   H     H_    0.722650 0.923391 0.434716 0.216365
H15   H     H_    0.282801 0.087762 0.587332 0.197194
H16   H     H_    0.784751 0.347888 0.890804 0.414192
N1    N     N_R   0.500000 0.750030 0.500000 -0.210495
N2    N     N_R   0.500000 0.249970 0.500000 -0.199917
O1    O     O_R   0.367850 0.580280 0.500030 -0.550978
O2    O     O_2   0.671109 0.373340 0.708720 -0.265456
O3    O     O_3   0.816717 0.357699 0.813813 -0.505854
O4    O     O_2   0.294864 0.579513 0.214700 -0.302846
O5    O     O_2   0.318411 0.414814 0.268244 -0.301865
O6    O     O_3   0.181894 0.452488 0.150687 -0.530559
O7    O     O_2   0.152921 0.386264 0.840174 -0.286414
O8    O     O_2   0.147344 0.554898 0.881581 -0.278363
O9    O     O_3   0.013568 0.449662 0.958564 -0.480114
O10   O     O_2   0.854608 0.516085 0.126193 -0.280470
O11   O     O_2   0.845224 0.676617 0.201217 -0.202142
O12   O     O_R   0.632150 0.419720 0.499970 -0.548107
O13   O     O_3   0.985416 0.632254 0.070797 -0.476858
O14   O     O_2   0.698302 0.823072 0.274179 -0.267957
O15   O     O_2   0.741284 0.734581 0.443731 -0.264526
O16   O     O_3   0.645466 0.654421 0.292203 -0.525838
O17   O     O_2   0.334986 0.164421 0.765532 -0.239248
O18   O     O_2   0.467718 0.262071 0.774969 -0.247826
O19   O     O_3   0.325085 0.334115 0.690674 -0.529382
O20   O     O_2   0.304517 0.816702 0.729181 -0.269663
O21   O     O_2   0.257461 0.732444 0.558559 -0.300197
O22   O     O_3   0.353596 0.648630 0.707141 -0.536117
O23   O     O_R   0.632150 0.580280 0.499970 -0.556071
O24   O     O_2   0.667674 0.168791 0.237224 -0.257757
O25   O     O_2   0.536880 0.266792 0.224449 -0.252373
O26   O     O_3   0.679282 0.337573 0.312124 -0.541135
O27   O     O_R   0.367850 0.419720 0.500030 -0.563696
O28   O     O_R   0.500010 0.580270 0.334450 -0.596216
O29   O     O_R   0.499990 0.419730 0.665550 -0.550005
O30   O     O_R   0.499990 0.580270 0.665550 -0.573819
O31   O     O_R   0.500010 0.419730 0.334450 -0.545728
O32   O     O_2   0.719976 0.509028 0.819165 -0.325233
S1    S     S_3+6 0.750766 0.430285 0.740676 0.023366
S2    S     S_3+6 0.249262 0.489453 0.253933 0.020310
S3    S     S_3+6 0.092773 0.470317 0.851410 0.043066
S4    S     S_3+6 0.907351 0.596430 0.172955 0.073765
S5    S     S_3+6 0.665707 0.752620 0.365466 0.078979
S6    S     S_3+6 0.390029 0.239311 0.701918 0.096404
S7    S     S_3+6 0.334214 0.748407 0.635743 0.069078
S8    S     S_3+6 0.612933 0.243032 0.299659 0.082366
Zn1   Zn    Zn3+2 0.500000 0.607200 0.500000 1.104562
Zn2   Zn    Zn3+2 0.500000 0.392800 0.500000 1.142095

loop_
_geom_bond_atom_site_label_1
_geom_bond_atom_site_label_2
_ccdc_geom_bond_type
H5    O16   S    
C27   C29   A    
O18   S6    D    
N2    Zn2   S    
C12   O12   A    
C30   C35   A    
C17   O29   A    
O28   Zn1   S    
C15   H15   S    
C19   C21   T    
C24   C26   A    
C5    C11   A    
O20   S7    D    
C13   H13   S    
C12   O23   A    
C16   O28   A    
C33   C36   A    
H2    O6    S    
C7    C9    A    
O3    S1    S    
O30   Zn1   S    
O29   Zn2   S    
C4    S8    S    
C3    N1    A    
C7    C14   A    
C14   H14   S    
C38   N1    A    
C22   C25   A    
C35   H11   S    
C16   O31   A    
H7    O22   S    
O24   S8    D    
O13   S4    S    
C9    C10   A    
C18   C20   T    
O31   Zn2   S    
H8    O26   S    
C13   C14   A    
C4    N2    A    
C11   C15   A    
O17   S6    D    
H16   O3    S    
O26   S8    S    
C17   O30   A    
C2    S6    S    
O14   S5    D    
C4    C6    A    
O25   S8    D    
O10   S4    D    
C23   C37   A    
C29   C34   A    
O27   Zn2   S    
H4    O13   S    
C23   C31   A    
H6    O19   S    
C5    C9    A    
C1    O1    A    
C31   C32   A    
O22   S7    S    
O1    Zn1   S    
N1    Zn1   S    
O32   S1    D    
O16   S5    S    
C36   S3    S    
C16   C18   S    
C8    C15   A    
C1    C26   S    
C34   H10   S    
C3    S7    S    
O5    S2    D    
O9    S3    S    
C37   S4    S    
C35   C37   A    
C24   H9    S    
O23   Zn1   S    
C2    C8    A    
C3    C5    A    
C6    C10   A    
H3    O9    S    
O15   S5    D    
O4    S2    D    
C1    O27   A    
C26   C28   A    
C24   C33   A    
C12   C25   S    
C32   C33   A    
C28   C30   A    
C29   C31   A    
C11   H12   S    
C2    N2    A    
C6    C13   A    
C30   C32   A    
C22   H1    S    
O6    S2    S    
C38   S5    S    
O11   S4    D    
C17   C19   S    
C7    C38   A    
O21   S7    D    
C27   S1    S    
C34   C36   A    
O2    S1    D    
O12   Zn2   S    
C20   C21   S    
C8    C10   A    
O7    S3    D    
C22   C23   A    
C28   S2    S    
O8    S3    D    
O19   S6    S    
C25   C27   A    
