data_mof_unit_13010.cif
_audit_creation_date              2012-12-10T16:49:21-0500
_audit_creation_method            fapswitch 2.2
_symmetry_space_group_name_H-M    P1
_symmetry_Int_Tables_number       1
_space_group_crystal_system       triclinic
_cell_length_a                    7.750926
_cell_length_b                    8.627591
_cell_length_c                    12.79982
_cell_angle_alpha                 90.442961
_cell_angle_beta                  86.922435
_cell_angle_gamma                 93.329114
_cell_volume                      853.26125943

loop_
_atom_site_label
_atom_site_type_symbol
_atom_type_description
_atom_site_fract_x
_atom_site_fract_y
_atom_site_fract_z
_atom_type_partial_charge
C1    C     C_R   0.455235 0.205732 0.497318 0.879682
C2    C     C_R   0.629375 0.357588 0.146291 0.600880
C3    C     C_R   0.507539 0.397605 0.871494 -0.006390
C4    C     C_R   0.492465 0.602369 0.128503 -0.006413
C5    C     C_R   0.531444 0.429295 0.977721 -0.013080
C6    C     C_R   0.468527 0.570659 0.022283 -0.013072
C7    C     C_2   0.431331 0.043417 0.495415 0.298437
C8    C     C_2   0.568669 0.956583 0.504585 0.298438
C9    C     C_R   0.544765 0.794268 0.502682 0.879668
C10   C     C_R   0.463837 0.501027 0.699474 0.920311
C11   C     C_R   0.536163 0.498970 0.300526 0.920317
C12   C     C_R   0.560362 0.489694 0.189529 -0.248037
C13   C     C_R   0.439631 0.510282 0.810473 -0.248042
C14   C     C_R   0.380267 0.672725 0.959144 0.027718
C15   C     C_R   0.619670 0.327212 0.040868 0.027706
C16   C     C_R   0.370571 0.642361 0.853719 0.600869
F1    F     F_    0.699632 0.252989 0.208139 -0.632067
F2    F     F_    0.300279 0.746950 0.791879 -0.632055
F3    F     F_    0.266506 0.983625 0.483775 -0.611513
F4    F     F_    0.733494 0.016375 0.516224 -0.611512
H1    H     H_    0.998837 0.615125 0.422104 0.214592
H2    H     H_    0.792058 0.223070 0.940970 0.215894
H3    H     H_    0.001163 0.384875 0.577896 0.214593
H4    H     H_    0.350541 0.736417 0.229319 0.224229
H5    H     H_    0.563585 0.795703 0.211774 0.205731
H6    H     H_    0.649559 0.263623 0.770686 0.224252
H7    H     H_    0.436520 0.204287 0.788175 0.205702
H8    H     H_    0.207864 0.776787 0.059076 0.215875
H9    H     H_    0.390518 0.891835 0.020965 0.221728
H10   H     H_    0.609317 0.108109 0.979041 0.221721
N1    N     N_2   0.054030 0.541640 0.471970 -0.135664
N2    N     N_2   0.945970 0.458360 0.528030 -0.135665
N3    N     N_3   0.454899 0.750110 0.174479 -0.459898
N4    N     N_3   0.545170 0.249890 0.825501 -0.459906
N5    N     N_3   0.297623 0.807798 0.997872 -0.379165
N6    N     N_3   0.702247 0.192097 0.002154 -0.379165
O1    O     O_R   0.609680 0.261530 0.506880 -0.568688
O2    O     O_R   0.390320 0.738470 0.493120 -0.568690
O3    O     O_R   0.323330 0.288220 0.488910 -0.587309
O4    O     O_R   0.676670 0.711780 0.511090 -0.587305
O5    O     O_R   0.619510 0.488830 0.661140 -0.631724
O6    O     O_R   0.380490 0.511170 0.338860 -0.631720
O7    O     O_R   0.333160 0.515520 0.643180 -0.588244
O8    O     O_R   0.666840 0.484480 0.356820 -0.588258
Zn1   Zn    Zn3+2 0.691200 0.482180 0.511990 1.052616
Zn2   Zn    Zn3+2 0.308800 0.517820 0.488010 1.052621

loop_
_geom_bond_atom_site_label_1
_geom_bond_atom_site_label_2
_ccdc_geom_bond_type
C11   C12   S    
C10   C13   S    
H10   N6    S    
C4    C12   A    
H2    N6    S    
N2    Zn1   S    
H9    N5    S    
H4    N3    S    
C3    C13   A    
C1    O1    A    
C2    C12   A    
H3    N2    S    
C10   O7    A    
C11   O8    A    
C2    F1    S    
C2    C15   A    
H1    N1    S    
C8    F4    S    
O3    Zn2   S    
C4    C6    A    
C9    O2    A    
C7    F3    S    
H7    N4    S    
C5    C6    A    
O7    Zn2   S    
C14   C16   A    
C5    C15   A    
C6    C14   A    
C1    O3    A    
O1    Zn1   S    
C3    C5    A    
C15   N6    S    
C7    C8    D    
O8    Zn1   S    
C11   O6    A    
C16   F2    S    
O6    Zn2   S    
C13   C16   A    
C14   N5    S    
O5    Zn1   S    
C4    N3    S    
O4    Zn1   S    
O2    Zn2   S    
C3    N4    S    
C1    C7    S    
H6    N4    S    
C9    O4    A    
N1    N2    D    
H8    N5    S    
H5    N3    S    
C8    C9    S    
C10   O5    A    
N1    Zn2   S    
