data_mof_unit_30293.cif
_audit_creation_date              2012-12-10T20:45:34-0500
_audit_creation_method            fapswitch 2.2
_symmetry_space_group_name_H-M    P1
_symmetry_Int_Tables_number       1
_space_group_crystal_system       triclinic
_cell_length_a                    10.775576
_cell_length_b                    10.726024
_cell_length_c                    9.84359
_cell_angle_alpha                 90.007686
_cell_angle_beta                  90.877881
_cell_angle_gamma                 89.717969
_cell_volume                      1137.56581663

loop_
_atom_site_label
_atom_site_type_symbol
_atom_type_description
_atom_site_fract_x
_atom_site_fract_y
_atom_site_fract_z
_atom_type_partial_charge
C1    C     C_R   0.498056 0.259965 0.499868 0.878266
C2    C     C_R   0.819416 0.535243 0.976071 -0.142217
C3    C     C_R   0.818132 0.414314 0.028818 -0.141573
C4    C     C_R   0.260191 0.505122 0.498783 0.870648
C5    C     C_R   0.857533 0.314265 0.949236 -0.165677
C6    C     C_R   0.896431 0.334919 0.816261 -0.188538
C7    C     C_R   0.891226 0.455112 0.760266 0.154463
C8    C     C_R   0.479994 0.063444 0.621167 0.073607
C9    C     C_R   0.484198 0.128371 0.499031 -0.080885
C10   C     C_R   0.471455 0.064242 0.375597 -0.233009
C11   C     C_R   0.471063 0.935559 0.375702 -0.242835
C12   C     C_R   0.214441 0.728300 0.032243 -0.113365
C13   C     C_R   0.481111 0.871354 0.499433 -0.083596
C14   C     C_R   0.474553 0.936051 0.621759 0.074029
C15   C     C_3   0.552587 0.924031 0.748331 -0.491555
C16   C     C_R   0.497118 0.739967 0.499910 0.869467
C17   C     C_3   0.563506 0.065070 0.744875 0.036104
C18   C     C_R   0.472042 0.393753 0.070883 0.219157
C19   C     C_R   0.534460 0.602640 0.072600 -0.131559
C20   C     C_R   0.535120 0.602311 0.928732 -0.126371
C21   C     C_R   0.470329 0.394434 0.927934 0.228988
C22   C     C_3   0.348500 0.329061 0.921789 -0.521940
C23   C     C_R   0.931706 0.548729 0.387604 -0.256839
C24   C     C_3   0.352461 0.324766 0.075633 -0.510528
C25   C     C_R   0.740290 0.501794 0.501722 0.869173
C26   C     C_R   0.228146 0.784336 0.159702 -0.141930
C27   C     C_R   0.179765 0.727061 0.274963 -0.099498
C28   C     C_R   0.116198 0.613428 0.262862 0.135604
C29   C     C_R   0.101773 0.558456 0.134270 -0.177635
C30   C     C_R   0.151076 0.615556 0.019532 -0.121933
C31   C     C_3   0.758197 0.072024 0.603146 -0.753370
C32   C     C_R   0.872999 0.509232 0.505854 -0.087405
C33   C     C_R   0.942700 0.479024 0.624264 -0.006069
C34   C     C_R   0.069367 0.476057 0.616103 -0.259135
C35   C     C_R   0.127968 0.512693 0.497625 -0.083766
C36   C     C_R   0.059468 0.555338 0.383567 -0.002165
C37   C     C_R   0.854431 0.555690 0.841826 -0.104183
H1    H     H_    0.252314 0.772569 0.943277 0.124069
H2    H     H_    0.561902 0.685779 0.127132 0.139830
H3    H     H_    0.275029 0.872882 0.168709 0.120387
H4    H     H_    0.564658 0.684312 0.875187 0.141653
H5    H     H_    0.272786 0.389171 0.880481 0.210131
H6    H     H_    0.354142 0.235621 0.874098 0.189978
H7    H     H_    0.277552 0.379110 0.124181 0.230414
H8    H     H_    0.364481 0.228760 0.115695 0.185716
H9    H     H_    0.190487 0.771741 0.373111 0.107343
H10   H     H_    0.054087 0.470463 0.123479 0.146592
H11   H     H_    0.139701 0.572715 0.920722 0.133581
H12   H     H_    0.789579 0.398587 0.132317 0.150599
H13   H     H_    0.877938 0.579096 0.299495 0.160302
H14   H     H_    0.122452 0.446332 0.704858 0.155847
H15   H     H_    0.855563 0.649920 0.802314 0.114543
H16   H     H_    0.793928 0.613377 0.039463 0.126660
H17   H     H_    0.697323 0.203945 0.742150 0.248783
H18   H     H_    0.858991 0.078086 0.626461 0.221525
H19   H     H_    0.737233 0.135344 0.516593 0.224189
H20   H     H_    0.737929 0.974866 0.572263 0.245552
H21   H     H_    0.859641 0.220992 0.991144 0.143839
H22   H     H_    0.930981 0.257582 0.757002 0.136634
H23   H     H_    0.470807 0.112257 0.279077 0.160637
H24   H     H_    0.471550 0.887243 0.279176 0.161726
H25   H     H_    0.496546 0.891358 0.835126 0.158545
H26   H     H_    0.640392 0.871177 0.734566 0.205452
H27   H     H_    0.520628 0.109701 0.834495 0.110091
N1    N     N_R   0.499160 0.499140 0.142800 -0.102167
N2    N     N_R   0.499160 0.499180 0.857150 -0.102184
N3    N     N_2   0.689109 0.110191 0.722018 -0.284978
O1    O     O_R   0.500020 0.316790 0.614690 -0.625698
O2    O     O_R   0.500000 0.316760 0.385350 -0.625638
O3    O     O_R   0.316770 0.500030 0.614670 -0.629088
O4    O     O_R   0.316750 0.499990 0.385330 -0.609052
O5    O     O_R   0.500000 0.683240 0.614650 -0.626764
O6    O     O_R   0.499980 0.683210 0.385310 -0.629715
O7    O     O_R   0.683250 0.500010 0.614670 -0.613089
O8    O     O_R   0.683230 0.499970 0.385330 -0.631646
Zn1   Zn    Zn3+2 0.500010 0.500020 0.653130 0.941229
Zn2   Zn    Zn3+2 0.499990 0.499980 0.346870 0.942243

loop_
_geom_bond_atom_site_label_1
_geom_bond_atom_site_label_2
_ccdc_geom_bond_type
C21   N2    A    
C18   C21   A    
O2    Zn2   S    
C35   C36   A    
C16   O5    A    
O5    Zn1   S    
C4    O3    A    
C20   H4    S    
C3    H12   S    
C18   N1    A    
C31   N3    S    
C26   C27   A    
O7    Zn1   S    
C5    H21   S    
C29   H10   S    
C18   C24   S    
C24   H8    S    
C30   H11   S    
C28   C29   A    
C34   C35   A    
C17   H27   S    
C5    C6    A    
C1    O1    A    
C25   O7    A    
C19   C20   A    
C8    C9    A    
C8    C14   A    
C31   H19   S    
C9    C10   A    
C25   C32   S    
C4    C35   S    
C13   C14   A    
C7    C33   S    
C7    C37   A    
C17   N3    S    
N1    Zn2   S    
C16   O6    A    
C1    C9    S    
C37   H15   S    
C23   H13   S    
H17   N3    S    
C3    C5    A    
C1    O2    A    
C12   C26   A    
C25   O8    A    
C10   H23   S    
C29   C30   A    
C22   H6    S    
N2    Zn1   S    
C33   C34   A    
C34   H14   S    
O8    Zn2   S    
C19   H2    S    
C27   H9    S    
O3    Zn1   S    
C24   H7    S    
C22   C24   S    
O4    Zn2   S    
C20   N2    A    
C15   C17   S    
O6    Zn2   S    
C12   C30   A    
C6    H22   S    
C11   H24   S    
C2    H16   S    
C6    C7    A    
O1    Zn1   S    
C8    C17   S    
C32   C33   A    
C31   H20   S    
C2    C3    A    
C23   C32   A    
C11   C13   A    
C2    C37   A    
C26   H3    S    
C22   H5    S    
C15   H25   S    
C19   N1    A    
C12   H1    S    
C10   C11   A    
C28   C36   S    
C23   C36   A    
C13   C16   S    
C27   C28   A    
C15   H26   S    
C14   C15   S    
C31   H18   S    
C21   C22   S    
C4    O4    A    
