data_mof_unit_36708.cif
_audit_creation_date              2013-03-05T16:12:31-0500
_audit_creation_method            fapswitch 2.2
_symmetry_space_group_name_H-M    P1
_symmetry_Int_Tables_number       1
_space_group_crystal_system       triclinic
_cell_length_a                    23.764817
_cell_length_b                    7.222317
_cell_length_c                    20.637853
_cell_angle_alpha                 89.999963
_cell_angle_beta                  105.457244
_cell_angle_gamma                 89.999899
_cell_volume                      3414.09654747

loop_
_atom_site_label
_atom_site_type_symbol
_atom_site_description
_atom_site_fract_x
_atom_site_fract_y
_atom_site_fract_z
_atom_type_partial_charge
O1    O     O_R   0.449110 0.494310 0.552140 -0.581020
O2    O     O_R   0.550890 0.994310 0.447860 -0.581017
O3    O     O_R   0.440010 0.824420 0.415850 -0.572180
O4    O     O_R   0.559990 0.324420 0.584150 -0.572183
C1    C     C_R   0.425467 0.655828 0.390823 0.988817
C2    C     C_R   0.574533 0.155827 0.609177 0.988819
O5    O     O_R   0.442260 0.824040 0.549660 -0.593267
O6    O     O_R   0.557740 0.324040 0.450340 -0.593270
O7    O     O_R   0.553160 0.993960 0.582620 -0.576725
O8    O     O_R   0.446840 0.493960 0.417380 -0.576726
C3    C     C_R   0.428718 0.655488 0.567734 0.922594
C4    C     C_R   0.571282 0.155488 0.432266 0.922596
O9    O     O_3   0.536380 0.660670 0.510660 -0.286190
O10   O     O_3   0.463620 0.160670 0.489340 -0.286189
V1    V     V_3+5 0.493250 0.935680 0.498020 1.200352
V2    V     V_3+5 0.506750 0.435680 0.501980 1.200349
C5    C     C_R   0.802334 0.936630 0.145278 -0.205365
C6    C     C_R   0.197664 0.436625 0.854719 -0.205375
H1    H     H_    0.769022 0.832257 0.142613 0.171865
H2    H     H_    0.230973 0.332247 0.857382 0.171863
C7    C     C_R   0.840069 0.922511 0.103043 0.360133
C8    C     C_R   0.159929 0.422505 0.896954 0.360127
C9    C     C_R   0.883744 0.059836 0.106399 -0.289960
C10   C     C_R   0.116255 0.559836 0.893601 -0.289967
C11   C     C_R   0.886375 0.210394 0.150663 -0.111162
C12   C     C_R   0.113626 0.710399 0.849339 -0.111143
H3    H     H_    0.918976 0.317676 0.154645 0.139578
H4    H     H_    0.081028 0.817686 0.845360 0.139584
C13   C     C_R   0.847894 0.223791 0.191343 -0.100449
C14   C     C_R   0.152108 0.723796 0.808660 -0.100441
H5    H     H_    0.851158 0.341152 0.224847 0.113172
H6    H     H_    0.148846 0.841162 0.775158 0.113175
C15   C     C_R   0.805908 0.086721 0.189175 0.101186
C16   C     C_R   0.194092 0.586720 0.810825 0.101183
C17   C     C_1   0.766006 0.101070 0.231371 -0.004450
C18   C     C_1   0.233994 0.601071 0.768629 -0.004449
C19   C     C_1   0.732590 0.112413 0.266558 -0.054238
C20   C     C_1   0.267410 0.612414 0.733442 -0.054238
C21   C     C_R   0.669264 0.962588 0.328747 -0.129431
C22   C     C_R   0.330737 0.462589 0.671254 -0.129431
H7    H     H_    0.681205 0.828157 0.313224 0.116062
H8    H     H_    0.318796 0.328158 0.686778 0.116063
C23   C     C_R   0.630271 0.972824 0.369016 -0.098797
C24   C     C_R   0.369729 0.472824 0.630985 -0.098801
H9    H     H_    0.613116 0.844880 0.383385 0.151595
H10   H     H_    0.386885 0.344880 0.616616 0.151598
C25   C     C_R   0.613589 0.145399 0.390101 -0.136521
C26   C     C_R   0.386411 0.645400 0.609899 -0.136523
C27   C     C_R   0.637281 0.307276 0.369594 -0.132847
C28   C     C_R   0.362719 0.807276 0.630406 -0.132842
H11   H     H_    0.625573 0.442632 0.384447 0.141389
H12   H     H_    0.374426 0.942632 0.615552 0.141389
C29   C     C_R   0.676325 0.296535 0.329249 -0.127203
C30   C     C_R   0.323675 0.796536 0.670751 -0.127203
H13   H     H_    0.693807 0.422971 0.314072 0.114139
H14   H     H_    0.306192 0.922972 0.685928 0.114139
C31   C     C_R   0.692483 0.124164 0.308571 0.161009
C32   C     C_R   0.307517 0.624165 0.691429 0.161009
C33   C     C_R   0.641480 0.198130 0.796280 -0.127504
C34   C     C_R   0.358518 0.698162 0.203721 -0.127507
H15   H     H_    0.626194 0.231716 0.839763 0.217170
H16   H     H_    0.373804 0.731763 0.160239 0.217170
C35   C     C_R   0.617612 0.150451 0.675844 -0.234903
C36   C     C_R   0.382388 0.650455 0.324155 -0.234903
C37   C     C_R   0.900886 0.010116 0.768240 -0.166380
C38   C     C_R   0.099115 0.510095 0.231759 -0.166379
C39   C     C_R   0.861984 0.004515 0.704692 -0.099423
C40   C     C_R   0.138018 0.504483 0.295307 -0.099423
C41   C     C_R   0.802818 0.040215 0.696086 -0.152887
C42   C     C_R   0.197183 0.540192 0.303913 -0.152889
C43   C     C_R   0.780662 0.083668 0.751502 0.111044
C44   C     C_R   0.219338 0.583662 0.248498 0.111044
C45   C     C_R   0.821204 0.091776 0.816694 0.015926
C46   C     C_R   0.178795 0.591782 0.183306 0.015932
C47   C     C_R   0.719763 0.118456 0.744307 0.068013
C48   C     C_R   0.280237 0.618459 0.255692 0.068012
C49   C     C_R   0.700991 0.161925 0.802606 -0.085628
C50   C     C_R   0.299008 0.661947 0.197395 -0.085623
C51   C     C_R   0.741937 0.169408 0.866218 0.503818
C52   C     C_R   0.258061 0.669441 0.133784 0.503812
C53   C     C_R   0.800778 0.134990 0.872630 -0.239217
C54   C     C_R   0.199221 0.635013 0.127371 -0.239228
C55   C     C_R   0.676713 0.112344 0.681184 -0.259193
C56   C     C_R   0.323288 0.612336 0.318815 -0.259195
C57   C     C_R   0.600343 0.193784 0.733852 0.450273
C58   C     C_R   0.399655 0.693807 0.266149 0.450275
C59   C     C_R   0.881532 0.053966 0.824644 -0.116951
C60   C     C_R   0.118468 0.553963 0.175356 -0.116953
H17   H     H_    0.687618 0.081381 0.634936 0.110344
H18   H     H_    0.312383 0.581359 0.365062 0.110347
H19   H     H_    0.946540 0.979459 0.773536 0.097515
H20   H     H_    0.053461 0.479430 0.226463 0.097515
H21   H     H_    0.775669 0.032068 0.645284 0.104432
H22   H     H_    0.224332 0.532036 0.354714 0.104433
H23   H     H_    0.877795 0.970823 0.661528 0.111657
H24   H     H_    0.122208 0.470776 0.338470 0.111657
H25   H     H_    0.830654 0.142572 0.922380 0.169606
H26   H     H_    0.169344 0.642602 0.077622 0.169604
O11   O     O_R   0.053190 0.709680 0.082610 -0.592006
O12   O     O_R   0.946810 0.209680 0.917390 -0.592006
O13   O     O_R   0.057740 0.380240 0.950340 -0.563631
O14   O     O_R   0.942260 0.880240 0.049660 -0.563632
C61   C     C_R   0.072366 0.548951 0.933753 0.946510
C62   C     C_R   0.927633 0.048951 0.066246 0.946510
O15   O     O_R   0.060000 0.379940 0.084150 -0.568070
O16   O     O_R   0.940000 0.879940 0.915850 -0.568070
O17   O     O_R   0.949110 0.210100 0.052140 -0.586123
O18   O     O_R   0.050890 0.710100 0.947860 -0.586122
C63   C     C_R   0.074751 0.548235 0.109035 0.898925
C64   C     C_R   0.925249 0.048236 0.890965 0.898927
O19   O     O_3   0.963630 0.543720 0.989330 -0.262481
O20   O     O_3   0.036370 0.043720 0.010670 -0.262479
V3    V     V_3+5 0.006750 0.268680 0.001980 1.232134
V4    V     V_3+5 0.993250 0.768680 0.998020 1.232133
Cl1   Cl    Cl    0.721931 0.221724 0.940647 -0.543126
Cl2   Cl    Cl    0.278066 0.721782 0.059356 -0.543122
N1    N     N_R   0.831448 0.773121 0.055434 0.247686
O21   O     O_R   0.816706 0.609916 0.072040 -0.368910
O22   O     O_R   0.828142 0.806832 0.992593 -0.372200
N2    N     N_R   0.168547 0.273108 0.944561 0.247686
O23   O     O_R   0.183284 0.109900 0.927950 -0.368920
O24   O     O_R   0.171858 0.306813 0.007403 -0.372185
Cl3   Cl    Cl    0.526887 0.243617 0.729938 -0.628510
Cl4   Cl    Cl    0.473110 0.743655 0.270063 -0.628509

loop_
_geom_bond_atom_site_label_1
_geom_bond_atom_site_label_2
_geom_bond_distance
_ccdc_geom_bond_type
C38   C40   1.389274 A    
O12   C64   1.330630 A    
C51   Cl1   1.765655 S    
O13   V3    1.985384 S    
C29   H13   1.083489 S    
O1    C3    1.332906 A    
C44   C48   1.437088 A    
O2    C4    1.332908 A    
C33   C49   1.409660 A    
C2    O7    1.332925 A    
C25   C27   1.410673 A    
C59   C64   1.482055 S    
O5    C3    1.337385 A    
C34   C50   1.409660 A    
C40   H24   1.082742 S    
C56   H18   1.077036 S    
O16   V4    1.994741 S    
O15   V3    1.994745 S    
C17   C19   1.213299 T    
C10   C12   1.410807 A    
C41   H21   1.076285 S    
N1    O22   1.301192 A    
C38   C60   1.397222 A    
C50   C52   1.411501 A    
C21   C31   1.400748 A    
C13   C15   1.397784 A    
C34   H16   1.081613 S    
O18   V4    1.970494 S    
C41   C43   1.415868 A    
O17   V3    1.970491 S    
C7    N1    1.436732 S    
C5    H1    1.083862 S    
C20   C32   1.451884 S    
C45   C59   1.425329 A    
C52   Cl2   1.765652 S    
C24   H10   1.082809 S    
C37   C39   1.389276 A    
C28   H12   1.082827 S    
C61   O18   1.333807 A    
C16   C18   1.452057 S    
C26   C28   1.410671 A    
O6    V2    1.985618 S    
C43   C47   1.437087 A    
C35   C57   1.400504 A    
C39   H23   1.082741 S    
C54   H26   1.082918 S    
C48   C56   1.426644 A    
C3    C26   1.496585 S    
C5    C15   1.400715 A    
C46   C54   1.401560 A    
C4    C25   1.496584 S    
C36   C58   1.400503 A    
O20   V3    1.760715 S    
N2    O24   1.301188 A    
C37   C59   1.397222 A    
C49   C51   1.411501 A    
C11   C13   1.399919 A    
C55   H17   1.077042 S    
C30   H14   1.083488 S    
C33   H15   1.081612 S    
C22   C32   1.400747 A    
C14   C16   1.397782 A    
C44   C46   1.432101 A    
C43   C45   1.432102 A    
C29   C31   1.402409 A    
C38   H20   1.083935 S    
O5    V1    1.985616 S    
C27   H11   1.082827 S    
C5    C7    1.411024 A    
C1    C36   1.480470 S    
C35   C55   1.406437 A    
C39   C41   1.393529 A    
C2    C35   1.480468 S    
O4    V2    1.994646 S    
C8    N2    1.436735 S    
C33   C57   1.394732 A    
O14   V4    1.985383 S    
C47   C49   1.425225 A    
C9    C62   1.497144 S    
O6    C4    1.337384 A    
O1    V2    1.970573 S    
C28   C30   1.404292 A    
O14   C62   1.336461 A    
O2    V1    1.970574 S    
C6    C16   1.400713 A    
C45   C53   1.401565 A    
C60   C63   1.482054 S    
C52   C54   1.391412 A    
C12   C14   1.399918 A    
C7    C9    1.423892 A    
C58   Cl4   1.763019 S    
C8    C10   1.423892 A    
O4    C2    1.331800 A    
O11   V4    1.983128 S    
O3    V1    1.994650 S    
N2    O23   1.301377 A    
C51   C53   1.391411 A    
C30   C32   1.402410 A    
C37   H19   1.083935 S    
O15   C63   1.329693 A    
C34   C58   1.394731 A    
C42   H22   1.076282 S    
C6    C8    1.411021 A    
O12   V3    1.983129 S    
C48   C50   1.425217 A    
O3    C1    1.331799 A    
C21   C23   1.401898 A    
C11   H3    1.083238 S    
C12   H4    1.083238 S    
O13   C61   1.336462 A    
C36   C56   1.406437 A    
C10   C61   1.497144 S    
C18   C20   1.213298 T    
O7    V1    1.981814 S    
C1    O8    1.332926 A    
C13   H5    1.083518 S    
O8    V2    1.981816 S    
N1    O21   1.301379 A    
C14   H6    1.083517 S    
C47   C55   1.426645 A    
C53   H25   1.082919 S    
C27   C29   1.404292 A    
C22   H8    1.083644 S    
C15   C17   1.452054 S    
C57   Cl3   1.763021 S    
O19   V4    1.760716 S    
C6    H2    1.083862 S    
C9    C11   1.410804 A    
C22   C24   1.401900 A    
C21   H7    1.083644 S    
O16   C64   1.329695 A    
O9    V2    1.761008 S    
C40   C42   1.393529 A    
O10   V1    1.761005 S    
C42   C44   1.415864 A    
C46   C60   1.425329 A    
C23   C25   1.411383 A    
C23   H9    1.082810 S    
C62   O17   1.333809 A    
C19   C31   1.451884 S    
C24   C26   1.411382 A    
O11   C63   1.330633 A    
