data_mof_unit_27153.cif
_audit_creation_date              2012-12-10T18:47:44-0500
_audit_creation_method            fapswitch 2.2
_symmetry_space_group_name_H-M    P1
_symmetry_Int_Tables_number       1
_space_group_crystal_system       triclinic
_cell_length_a                    9.855563
_cell_length_b                    10.655735
_cell_length_c                    15.503679
_cell_angle_alpha                 90.055537
_cell_angle_beta                  67.822068
_cell_angle_gamma                 89.588626
_cell_volume                      1507.66032632

loop_
_atom_site_label
_atom_site_type_symbol
_atom_type_description
_atom_site_fract_x
_atom_site_fract_y
_atom_site_fract_z
_atom_type_partial_charge
C1    C     C_R   0.497574 0.739732 0.503298 0.926524
C2    C     C_R   0.502430 0.260267 0.496675 0.923355
C3    C     C_R   0.314984 0.478082 0.108284 -0.219504
C4    C     C_R   0.643597 0.365548 0.909445 -0.221586
C5    C     C_R   0.213081 0.493623 0.067099 -0.239509
C6    C     C_R   0.745023 0.350094 0.951278 -0.231953
C7    C     C_R   0.543810 0.938964 0.566751 -0.014594
C8    C     C_R   0.455984 0.061031 0.433320 -0.014897
C9    C     C_R   0.550734 0.067763 0.558774 -0.234638
C10   C     C_R   0.449083 0.932243 0.441291 -0.234751
C11   C     C_R   0.505621 0.127699 0.494046 -0.121531
C12   C     C_R   0.494300 0.872300 0.505968 -0.122939
C13   C     C_R   0.964719 0.425779 0.439262 -0.075838
C14   C     C_R   0.035319 0.574295 0.560673 -0.072621
C15   C     C_R   0.108471 0.425750 0.439310 -0.057643
C16   C     C_R   0.891579 0.574343 0.560612 -0.052955
C17   C     C_R   0.408498 0.497779 0.675983 0.921056
C18   C     C_R   0.591429 0.498886 0.323950 0.906011
C19   C     C_R   0.350847 0.487705 0.777175 -0.037929
C20   C     C_R   0.646184 0.478368 0.223603 -0.029479
C21   C     C_R   0.157922 0.514935 0.928477 -0.212842
C22   C     C_R   0.816186 0.380336 0.083508 -0.214281
C23   C     C_R   0.204636 0.516227 0.831763 -0.183355
C24   C     C_R   0.782220 0.421377 0.174876 -0.179245
C25   C     C_R   0.447204 0.450896 0.819212 -0.248643
C26   C     C_R   0.547062 0.496457 0.180295 -0.229802
C27   C     C_R   0.402893 0.447733 0.915926 0.096500
C28   C     C_R   0.572530 0.445233 0.092832 0.104693
C29   C     C_R   0.256901 0.484250 0.970878 0.176667
C30   C     C_R   0.712107 0.391867 0.042095 0.172458
C31   C     C_R   0.503660 0.419698 0.958758 0.065853
C32   C     C_R   0.463383 0.448597 0.054214 0.070228
H1    H     H_    0.101095 0.518416 0.110356 0.149314
H2    H     H_    0.850597 0.307514 0.911754 0.155747
H3    H     H_    0.448227 0.549314 0.217275 0.147253
H4    H     H_    0.559481 0.431822 0.774952 0.156267
H5    H     H_    0.859486 0.404890 0.208195 0.147970
H6    H     H_    0.128361 0.543791 0.799884 0.155990
H7    H     H_    0.046202 0.542614 0.969935 0.150001
H8    H     H_    0.921806 0.336492 0.046235 0.146966
H9    H     H_    0.273844 0.486867 0.183171 0.149627
H10   H     H_    0.675949 0.330189 0.839254 0.155554
H11   H     H_    0.585012 0.122557 0.605956 0.184036
H12   H     H_    0.414743 0.877465 0.394131 0.185083
H13   H     H_    0.939625 0.366466 0.390657 0.131720
H14   H     H_    0.060453 0.633691 0.609215 0.133530
H15   H     H_    0.192072 0.366303 0.390735 0.155283
H16   H     H_    0.808032 0.633912 0.609093 0.157338
N1    N     N_R   0.142780 0.500030 0.500020 -0.084206
N2    N     N_R   0.857220 0.499970 0.499980 -0.084669
O1    O     O_R   0.385370 0.683250 0.500010 -0.619810
O2    O     O_R   0.614630 0.316750 0.499990 -0.621426
O3    O     O_R   0.614700 0.683220 0.500000 -0.602589
O4    O     O_R   0.385300 0.316780 0.500000 -0.603788
O5    O     O_R   0.319830 0.500020 0.632250 -0.629250
O6    O     O_R   0.680170 0.499980 0.367750 -0.628639
O7    O     O_R   0.549160 0.499990 0.632240 -0.604715
O8    O     O_R   0.450840 0.500010 0.367760 -0.602739
Zn1   Zn    Zn3+2 0.346870 0.500020 0.500000 0.972426
Zn2   Zn    Zn3+2 0.653130 0.499980 0.500000 0.971435
C33   C     C_2   0.582204 0.879161 0.641347 0.896414
O9    O     O_2   0.520910 0.783372 0.679318 -0.649194
O10   O     O_R   0.685632 0.935339 0.670446 -0.808929
H17   H     H_    0.701926 0.886656 0.721920 0.341208
C34   C     C_2   0.417465 0.120808 0.358770 0.896539
O11   O     O_2   0.479129 0.216298 0.320541 -0.647303
O12   O     O_R   0.313521 0.064946 0.329991 -0.806696
H18   H     H_    0.297217 0.113658 0.278526 0.341440

loop_
_geom_bond_atom_site_label_1
_geom_bond_atom_site_label_2
_ccdc_geom_bond_type
C19   C23   A    
O12   H18   S    
C28   C30   A    
C21   C29   A    
C14   C16   A    
O5    Zn1   S    
C27   C29   A    
C23   H6    S    
C1    O1    A    
C17   O5    A    
C26   C28   A    
C31   C32   A    
N1    Zn1   S    
C18   O6    A    
N2    Zn2   S    
C16   H16   S    
C13   C15   A    
C24   H5    S    
C22   H8    S    
C8    C34   S    
C14   H14   S    
C6    C30   A    
C20   C24   A    
C13   H13   S    
C9    C11   A    
C7    C12   A    
C1    C12   S    
C2    O2    A    
O2    Zn2   S    
C8    C11   A    
C2    C11   S    
C10   C12   A    
C4    C6    A    
C17   C19   S    
O3    Zn2   S    
C16   N2    A    
C5    C29   A    
O4    Zn1   S    
C15   N1    A    
C21   C23   A    
C3    C32   A    
C19   C25   A    
C4    H10   S    
C22   C24   A    
C9    H11   S    
C4    C31   A    
O1    Zn1   S    
C33   O9    D    
C25   H4    S    
C10   H12   S    
C13   N2    A    
C14   N1    A    
O6    Zn2   S    
C26   H3    S    
C28   C32   A    
C18   C20   S    
C8    C10   A    
C34   O11   D    
C2    O4    A    
C7    C9    A    
C1    O3    A    
C15   H15   S    
C7    C33   S    
O7    Zn2   S    
C34   O12   S    
C22   C30   A    
C3    C5    A    
O8    Zn1   S    
C27   C31   A    
C21   H7    S    
C18   O8    A    
C33   O10   S    
C3    H9    S    
C6    H2    S    
C17   O7    A    
O10   H17   S    
C20   C26   A    
C25   C27   A    
C5    H1    S    
