data_mof_unit_9335.cif
_audit_creation_date              2012-12-10T18:04:44-0500
_audit_creation_method            fapswitch 2.2
_symmetry_space_group_name_H-M    P1
_symmetry_Int_Tables_number       1
_space_group_crystal_system       triclinic
_cell_length_a                    19.398109
_cell_length_b                    17.896187
_cell_length_c                    12.725581
_cell_angle_alpha                 89.158112
_cell_angle_beta                  100.268751
_cell_angle_gamma                 89.829233
_cell_volume                      4346.41248828

loop_
_atom_site_label
_atom_site_type_symbol
_atom_type_description
_atom_site_fract_x
_atom_site_fract_y
_atom_site_fract_z
_atom_type_partial_charge
C1    C     C_R   0.413327 0.105484 0.444450 0.891386
C2    C     C_R   0.764130 0.758387 0.661211 -0.069363
C3    C     C_1   0.938656 0.683458 0.681609 0.276286
C4    C     C_1   0.671496 0.009746 0.335983 0.525630
C5    C     C_1   0.172753 0.486272 0.330912 0.537100
C6    C     C_R   0.228180 0.782305 0.616047 -0.084427
C7    C     C_R   0.274253 0.272224 0.646935 -0.080719
C8    C     C_R   0.283982 0.827331 0.656450 -0.160258
C9    C     C_R   0.343867 0.248804 0.670963 -0.150887
C10   C     C_R   0.843879 0.247423 0.671897 -0.143110
C11   C     C_R   0.827203 0.722801 0.695583 -0.184413
C12   C     C_R   0.345291 0.819938 0.615763 0.041100
C13   C     C_R   0.377276 0.222419 0.591644 0.026583
C14   C     C_R   0.877197 0.276020 0.592743 0.024306
C15   C     C_R   0.416679 0.892139 0.449763 0.885413
C16   C     C_R   0.869625 0.702197 0.624718 0.007591
C17   C     C_R   0.669148 0.202085 0.517622 0.438884
C18   C     C_R   0.673443 0.801435 0.518686 0.432800
C19   C     C_R   0.202188 0.659253 0.553308 0.447730
C20   C     C_R   0.168071 0.296397 0.518733 0.444049
C21   C     C_R   0.674371 0.165397 0.703426 0.299103
C22   C     C_R   0.663096 0.821421 0.704189 0.273673
C23   C     C_R   0.112394 0.735332 0.611827 0.290121
C24   C     C_R   0.174921 0.331365 0.704287 0.302014
C25   C     C_R   0.382041 0.817244 0.435022 -0.212911
C26   C     C_R   0.916928 0.607895 0.448858 0.877313
C27   C     C_R   0.368732 0.172804 0.410913 -0.216835
C28   C     C_R   0.867476 0.329165 0.410823 -0.210100
C29   C     C_R   0.880655 0.681554 0.429996 -0.231872
C30   C     C_R   0.645632 0.011790 0.141898 0.340828
C31   C     C_R   0.145623 0.508903 0.140131 0.340233
C32   C     C_R   0.377919 0.007606 0.760827 -0.015647
C33   C     C_R   0.878035 0.507008 0.762073 -0.005487
C34   C     C_R   0.353374 0.026812 0.853611 -0.226538
C35   C     C_R   0.854540 0.535281 0.851689 -0.240109
C36   C     C_R   0.588402 0.896416 0.556637 0.899525
C37   C     C_R   0.912740 0.395191 0.444623 0.891353
C38   C     C_R   0.589591 0.102145 0.556907 0.909884
C39   C     C_R   0.089583 0.397458 0.557561 0.900288
C40   C     C_R   0.087668 0.603089 0.554157 0.869759
C41   C     C_R   0.401942 0.036665 0.948434 0.528564
C42   C     C_R   0.903923 0.550465 0.944149 0.525872
C43   C     C_R   0.473078 0.015606 0.952343 -0.069132
C44   C     C_R   0.973975 0.525676 0.950550 -0.065166
C45   C     C_R   0.496846 0.005338 0.854904 0.040883
C46   C     C_R   0.997291 0.510295 0.853933 0.047340
C47   C     C_R   0.522699 0.009418 0.049052 -0.043301
C48   C     C_R   0.739600 0.224350 0.539216 0.001339
C49   C     C_R   0.022996 0.519365 0.048377 -0.032867
C50   C     C_R   0.595517 0.013255 0.047228 -0.109748
C51   C     C_R   0.095701 0.518738 0.046324 -0.092508
C52   C     C_R   0.617420 0.017094 0.951045 -0.236972
C53   C     C_R   0.117690 0.524527 0.949977 -0.286076
C54   C     C_R   0.570829 0.005464 0.857132 0.550376
C55   C     C_R   0.071281 0.511799 0.855916 0.518992
C56   C     C_R   0.503136 0.996323 0.147806 0.573981
C57   C     C_R   0.002570 0.507099 0.147408 0.565347
C58   C     C_R   0.621794 0.008485 0.237315 -0.044068
C59   C     C_R   0.742125 0.774591 0.551133 0.011127
C60   C     C_R   0.122157 0.500946 0.235723 -0.057467
C61   C     C_R   0.741062 0.197559 0.729766 0.433743
C62   C     C_R   0.723933 0.779306 0.737394 0.437882
C63   C     C_R   0.163030 0.789326 0.647548 0.456651
C64   C     C_R   0.241287 0.297409 0.729832 0.431589
C65   C     C_R   0.642760 0.159316 0.594430 -0.359638
C66   C     C_R   0.639833 0.836746 0.594014 -0.381318
C67   C     C_R   0.135345 0.665011 0.580820 -0.369167
C68   C     C_R   0.142556 0.338966 0.595577 -0.369111
C69   C     C_R   0.384995 0.773751 0.343530 -0.192869
C70   C     C_R   0.240075 0.724351 0.547486 0.005268
C71   C     C_R   0.352303 0.197048 0.303361 -0.186349
C72   C     C_R   0.848462 0.308901 0.302038 -0.189690
C73   C     C_R   0.873315 0.717900 0.329002 -0.186067
C74   C     C_R   0.339320 0.712150 0.319483 0.331816
C75   C     C_R   0.294016 0.244570 0.270074 0.328717
C76   C     C_R   0.792197 0.259404 0.270636 0.329893
C77   C     C_R   0.823611 0.775927 0.302198 0.336917
C78   C     C_R   0.288825 0.696682 0.384157 0.492696
C79   C     C_R   0.254238 0.269869 0.345927 0.501313
C80   C     C_R   0.756033 0.229144 0.348156 0.509181
C81   C     C_R   0.238618 0.273310 0.538855 0.001424
C82   C     C_R   0.780229 0.795932 0.375422 0.504791
C83   C     C_R   0.291989 0.733574 0.482612 0.005971
C84   C     C_R   0.274986 0.250067 0.456259 0.010988
C85   C     C_R   0.776140 0.248699 0.457285 0.007618
C86   C     C_R   0.788235 0.760186 0.477561 0.005303
C87   C     C_R   0.342621 0.789334 0.512270 -0.061428
C88   C     C_R   0.339587 0.212306 0.487353 -0.057237
C89   C     C_R   0.839719 0.287251 0.487894 -0.058372
C90   C     C_R   0.847643 0.713700 0.511276 -0.030579
C91   C     C_1   0.328801 0.004014 0.661389 0.305295
C92   C     C_R   0.774574 0.223898 0.647409 -0.081726
C93   C     C_1   0.828092 0.493644 0.665763 0.311467
C94   C     C_1   0.278927 0.038300 0.850551 0.205792
C95   C     C_1   0.780627 0.550716 0.847367 0.204151
C96   C     C_1   0.434809 0.791382 0.274520 0.259968
C97   C     C_1   0.402794 0.186597 0.233607 0.296615
C98   C     C_1   0.893278 0.326738 0.225676 0.304781
C99   C     C_1   0.921705 0.701818 0.257517 0.290172
C100  C     C_1   0.408818 0.822217 0.693539 0.212294
C101  C     C_1   0.452395 0.228771 0.610973 0.176114
C102  C     C_1   0.952424 0.270907 0.613521 0.182047
H1    H     H_    0.672312 0.024732 0.947701 0.191483
H2    H     H_    0.093535 0.342780 0.770112 0.380959
H3    H     H_    0.727850 0.975237 0.093066 0.355059
H4    H     H_    0.223740 0.467604 0.084938 0.357236
H5    H     H_    0.424257 0.994731 0.218395 0.386305
H6    H     H_    0.926585 0.499543 0.225642 0.387498
H7    H     H_    0.336121 0.096462 0.014590 0.339674
H8    H     H_    0.840705 0.618627 0.002101 0.348406
H9    H     H_    0.651337 0.992777 0.784518 0.353405
H10   H     H_    0.151522 0.506142 0.781488 0.327932
H11   H     H_    0.746668 0.181136 0.884130 0.398921
H12   H     H_    0.172821 0.530908 0.947278 0.177844
H13   H     H_    0.711951 0.774929 0.887752 0.388796
H14   H     H_    0.101440 0.846553 0.721393 0.384227
H15   H     H_    0.247151 0.309292 0.884507 0.393950
H16   H     H_    0.575943 0.219694 0.432851 0.338180
H17   H     H_    0.587116 0.789224 0.415969 0.333291
H18   H     H_    0.211114 0.552105 0.577324 0.321144
H19   H     H_    0.074049 0.280283 0.437303 0.339566
H20   H     H_    0.695464 0.167582 0.243184 0.394979
H21   H     H_    0.728185 0.870348 0.277181 0.382345
H22   H     H_    0.232560 0.635432 0.274325 0.392311
H23   H     H_    0.282941 0.859628 0.727650 0.182174
H24   H     H_    0.189166 0.326768 0.237492 0.380976
H25   H     H_    0.379723 0.679845 0.195792 0.354125
H26   H     H_    0.298140 0.238005 0.117588 0.354598
H27   H     H_    0.789636 0.273215 0.116670 0.356704
H28   H     H_    0.840319 0.789428 0.154846 0.357772
H29   H     H_    0.374039 0.255170 0.750725 0.205895
H30   H     H_    0.873745 0.239976 0.752009 0.206723
H31   H     H_    0.845247 0.712779 0.780586 0.203296
H32   H     H_    0.591955 0.156878 0.767432 0.374855
H33   H     H_    0.579964 0.826428 0.760661 0.369838
H34   H     H_    0.017302 0.725138 0.537312 0.322171
N1    N     N_R   0.552340 1.000000 0.237260 -0.224712
N2    N     N_1   0.444132 0.179635 0.179139 -0.127268
N3    N     N_1   0.929245 0.339064 0.164154 -0.141451
N4    N     N_1   0.960717 0.689561 0.200814 -0.130829
N5    N     N_1   0.458124 0.823583 0.759277 -0.209827
N6    N     N_1   0.512294 0.237231 0.626580 -0.233225
N7    N     N_1   0.012515 0.263447 0.630774 -0.229238
N8    N     N_1   0.991958 0.670180 0.735505 -0.145248
N9    N     N_1   0.712042 0.010974 0.414650 -0.142497
N10   N     N_1   0.214766 0.472990 0.405468 -0.117958
N11   N     N_R   0.052340 0.500000 0.237260 -0.229939
N12   N     N_R   0.448170 0.000000 0.762060 -0.133760
N13   N     N_R   0.948170 0.500000 0.762060 -0.138964
N14   N     N_1   0.288615 0.001658 0.582444 -0.164543
N15   N     N_1   0.787266 0.483269 0.589281 -0.183539
N16   N     N_1   0.219556 0.047452 0.847963 -0.134265
N17   N     N_1   0.721657 0.563118 0.843774 -0.150303
N18   N     N_1   0.474660 0.805059 0.219336 -0.139750
O1    O     O_R   0.448200 0.076800 0.373930 -0.633234
O2    O     O_R   0.585240 0.076800 0.457600 -0.610556
O3    O     O_R   0.085240 0.423200 0.457600 -0.610546
O4    O     O_R   0.085240 0.576800 0.457600 -0.598492
O5    O     O_R   0.551780 0.923190 0.626070 -0.526703
O6    O     O_R   0.551780 0.076810 0.626070 -0.547686
O7    O     O_R   0.051780 0.423190 0.626070 -0.532680
O8    O     O_R   0.051780 0.576810 0.626070 -0.547415
O9    O     O_3   0.641767 0.141753 0.785378 -0.768745
O10   O     O_3   0.627586 0.846375 0.780752 -0.745054
O11   O     O_3   0.043138 0.756793 0.594189 -0.753887
O12   O     O_R   0.448200 0.923200 0.373930 -0.613854
O13   O     O_3   0.143733 0.355907 0.786628 -0.747566
O14   O     O_3   0.717010 0.013336 0.143528 -0.727403
O15   O     O_3   0.216759 0.503803 0.140339 -0.730867
O16   O     O_3   0.436795 0.972380 0.154030 -0.712597
O17   O     O_3   0.933202 0.495098 0.151580 -0.725541
O18   O     O_3   0.383541 0.074293 0.033620 -0.744949
O19   O     O_3   0.887933 0.596337 0.023320 -0.719157
O20   O     O_3   0.599363 0.995707 0.768495 -0.655163
O21   O     O_3   0.100086 0.498085 0.768456 -0.682802
O22   O     O_3   0.775352 0.203086 0.834674 -0.749461
O23   O     O_R   0.948200 0.576800 0.373930 -0.627900
O24   O     O_3   0.746941 0.760178 0.843978 -0.766790
O25   O     O_3   0.147982 0.852539 0.700503 -0.733910
O26   O     O_3   0.276102 0.289531 0.834478 -0.759873
O27   O     O_3   0.625495 0.228035 0.426172 -0.694289
O28   O     O_3   0.638264 0.786794 0.416673 -0.700754
O29   O     O_3   0.233614 0.591656 0.540022 -0.701865
O30   O     O_3   0.123287 0.270862 0.429628 -0.686195
O31   O     O_3   0.708331 0.172215 0.321586 -0.719402
O32   O     O_3   0.735802 0.856878 0.354075 -0.722033
O33   O     O_3   0.233259 0.649578 0.349365 -0.723054
O34   O     O_R   0.948200 0.423200 0.373930 -0.633954
O35   O     O_3   0.202227 0.322868 0.316169 -0.724701
O36   O     O_3   0.339702 0.667736 0.231197 -0.737190
O37   O     O_3   0.275831 0.269718 0.165247 -0.765915
O38   O     O_3   0.772551 0.237170 0.165715 -0.743247
O39   O     O_3   0.816094 0.815278 0.206079 -0.762115
O40   O     O_R   0.414750 0.076790 0.542400 -0.608398
O41   O     O_R   0.414750 0.923210 0.542400 -0.620610
O42   O     O_R   0.914750 0.576790 0.542400 -0.622012
O43   O     O_R   0.914750 0.423210 0.542400 -0.603346
O44   O     O_R   0.585240 0.923200 0.457600 -0.602584
Zn1   Zn    Zn3+2 0.522330 1.000000 0.387520 0.983021
Zn2   Zn    Zn3+2 0.022330 0.500000 0.387520 0.977121
Zn3   Zn    Zn3+2 0.477660 1.000000 0.612480 0.999753
Zn4   Zn    Zn3+2 0.977660 0.500000 0.612480 0.995577

loop_
_geom_bond_atom_site_label_1
_geom_bond_atom_site_label_2
_ccdc_geom_bond_type
C44   C49   A    
C31   C60   A    
C83   C87   A    
C52   H1    S    
C16   C90   A    
C21   O9    S    
H9    O20   S    
H33   O10   S    
C17   C48   A    
C38   O2    A    
C72   C76   A    
C69   C96   S    
C26   O42   A    
O1    Zn1   S    
C72   C98   S    
C34   C41   A    
C82   O32   S    
C77   C82   A    
C40   O4    A    
H8    O19   S    
C36   O44   A    
H6    O17   S    
C100  N5    T    
C11   H31   S    
C79   C84   A    
C64   O26   S    
C36   C66   S    
C14   C102  S    
C32   C91   S    
C29   C73   A    
H34   O11   S    
C18   O28   S    
C94   N16   T    
C45   N12   A    
H27   O38   S    
C25   C87   A    
C49   C57   A    
H32   O9    S    
C6    C70   A    
C39   C68   S    
C9    H29   S    
C23   C67   A    
C1    O1    A    
C35   C42   A    
C9    C13   A    
O12   Zn1   S    
C22   C66   A    
C77   O39   S    
C36   O5    A    
C74   O36   S    
C21   C65   A    
C78   C83   A    
C96   N18   T    
N1    Zn1   S    
C52   C54   A    
C49   C51   A    
C40   C67   S    
C46   C55   A    
O4    Zn2   S    
C80   O31   S    
C15   O12   A    
C19   C67   A    
C28   C89   A    
C60   N11   A    
C37   O43   A    
C39   O7    A    
C43   C47   A    
C21   C61   A    
C12   C87   A    
H15   O26   S    
C20   O30   S    
C15   O41   A    
H28   O39   S    
C23   C63   A    
C30   C50   A    
C10   C92   A    
C24   C64   A    
C23   O11   S    
C20   C81   A    
C39   O3    A    
C91   N14   T    
C41   C43   A    
N11   Zn2   S    
C28   C72   A    
C61   O22   S    
C42   C44   A    
C2    C11   A    
C29   C90   A    
C44   C46   A    
N12   Zn3   S    
C47   C50   A    
C53   C55   A    
C41   O18   S    
H25   O36   S    
H13   O24   S    
C34   C94   S    
O7    Zn4   S    
O43   Zn4   S    
C24   O13   S    
C86   C90   A    
C19   O29   S    
O6    Zn3   S    
C85   C89   A    
C2    C59   A    
H20   O31   S    
C6    C8    A    
C31   O15   S    
C82   C86   A    
O40   Zn3   S    
O23   Zn2   S    
C95   N17   T    
H17   O28   S    
C32   C34   A    
C6    C63   A    
H24   O35   S    
C75   O37   S    
C14   C89   A    
C40   O8    A    
C80   C85   A    
C76   O38   S    
C17   O27   S    
C22   C62   A    
C71   C97   S    
C101  N6    T    
C8    H23   S    
C50   C52   A    
C38   C65   S    
C8    C12   A    
C46   N13   A    
C69   C74   A    
C70   C83   A    
C43   C45   A    
C55   O21   S    
O44   Zn1   S    
C26   C29   S    
H19   O30   S    
C32   N12   A    
C58   N1    A    
C7    C81   A    
O8    Zn4   S    
C45   C54   A    
H11   O22   S    
C48   C92   A    
H4    O15   S    
C99   N4    T    
C93   N15   T    
O2    Zn1   S    
C25   C69   A    
C102  N7    T    
C13   C101  S    
C97   N2    T    
C81   C84   A    
C27   C71   A    
C53   H12   S    
C26   O23   A    
C73   C99   S    
C73   C77   A    
C5    N10   T    
C5    C60   S    
C56   O16   S    
C20   C68   A    
C3    N8    T    
C84   C88   A    
C31   C51   A    
C42   O19   S    
C33   C93   S    
C62   O24   S    
H22   O33   S    
C76   C80   A    
C61   C92   A    
O41   Zn3   S    
C35   C95   S    
C18   C66   A    
C74   C78   A    
C17   C65   A    
H3    O14   S    
C98   N3    T    
H26   O37   S    
O3    Zn2   S    
H21   O32   S    
C57   N11   A    
C22   O10   S    
C59   C86   A    
C38   O6    A    
C33   N13   A    
H2    O13   S    
C71   C75   A    
C56   N1    A    
C54   O20   S    
C75   C79   A    
C28   C37   S    
C4    N9    T    
C30   C58   A    
C13   C88   A    
C33   C35   A    
C1    O40   A    
C27   C88   A    
H18   O29   S    
C10   H30   S    
C7    C64   A    
C12   C100  S    
C11   C16   A    
O5    Zn3   S    
C24   C68   A    
C30   O14   S    
C37   O34   A    
C7    C9    A    
C18   C59   A    
H7    O18   S    
H10   O21   S    
C15   C25   S    
C79   O35   S    
C63   O25   S    
C4    C58   S    
C1    C27   S    
O34   Zn2   S    
C48   C85   A    
C19   C70   A    
C78   O33   S    
H16   O27   S    
C51   C53   A    
H14   O25   S    
O42   Zn4   S    
N13   Zn4   S    
C3    C16   S    
C2    C62   A    
C10   C14   A    
C47   C56   A    
C57   O17   S    
H5    O16   S    
