data_mof_unit_61094.cif
_audit_creation_date              2012-12-10T16:55:11-0500
_audit_creation_method            fapswitch 2.2
_symmetry_space_group_name_H-M    P1
_symmetry_Int_Tables_number       1
_space_group_crystal_system       monoclinic
_cell_length_a                    18.535758
_cell_length_b                    18.537639
_cell_length_c                    51.352405
_cell_angle_alpha                 90.0
_cell_angle_beta                  90.0
_cell_angle_gamma                 89.94088
_cell_volume                      17645.1489136

loop_
_atom_site_label
_atom_site_type_symbol
_atom_type_description
_atom_site_fract_x
_atom_site_fract_y
_atom_site_fract_z
_atom_type_partial_charge
C1    C     C_R   0.000000 0.500000 0.070839 0.513378
C2    C     C_R   0.116210 0.440145 0.264332 -0.082807
C3    C     C_R   0.862073 0.639325 0.500502 0.516859
C4    C     C_2   0.688740 0.257103 0.986364 -0.058811
C5    C     C_2   0.742603 0.688476 0.986503 -0.059237
C6    C     C_2   0.311260 0.742897 0.986363 -0.058810
C7    C     C_2   0.257397 0.311524 0.986503 -0.059238
C8    C     C_2   0.318001 0.261956 0.991260 -0.059732
C9    C     C_2   0.261807 0.682229 0.991093 -0.060592
C10   C     C_2   0.681999 0.738044 0.991260 -0.059732
C11   C     C_2   0.738193 0.317771 0.991093 -0.060592
C12   C     C_2   0.188741 0.757101 0.486363 -0.058810
C13   C     C_R   0.419352 0.102919 0.264283 -0.081417
C14   C     C_2   0.242607 0.188479 0.486501 -0.059236
C15   C     C_2   0.811259 0.242899 0.486363 -0.058810
C16   C     C_2   0.757392 0.811520 0.486500 -0.059236
C17   C     C_2   0.817998 0.761953 0.491258 -0.059733
C18   C     C_2   0.761806 0.182230 0.491092 -0.060591
C19   C     C_2   0.182002 0.238046 0.491258 -0.059733
C20   C     C_2   0.238194 0.817770 0.491092 -0.060591
C21   C     C_2   0.689415 0.198879 0.002250 -0.114849
C22   C     C_2   0.801001 0.689313 0.002301 -0.114481
C23   C     C_2   0.310585 0.801121 0.002250 -0.114849
C24   C     C_R   0.883788 0.559854 0.264332 -0.082807
C25   C     C_2   0.198999 0.310687 0.002301 -0.114481
C26   C     C_2   0.305585 0.193733 0.999297 -0.109191
C27   C     C_2   0.193638 0.694486 0.999270 -0.111197
C28   C     C_2   0.694415 0.806267 0.999297 -0.109191
C29   C     C_2   0.806361 0.305514 0.999270 -0.111196
C30   C     C_2   0.189415 0.698879 0.502250 -0.114849
C31   C     C_2   0.301002 0.189313 0.502301 -0.114479
C32   C     C_2   0.810585 0.301121 0.502250 -0.114849
C33   C     C_2   0.698998 0.810686 0.502301 -0.114479
C34   C     C_2   0.805584 0.693732 0.499296 -0.109192
C35   C     C_R   0.039750 0.448010 0.777838 -0.007392
C36   C     C_2   0.693638 0.194486 0.499270 -0.111196
C37   C     C_2   0.194416 0.306268 0.499296 -0.109191
C38   C     C_2   0.306362 0.805514 0.499270 -0.111195
C39   C     C_R   0.465438 0.054364 0.195249 0.432415
C40   C     C_R   0.940657 0.525135 0.195193 0.434413
C41   C     C_R   0.534562 0.945635 0.195249 0.432415
C42   C     C_R   0.059342 0.474865 0.195193 0.434415
C43   C     C_R   0.965395 0.554333 0.695250 0.432416
C44   C     C_R   0.440658 0.025155 0.695193 0.434421
C45   C     C_R   0.034618 0.445666 0.695250 0.432414
C46   C     C_R   0.558374 0.970489 0.777859 -0.007580
C47   C     C_R   0.559326 0.974846 0.695193 0.434420
C48   C     C_R   0.540251 0.946631 0.222693 0.019033
C49   C     C_R   0.059955 0.470211 0.222681 0.019859
C50   C     C_R   0.459748 0.053368 0.222693 0.019033
C51   C     C_R   0.940043 0.529788 0.222681 0.019859
C52   C     C_R   0.040317 0.446675 0.722693 0.019035
C53   C     C_R   0.559937 0.970189 0.722681 0.019864
C54   C     C_R   0.959701 0.553328 0.722693 0.019036
C55   C     C_R   0.440048 0.029812 0.722681 0.019864
C56   C     C_R   0.500000 0.999999 0.236408 -0.101509
C57   C     C_R   0.960264 0.551991 0.777838 -0.007393
C58   C     C_R   0.999999 0.500000 0.236394 -0.101562
C59   C     C_R   0.000009 0.500001 0.736408 -0.101504
C60   C     C_R   0.499993 0.000000 0.736394 -0.101564
C61   C     C_R   0.583283 0.896380 0.237074 0.249673
C62   C     C_R   0.117796 0.438107 0.237125 0.247397
C63   C     C_R   0.416717 0.103619 0.237074 0.249672
C64   C     C_R   0.882202 0.561891 0.237125 0.247397
C65   C     C_R   0.083411 0.396476 0.737074 0.249676
C66   C     C_R   0.617764 0.938060 0.737124 0.247415
C67   C     C_R   0.916612 0.603531 0.737074 0.249673
C68   C     C_R   0.441613 0.029512 0.777859 -0.007581
C69   C     C_R   0.382221 0.061941 0.737124 0.247419
C70   C     C_1   0.640409 0.263298 0.964195 0.281273
C71   C     C_1   0.736195 0.639972 0.964396 0.283988
C72   C     C_1   0.359591 0.736702 0.964195 0.281273
C73   C     C_1   0.263805 0.360028 0.964396 0.283988
C74   C     C_1   0.390511 0.289048 0.986724 0.269030
C75   C     C_1   0.288991 0.609793 0.986384 0.268500
C76   C     C_1   0.609488 0.710951 0.986724 0.269030
C77   C     C_1   0.711009 0.390207 0.986384 0.268500
C78   C     C_1   0.140412 0.763294 0.464193 0.281273
C79   C     C_R   0.539688 0.947969 0.277838 -0.007400
C80   C     C_1   0.236204 0.139981 0.464392 0.283983
C81   C     C_1   0.859588 0.236706 0.464193 0.281274
C82   C     C_1   0.763795 0.860018 0.464392 0.283983
C83   C     C_1   0.890507 0.789047 0.486720 0.269032
C84   C     C_1   0.788990 0.109794 0.486382 0.268500
C85   C     C_1   0.109492 0.210953 0.486720 0.269031
C86   C     C_1   0.211009 0.890206 0.486382 0.268499
C87   C     C_R   0.058391 0.470510 0.277859 -0.007582
C88   C     C_R   0.460312 0.052030 0.277838 -0.007400
C89   C     C_R   0.500000 1.000000 0.070833 0.513154
C90   C     C_R   0.941608 0.529489 0.277859 -0.007582
C91   C     C_R   0.000008 0.500001 0.763987 -0.047718
C92   C     C_R   0.499993 0.000000 0.763990 -0.047333
C93   C     C_R   0.500000 0.999999 0.263987 -0.047716
C94   C     C_R   0.999999 0.499999 0.263990 -0.047332
C95   C     C_R   0.038513 0.448526 0.805216 0.414774
C96   C     C_R   0.557491 0.971307 0.805244 0.415036
C97   C     C_R   0.961497 0.551472 0.805216 0.414773
C98   C     C_R   0.442496 0.028694 0.805245 0.415036
C99   C     C_R   0.538457 0.948488 0.305216 0.414771
C100  C     C_R   0.500000 0.000000 0.570839 0.513378
C101  C     C_R   0.057507 0.471327 0.305245 0.415035
C102  C     C_R   0.461543 0.051510 0.305216 0.414771
C103  C     C_R   0.942492 0.528672 0.305245 0.415036
C104  C     C_R   0.935482 0.489642 0.860090 -0.050426
C105  C     C_R   0.502647 0.065292 0.860045 -0.050719
C106  C     C_R   0.064522 0.510355 0.860090 -0.050428
C107  C     C_R   0.497343 0.934709 0.860045 -0.050719
C108  C     C_R   0.435473 0.989685 0.360090 -0.050428
C109  C     C_R   0.002637 0.565292 0.360045 -0.050720
C110  C     C_R   0.564527 0.010314 0.360090 -0.050429
C111  C     C_R   0.000000 0.500000 0.570833 0.513153
C112  C     C_R   0.997362 0.434708 0.360045 -0.050720
C113  C     C_R   0.935373 0.489925 0.887258 -0.127102
C114  C     C_R   0.502597 0.065366 0.887217 -0.127151
C115  C     C_R   0.064629 0.510073 0.887259 -0.127102
C116  C     C_R   0.497397 0.934634 0.887217 -0.127151
C117  C     C_R   0.435365 0.989967 0.387259 -0.127101
C118  C     C_R   0.002585 0.565367 0.387217 -0.127149
C119  C     C_R   0.564635 0.010032 0.387259 -0.127101
C120  C     C_R   0.997414 0.434633 0.387217 -0.127149
C121  C     C_R   0.000001 0.500000 0.901104 0.024804
C122  C     C_R   0.080769 0.397168 0.764283 -0.081404
C123  C     C_R   0.499998 0.000000 0.901076 0.024005
C124  C     C_R   0.500000 1.000000 0.401104 0.024801
C125  C     C_R   1.000000 0.500000 0.401076 0.024007
C126  C     C_R   0.000003 0.499998 0.846351 0.229406
C127  C     C_R   0.499994 0.000000 0.846333 0.231111
C128  C     C_R   0.500000 0.999999 0.346351 0.229419
C129  C     C_R   0.999999 0.500000 0.346333 0.231116
C130  C     C_R   0.434928 0.993919 0.140573 -0.048157
C131  C     C_R   0.000313 0.434647 0.140604 -0.048335
C132  C     C_R   0.565072 0.006080 0.140573 -0.048157
C133  C     C_R   0.616181 0.940100 0.764332 -0.082799
C134  C     C_R   0.999687 0.565353 0.140604 -0.048334
C135  C     C_R   0.934933 0.493886 0.640573 -0.048154
C136  C     C_R   0.500297 0.934647 0.640605 -0.048333
C137  C     C_R   0.065072 0.506110 0.640572 -0.048155
C138  C     C_R   0.499689 0.065354 0.640604 -0.048334
C139  C     C_R   0.434852 0.994085 0.113404 -0.127507
C140  C     C_R   0.000315 0.434579 0.113432 -0.127527
C141  C     C_R   0.565148 0.005914 0.113404 -0.127507
C142  C     C_R   0.999685 0.565422 0.113432 -0.127527
C143  C     C_R   0.934856 0.494053 0.613405 -0.127506
C144  C     C_R   0.919249 0.602836 0.764282 -0.081408
C145  C     C_R   0.500302 0.934579 0.613432 -0.127527
C146  C     C_R   0.065147 0.505944 0.613404 -0.127506
C147  C     C_R   0.499689 0.065422 0.613432 -0.127527
C148  C     C_R   1.000000 0.500000 0.929818 0.508319
C149  C     C_R   0.500000 0.000000 0.929809 0.508638
C150  C     C_R   0.500000 1.000000 0.429818 0.508324
C151  C     C_R   1.000000 0.500000 0.429809 0.508640
C152  C     C_R   0.500000 1.000000 0.099554 0.026503
C153  C     C_R   1.000000 0.500000 0.099573 0.026817
C154  C     C_R   0.000001 0.499999 0.599554 0.026502
C155  C     C_R   0.383805 0.059901 0.764332 -0.082797
C156  C     C_R   0.499997 0.000000 0.599573 0.026815
C157  C     C_R   0.500000 0.999999 0.154302 0.224159
C158  C     C_R   1.000000 0.500000 0.154311 0.226499
C159  C     C_R   0.000004 0.499997 0.654302 0.224139
C160  C     C_R   0.499992 0.000000 0.654311 0.226490
C161  C     C_R   0.860850 0.638360 0.000312 0.516367
C162  C     C_R   0.361612 0.860873 0.000302 0.515887
C163  C     C_R   0.139150 0.361640 0.000312 0.516367
C164  C     C_R   0.638388 0.139126 0.000302 0.515887
C165  C     C_R   0.139324 0.637942 0.000496 0.516257
C166  C     C_R   0.580648 0.897079 0.264283 -0.081417
C167  C     C_R   0.637927 0.860674 0.000502 0.516857
C168  C     C_R   0.860676 0.362058 0.000496 0.516257
C169  C     C_R   0.362073 0.139326 0.000502 0.516857
C170  C     C_R   0.360850 0.138360 0.500312 0.516368
C171  C     C_R   0.861612 0.360874 0.500302 0.515887
C172  C     C_R   0.639150 0.861639 0.500311 0.516368
C173  C     C_R   0.138388 0.639126 0.500302 0.515887
C174  C     C_R   0.639324 0.137942 0.500496 0.516258
C175  C     C_R   0.137927 0.360674 0.500502 0.516858
C176  C     C_R   0.360676 0.862058 0.500496 0.516258
H1    H     H_    0.726328 0.196732 0.018650 0.107077
H2    H     H_    0.303232 0.226318 0.518671 0.108364
H3    H     H_    0.773673 0.303267 0.518650 0.107077
H4    H     H_    0.696769 0.773682 0.518671 0.108363
H5    H     H_    0.751267 0.675330 0.503541 0.101321
H6    H     H_    0.675195 0.248743 0.503643 0.101026
H7    H     H_    0.248733 0.324670 0.503541 0.101321
H8    H     H_    0.324805 0.751257 0.503643 0.101026
H9    H     H_    0.112290 0.358183 0.775093 0.214705
H10   H     H_    0.660458 0.916780 0.775190 0.214815
H11   H     H_    0.887730 0.641822 0.775093 0.214707
H12   H     H_    0.803234 0.726321 0.018670 0.108361
H13   H     H_    0.339528 0.083221 0.775190 0.214816
H14   H     H_    0.612124 0.858060 0.275095 0.214707
H15   H     H_    0.160497 0.416843 0.275190 0.214814
H16   H     H_    0.387876 0.141939 0.275095 0.214707
H17   H     H_    0.839501 0.583155 0.275190 0.214814
H18   H     H_    0.885392 0.481190 0.849680 0.152169
H19   H     H_    0.504974 0.115995 0.849609 0.150443
H20   H     H_    0.114613 0.518807 0.849681 0.152169
H21   H     H_    0.495016 0.884005 0.849609 0.150442
H22   H     H_    0.385378 0.981267 0.349681 0.152154
H23   H     H_    0.273672 0.803268 0.018650 0.107077
H24   H     H_    0.004952 0.615996 0.349609 0.150433
H25   H     H_    0.614622 0.018732 0.349681 0.152154
H26   H     H_    0.995047 0.384004 0.349609 0.150433
H27   H     H_    0.884806 0.481792 0.897400 0.156384
H28   H     H_    0.504746 0.116560 0.897344 0.158442
H29   H     H_    0.115195 0.518207 0.897401 0.156385
H30   H     H_    0.495249 0.883440 0.897344 0.158442
H31   H     H_    0.384793 0.981866 0.397401 0.156395
H32   H     H_    0.004722 0.616561 0.397344 0.158441
H33   H     H_    0.615207 0.018133 0.397401 0.156395
H34   H     H_    0.196766 0.273679 0.018670 0.108361
H35   H     H_    0.995277 0.383439 0.397344 0.158441
H36   H     H_    0.384394 0.988900 0.150996 0.154732
H37   H     H_    0.000374 0.383901 0.151050 0.152707
H38   H     H_    0.615606 0.011098 0.150996 0.154732
H39   H     H_    0.999625 0.616099 0.151050 0.152707
H40   H     H_    0.884403 0.488843 0.650996 0.154760
H41   H     H_    0.500351 0.883901 0.651050 0.152722
H42   H     H_    0.115604 0.511153 0.650995 0.154763
H43   H     H_    0.499634 0.116100 0.651050 0.152722
H44   H     H_    0.383851 0.989289 0.103269 0.148945
H45   H     H_    0.251267 0.175331 0.003540 0.101317
H46   H     H_    0.000532 0.383345 0.103303 0.148752
H47   H     H_    0.616149 0.010710 0.103269 0.148945
H48   H     H_    0.999468 0.616655 0.103303 0.148752
H49   H     H_    0.883857 0.489234 0.603270 0.148947
H50   H     H_    0.500513 0.883345 0.603303 0.148755
H51   H     H_    0.116145 0.510764 0.603268 0.148949
H52   H     H_    0.499480 0.116655 0.603303 0.148756
H53   H     H_    0.638255 0.736771 0.200280 0.384915
H54   H     H_    0.204868 0.306219 0.194367 0.384083
H55   H     H_    0.361744 0.263227 0.200279 0.384916
H56   H     H_    0.175195 0.748743 0.003642 0.101023
H57   H     H_    0.795126 0.693778 0.194368 0.384082
H58   H     H_    0.138624 0.236910 0.700300 0.384897
H59   H     H_    0.704773 0.806138 0.694364 0.384028
H60   H     H_    0.861429 0.763090 0.700290 0.384902
H61   H     H_    0.295210 0.193867 0.694366 0.384018
H62   H     H_    0.748733 0.824669 0.003540 0.101317
H63   H     H_    0.824805 0.251257 0.003642 0.101023
H64   H     H_    0.226327 0.696733 0.518651 0.107076
N1    N     N_R   0.500000 0.999999 0.182337 -0.420335
N2    N     N_1   0.730869 0.601485 0.946751 -0.226863
N3    N     N_1   0.397945 0.731548 0.946501 -0.233731
N4    N     N_1   0.269131 0.398514 0.946751 -0.226863
N5    N     N_1   0.448181 0.310771 0.983128 -0.232734
N6    N     N_1   0.310795 0.552182 0.982649 -0.233013
N7    N     N_1   0.551819 0.689229 0.983128 -0.232734
N8    N     N_1   0.689205 0.447818 0.982649 -0.233013
N9    N     N_1   0.102060 0.768447 0.446499 -0.233732
N10   N     N_1   0.230882 0.101499 0.446746 -0.226885
N11   N     N_1   0.897940 0.231553 0.446499 -0.233733
N12   N     N_R   1.000000 0.500000 0.182331 -0.420797
N13   N     N_1   0.769117 0.898500 0.446745 -0.226886
N14   N     N_1   0.948175 0.810770 0.483121 -0.232733
N15   N     N_1   0.810794 0.052184 0.482646 -0.233015
N16   N     N_1   0.051824 0.189230 0.483122 -0.232734
N17   N     N_1   0.189206 0.947816 0.482646 -0.233015
N18   N     N_R   0.000005 0.499999 0.682337 -0.420329
N19   N     N_R   0.499992 0.000000 0.682331 -0.420795
N20   N     N_R   0.000004 0.499999 0.818339 -0.392192
N21   N     N_R   0.499994 0.000000 0.818346 -0.392732
N22   N     N_R   0.500000 0.999999 0.318340 -0.392194
N23   N     N_R   0.999999 0.500000 0.318346 -0.392734
N24   N     N_1   0.602055 0.268452 0.946501 -0.233730
O1    O     O_3   0.000000 0.500000 0.000300 -0.455491
O2    O     O_R   0.060090 0.500000 0.558350 -0.541427
O3    O     O_R   0.500000 0.060090 0.558350 -0.541591
O4    O     O_R   0.939910 0.500000 0.558350 -0.541425
O5    O     O_R   0.939640 0.500000 0.942260 -0.537235
O6    O     O_R   0.500000 0.939640 0.942260 -0.537461
O7    O     O_R   0.060360 0.500000 0.942260 -0.537236
O8    O     O_R   0.500000 0.060360 0.942260 -0.537461
O9    O     O_R   0.439640 0.000000 0.442260 -0.537239
O10   O     O_R   0.000000 0.439640 0.442260 -0.537461
O11   O     O_R   0.560360 0.000000 0.442260 -0.537239
O12   O     O_3   0.500000 1.000000 0.000300 -0.455701
O13   O     O_R   0.000000 0.560360 0.442260 -0.537461
O14   O     O_R   0.915140 0.644610 0.015520 -0.537477
O15   O     O_R   0.355390 0.915140 0.015520 -0.538348
O16   O     O_R   0.084860 0.355390 0.015520 -0.537477
O17   O     O_R   0.644610 0.084860 0.015520 -0.538348
O18   O     O_R   0.084860 0.644610 0.015520 -0.536743
O19   O     O_R   0.644610 0.915140 0.015520 -0.535982
O20   O     O_R   0.915140 0.355390 0.015520 -0.536743
O21   O     O_R   0.355390 0.084860 0.015520 -0.535982
O22   O     O_R   0.415140 0.144610 0.515520 -0.537475
O23   O     O_3   0.500000 0.000000 0.500300 -0.455492
O24   O     O_R   0.855390 0.415140 0.515520 -0.538348
O25   O     O_R   0.584860 0.855390 0.515520 -0.537475
O26   O     O_R   0.144610 0.584860 0.515520 -0.538348
O27   O     O_R   0.584860 0.144610 0.515520 -0.536742
O28   O     O_R   0.144610 0.415140 0.515520 -0.535978
O29   O     O_R   0.415140 0.855390 0.515520 -0.536742
O30   O     O_R   0.855390 0.584860 0.515520 -0.535978
O31   O     O_R   0.144340 0.415480 0.985090 -0.518354
O32   O     O_R   0.584520 0.144340 0.985090 -0.518504
O33   O     O_R   0.855660 0.584520 0.985090 -0.518354
O34   O     O_3   0.000000 0.500000 0.500300 -0.455702
O35   O     O_R   0.415480 0.855660 0.985090 -0.518504
O36   O     O_R   0.855660 0.415480 0.985090 -0.522368
O37   O     O_R   0.415480 0.144340 0.985090 -0.521291
O38   O     O_R   0.144340 0.584520 0.985090 -0.522368
O39   O     O_R   0.584520 0.855660 0.985090 -0.521291
O40   O     O_R   0.644340 0.915480 0.485090 -0.518355
O41   O     O_R   0.084520 0.644340 0.485090 -0.518504
O42   O     O_R   0.355660 0.084520 0.485090 -0.518355
O43   O     O_R   0.915480 0.355660 0.485090 -0.518504
O44   O     O_R   0.355660 0.915480 0.485090 -0.522366
O45   O     O_R   0.000000 0.439910 0.058350 -0.541592
O46   O     O_R   0.915480 0.644340 0.485090 -0.521294
O47   O     O_R   0.644340 0.084520 0.485090 -0.522366
O48   O     O_R   0.084520 0.355660 0.485090 -0.521294
O49   O     O_2   0.438808 0.109809 0.181312 -0.386742
O50   O     O_2   0.882350 0.543716 0.181095 -0.386480
O51   O     O_2   0.561192 0.890190 0.181312 -0.386742
O52   O     O_2   0.117650 0.456285 0.181096 -0.386480
O53   O     O_2   0.938724 0.609761 0.681314 -0.386744
O54   O     O_2   0.382354 0.043751 0.681096 -0.386478
O55   O     O_2   0.061286 0.390235 0.681315 -0.386736
O56   O     O_R   0.560090 0.000000 0.058350 -0.541428
O57   O     O_2   0.617630 0.956251 0.681096 -0.386483
O58   O     O_2   0.075088 0.397635 0.818620 -0.470763
O59   O     O_2   0.613881 0.944098 0.818684 -0.469835
O60   O     O_2   0.924921 0.602363 0.818620 -0.470764
O61   O     O_2   0.386107 0.055903 0.818685 -0.469834
O62   O     O_2   0.574983 0.897562 0.318621 -0.470759
O63   O     O_2   0.113907 0.444139 0.318684 -0.469832
O64   O     O_2   0.425017 0.102436 0.318621 -0.470759
O65   O     O_2   0.886092 0.555860 0.318685 -0.469832
O66   O     O_2   0.691921 0.873989 0.203215 -0.232088
O67   O     O_R   0.000000 0.560090 0.058350 -0.541592
O68   O     O_2   0.694133 0.802605 0.243195 -0.230406
O69   O     O_3   0.600459 0.768120 0.207917 -0.438921
O70   O     O_2   0.240180 0.443573 0.209149 -0.205144
O71   O     O_2   0.235100 0.352460 0.243479 -0.230069
O72   O     O_3   0.161014 0.329330 0.201598 -0.461330
O73   O     O_2   0.308079 0.126009 0.203215 -0.232089
O74   O     O_2   0.305866 0.197393 0.243195 -0.230405
O75   O     O_3   0.399540 0.231878 0.207917 -0.438920
O76   O     O_2   0.759819 0.556422 0.209149 -0.205145
O77   O     O_2   0.764894 0.647533 0.243479 -0.230069
O78   O     O_R   0.439910 0.000000 0.058350 -0.541428
O79   O     O_3   0.838981 0.670669 0.201599 -0.461326
O80   O     O_2   0.192059 0.374238 0.703204 -0.232085
O81   O     O_2   0.194423 0.302891 0.743192 -0.230456
O82   O     O_3   0.100780 0.268221 0.707927 -0.438868
O83   O     O_2   0.740155 0.943468 0.709151 -0.205150
O84   O     O_2   0.735024 0.852350 0.743478 -0.230112
O85   O     O_3   0.660930 0.829268 0.701595 -0.461338
O86   O     O_2   0.807960 0.625786 0.703208 -0.232089
O87   O     O_2   0.805625 0.697146 0.743193 -0.230436
O88   O     O_3   0.899267 0.731782 0.707923 -0.438876
O89   O     O_R   0.500000 0.939910 0.558350 -0.541591
O90   O     O_2   0.259830 0.056531 0.709152 -0.205148
O91   O     O_2   0.264961 0.147649 0.743479 -0.230133
O92   O     O_3   0.339053 0.170732 0.701596 -0.461332
S1    S     S_3+6 0.645843 0.835014 0.222769 0.086728
S2    S     S_3+6 0.191842 0.390882 0.222941 0.089138
S3    S     S_3+6 0.354157 0.164984 0.222769 0.086729
S4    S     S_3+6 0.808155 0.609114 0.222941 0.089139
S5    S     S_3+6 0.146062 0.335203 0.722767 0.086739
S6    S     S_3+6 0.691787 0.890800 0.722940 0.089102
S7    S     S_3+6 0.853972 0.664816 0.722767 0.086741
S8    S     S_3+6 0.308197 0.109200 0.722941 0.089092
Zn1   Zn    Zn3+2 0.913860 0.500000 0.978560 0.979513
Zn2   Zn    Zn3+2 0.414170 0.000000 0.022050 0.956758
Zn3   Zn    Zn3+2 0.000000 0.414170 0.022050 0.956641
Zn4   Zn    Zn3+2 0.585830 0.000000 0.022050 0.956758
Zn5   Zn    Zn3+2 0.500000 0.085830 0.522050 0.956645
Zn6   Zn    Zn3+2 0.914170 0.500000 0.522050 0.956763
Zn7   Zn    Zn3+2 0.500000 0.914170 0.522050 0.956645
Zn8   Zn    Zn3+2 0.085830 0.500000 0.522050 0.956763
Zn9   Zn    Zn3+2 0.500000 0.913860 0.978560 0.980025
Zn10  Zn    Zn3+2 0.086140 0.500000 0.978560 0.979512
Zn11  Zn    Zn3+2 0.500000 0.086140 0.978560 0.980025
Zn12  Zn    Zn3+2 0.413860 0.000000 0.478560 0.979514
Zn13  Zn    Zn3+2 1.000000 0.413860 0.478560 0.980025
Zn14  Zn    Zn3+2 0.586140 0.000000 0.478560 0.979514
Zn15  Zn    Zn3+2 0.000000 0.586140 0.478560 0.980025
Zn16  Zn    Zn3+2 1.000000 0.585830 0.022050 0.956641

loop_
_geom_bond_atom_site_label_1
_geom_bond_atom_site_label_2
_ccdc_geom_bond_type
C101  O63   S    
H57   O79   S    
O70   S2    D    
C8    C26   D    
C112  H26   S    
C132  C141  A    
C15   C32   D    
C7    C73   S    
C175  O28   A    
C79   C99   A    
C161  O14   A    
O40   Zn14  S    
C146  H51   S    
C87   C94   A    
C139  C152  A    
C61   C166  A    
C64   S4    S    
C1    O45   A    
C131  C140  A    
C19   C37   D    
C139  H44   S    
C172  O40   A    
C89   O78   A    
C18   C84   S    
O74   S3    D    
C102  N22   A    
C112  C129  A    
C47   C53   A    
O36   Zn1   S    
O37   Zn11  S    
C21   H1    S    
O47   Zn14  S    
C33   H4    S    
C72   N3    T    
O18   Zn16  S    
C81   N11   T    
C165  O18   A    
C109  C118  A    
O1    Zn1   S    
C56   C93   A    
O25   Zn7   S    
C135  C159  A    
C51   C64   A    
C137  C146  A    
C171  O24   A    
C112  C120  A    
C74   N5    T    
C120  C125  A    
C143  C154  A    
C106  H20   S    
C136  H41   S    
C31   H2    S    
C3    C34   S    
C96   O59   S    
C134  H39   S    
C62   S2    S    
C131  C158  A    
C86   N17   T    
C37   C175  S    
C105  C114  A    
C43   C54   A    
C38   C176  S    
C146  C154  A    
C57   C97   A    
C12   C20   S    
C8    C74   S    
C59   C91   A    
C65   C122  A    
O77   S4    D    
O87   S7    D    
C27   C165  S    
C17   C34   D    
C49   C62   A    
C14   C19   S    
C35   C122  A    
C176  O29   A    
C3    O30   A    
C30   H64   S    
C19   C85   S    
C24   C90   A    
C88   C102  A    
C162  O15   A    
O14   Zn16  S    
C31   C170  S    
C132  C157  A    
C106  C115  A    
O48   Zn13  S    
C107  C127  A    
C44   C55   A    
C140  H46   S    
C68   C92   A    
C69   S8    S    
C113  H27   S    
C22   H12   S    
C151  O10   A    
C68   C98   A    
O10   Zn13  S    
C1    O67   A    
C138  C160  A    
O39   Zn9   S    
C46   C96   A    
C167  O39   A    
C42   O52   S    
O24   Zn6   S    
C33   C172  S    
C45   O55   S    
C116  H30   S    
C52   C65   A    
C167  O19   A    
O1    Zn3   S    
C15   C18   S    
C173  O26   A    
C115  C121  A    
C116  C123  A    
C131  H37   S    
C14   C31   D    
C6    C9    S    
C7    C8    S    
C70   N24   T    
C130  C157  A    
C29   C168  S    
C89   O56   A    
C149  O6    A    
O30   Zn6   S    
O56   Zn4   S    
O26   Zn8   S    
C37   H7    S    
C176  O44   A    
O1    Zn16  S    
C38   H8    S    
C169  O37   A    
C125  C151  S    
C87   C101  A    
C89   C152  S    
C103  O65   S    
O71   S2    D    
O89   Zn7   S    
C155  H13   S    
C135  C143  A    
C80   N10   T    
C50   C63   A    
C67   S7    S    
O16   Zn3   S    
C143  H49   S    
C53   C60   A    
C54   C59   A    
C60   C92   A    
C95   N20   A    
C111  O2    A    
C105  C127  A    
C83   N14   T    
O8    Zn11  S    
C175  O48   A    
C45   C52   A    
C160  N19   S    
C50   C56   A    
C41   N1    A    
O13   Zn15  S    
C135  H40   S    
C2    C87   A    
C108  C128  A    
C55   C69   A    
C75   N6    T    
C141  H47   S    
O66   S1    D    
C114  C123  A    
O44   Zn12  S    
C63   S3    S    
C134  C158  A    
O19   Zn4   S    
C174  O27   A    
C109  C129  A    
C3    O46   A    
C114  H28   S    
C39   O49   S    
O68   S1    D    
O15   Zn2   S    
C57   C144  A    
C108  C117  A    
C71   N2    T    
C110  C119  A    
C138  H43   S    
C163  O31   A    
C40   C51   A    
O7    Zn10  S    
C173  O41   A    
C44   O54   S    
C101  N23   A    
C17   C83   S    
C73   N4    T    
C170  O42   A    
O76   S4    D    
C25   H34   S    
C107  C116  A    
C104  C113  A    
C136  C160  A    
C27   H56   S    
O32   Zn11  S    
C113  C121  A    
C41   O51   S    
C110  C128  A    
C104  H18   S    
C43   N18   A    
C162  O35   A    
C97   N20   A    
C39   N1    A    
O22   Zn5   S    
O46   Zn15  S    
O11   Zn14  S    
C36   C174  S    
O69   S1    S    
O83   S6    D    
C68   C155  A    
C4    C70   S    
C6    C72   S    
O91   S8    D    
O82   S5    S    
C13   H16   S    
O75   S3    S    
C169  O21   A    
O78   Zn2   S    
C117  C124  A    
C158  N12   S    
C100  O89   A    
C40   N12   A    
C46   C92   A    
C67   C144  A    
C168  O36   A    
C43   O53   S    
C34   H5    S    
C48   C56   A    
O5    Zn1   S    
O17   Zn4   S    
C28   H62   S    
C165  O38   A    
C145  C156  A    
C47   N19   A    
C16   C17   S    
C20   C86   S    
C118  C125  A    
C128  N22   S    
C140  C153  A    
C23   C162  S    
C100  C156  S    
C151  O13   A    
C42   N12   A    
C24   C64   A    
C21   C164  S    
O33   Zn1   S    
C55   C60   A    
C148  O7    A    
C130  C139  A    
C148  O5    A    
C97   O60   S    
O23   Zn7   S    
C90   C94   A    
C95   O58   S    
O4    Zn6   S    
O20   Zn3   S    
C119  H33   S    
C137  C159  A    
C45   N18   A    
C2    H15   S    
C149  O8    A    
C107  H21   S    
C47   O57   S    
O72   S2    S    
C134  C142  A    
O6    Zn9   S    
C84   N15   T    
C121  C148  S    
C51   C58   A    
C150  O11   A    
C4    C11   S    
C1    C153  S    
C147  C156  A    
O12   Zn2   S    
O84   S6    D    
H58   O82   S    
C32   C171  S    
O43   Zn13  S    
C76   N7    T    
C36   H6    S    
O31   Zn10  S    
C164  O32   A    
C9    C27   D    
O73   S3    D    
C10   C28   D    
C22   C161  S    
C124  C150  S    
C85   N16   T    
C57   C91   A    
C12   C30   D    
C117  H31   S    
C35   C95   A    
C145  H50   S    
C106  C126  A    
C7    C25   D    
C77   N8    T    
C5    C71   S    
C46   C133  A    
O80   S5    D    
C164  O17   A    
O27   Zn5   S    
C108  H22   S    
O3    Zn5   S    
C90   C103  A    
C40   O50   S    
C172  O25   A    
O81   S5    D    
C78   N9    T    
C109  H24   S    
C129  N23   S    
C18   C36   D    
O23   Zn5   S    
C61   S1    S    
C123  C149  S    
C96   N21   A    
C130  H36   S    
C150  O9    A    
C161  O33   A    
O90   S8    D    
C15   C81   S    
C119  C124  A    
C171  O43   A    
C69   C155  A    
C110  H25   S    
O42   Zn12  S    
C66   S6    S    
C111  O4    A    
C79   C93   A    
C163  O16   A    
O41   Zn15  S    
C23   H23   S    
O38   Zn10  S    
C157  N1    S    
C28   C167  S    
O12   Zn4   S    
C10   C76   S    
O34   Zn6   S    
C5    C22   D    
C26   C169  S    
C13   C63   A    
C137  H42   S    
C32   H3    S    
C14   C80   S    
C11   C77   S    
C30   C173  S    
C136  C145  A    
O9    Zn12  S    
O45   Zn3   S    
C120  H35   S    
H59   O85   S    
C142  C153  A    
C25   C163  S    
O1    Zn10  S    
C170  O22   A    
C142  H48   S    
O12   Zn9   S    
H61   O92   S    
O34   Zn15  S    
O23   Zn12  S    
O86   S7    D    
O92   S8    S    
O67   Zn16  S    
O21   Zn2   S    
C99   N22   A    
C168  O20   A    
C122  H9    S    
C54   C67   A    
C98   O61   S    
H54   O72   S    
C49   C58   A    
C127  N21   S    
C12   C78   S    
C166  H14   S    
C174  O47   A    
C118  H32   S    
C52   C59   A    
O85   S6    S    
C66   C133  A    
C20   C38   D    
C138  C147  A    
C26   H45   S    
C16   C82   S    
C82   N13   T    
C53   C66   A    
C11   C29   D    
H53   O69   S    
C133  H10   S    
C99   O62   S    
O88   S7    S    
O35   Zn9   S    
C159  N18   S    
C102  O64   S    
C115  H29   S    
H60   O88   S    
C132  H38   S    
O28   Zn8   S    
O2    Zn8   S    
O34   Zn8   S    
C105  H19   S    
C88   C93   A    
O23   Zn14  S    
C147  H52   S    
O29   Zn7   S    
C100  O3    A    
C126  N20   S    
C58   C94   A    
C5    C10   S    
C16   C33   D    
C44   N19   A    
C4    C21   D    
C98   N21   A    
C48   C61   A    
C24   H17   S    
C6    C23   D    
C13   C88   A    
C65   S5    S    
C41   C48   A    
C29   H63   S    
C79   C166  A    
C111  C154  S    
C42   C49   A    
O79   S4    S    
C39   C50   A    
C104  C126  A    
C141  C152  A    
H55   O75   S    
C103  N23   A    
C9    C75   S    
C144  H11   S    
O12   Zn11  S    
C2    C62   A    
O34   Zn13  S    
C35   C91   A    
