data_mof_unit_35111.cif
_audit_creation_date              2013-03-05T15:52:46-0500
_audit_creation_method            fapswitch 2.2
_symmetry_space_group_name_H-M    P1
_symmetry_Int_Tables_number       1
_space_group_crystal_system       triclinic
_cell_length_a                    6.941545
_cell_length_b                    14.777846
_cell_length_c                    21.343217
_cell_angle_alpha                 74.808004
_cell_angle_beta                  90.251021
_cell_angle_gamma                 90.519576
_cell_volume                      2112.80580254

loop_
_atom_site_label
_atom_site_type_symbol
_atom_site_description
_atom_site_fract_x
_atom_site_fract_y
_atom_site_fract_z
_atom_type_partial_charge
O1    O     O_R   0.648150 0.130050 0.214300 -0.605478
O2    O     O_R   0.351850 0.869950 0.785700 -0.605476
O3    O     O_R   0.320490 0.006660 0.340150 -0.568820
O4    O     O_R   0.679510 0.993340 0.659850 -0.568830
O5    O     O_R   0.146100 0.869940 0.285700 -0.584317
O6    O     O_R   0.853900 0.130060 0.714300 -0.584320
C1    C     C_R   0.489267 0.002201 0.366752 1.113072
C2    C     C_R   0.510733 0.997801 0.633248 1.113087
O7    O     O_R   0.318690 0.137980 0.218120 -0.582951
O8    O     O_R   0.681310 0.862020 0.781880 -0.582952
O9    O     O_R   0.144280 0.002190 0.162800 -0.603328
O10   O     O_R   0.855720 0.997810 0.837200 -0.603331
C3    C     C_R   0.488044 0.175557 0.205827 0.953181
C4    C     C_R   0.511956 0.824443 0.794174 0.953186
O11   O     O_R   0.649960 0.997790 0.337200 -0.609903
O12   O     O_R   0.350040 0.002210 0.662800 -0.609908
O13   O     O_3   0.479300 0.955290 0.231990 -0.276330
O14   O     O_3   0.520700 0.044710 0.768010 -0.276332
V1    V     V_3+5 0.206040 0.008290 0.253340 1.237791
V2    V     V_3+5 0.793960 0.991710 0.746660 1.237783
O15   O     O_R   0.814320 0.993320 0.159850 -0.597352
O16   O     O_R   0.185680 0.006680 0.840150 -0.597351
C5    C     C_R   0.982916 0.998395 0.132818 0.915672
C6    C     C_R   0.017084 0.001604 0.867182 0.915680
O17   O     O_R   0.816120 0.862000 0.281880 -0.588646
O18   O     O_R   0.183880 0.138000 0.718120 -0.588640
C7    C     C_R   0.984201 0.824388 0.294204 0.997877
C8    C     C_R   0.015799 0.175612 0.705795 0.997868
V3    V     V_3+5 0.705540 0.991700 0.246660 1.213207
V4    V     V_3+5 0.294460 0.008300 0.753340 1.213206
O19   O     O_3   0.982150 0.044700 0.268010 -0.268476
O20   O     O_3   0.017850 0.955300 0.731990 -0.268477
C9    C     C_R   0.989407 0.722862 0.321705 -0.166317
C10   C     C_R   0.010594 0.277137 0.678294 -0.166320
C11   C     C_R   0.957853 0.565438 0.308240 0.566450
C12   C     C_R   0.042167 0.434561 0.691758 0.566418
C13   C     C_R   0.965284 0.662890 0.281622 -0.250733
C14   C     C_R   0.034729 0.337110 0.718376 -0.250739
C15   C     C_R   0.006104 0.686748 0.388777 -0.186534
C16   C     C_R   0.993891 0.313252 0.611222 -0.186512
C17   C     C_R   0.996258 0.589016 0.417901 0.038062
C18   C     C_R   0.003752 0.410983 0.582097 0.038071
C19   C     C_R   0.971515 0.528590 0.376311 0.029308
C20   C     C_R   0.028505 0.471409 0.623687 0.029334
C21   C     C_R   0.007491 0.549645 0.486819 0.082697
C22   C     C_R   0.992525 0.450354 0.513180 0.082677
C23   C     C_R   0.967293 0.393680 0.469737 -0.141991
C24   C     C_R   0.032735 0.606318 0.530261 -0.142069
C25   C     C_R   0.958177 0.431867 0.403173 -0.102712
C26   C     C_R   0.041855 0.568132 0.596825 -0.102743
H1    H     H_    0.938725 0.384347 0.372608 0.196588
H2    H     H_    0.061319 0.615651 0.627389 0.196582
H3    H     H_    0.978097 0.262430 0.583455 0.155521
H4    H     H_    0.021880 0.737570 0.416545 0.155552
H5    H     H_    0.048906 0.307815 0.770339 0.153373
H6    H     H_    0.951109 0.692185 0.229659 0.153330
H7    H     H_    0.953339 0.318679 0.485324 0.170420
H8    H     H_    0.046703 0.681319 0.514673 0.170442
C27   C     C_3   0.820739 0.993337 0.977717 -0.084375
C28   C     C_3   0.179260 0.006660 0.022284 -0.084378
C29   C     C_3   0.917769 0.919555 0.033890 -0.130509
C30   C     C_3   0.082231 0.080442 0.966111 -0.130525
H9    H     H_    0.850195 0.853182 0.062185 0.167550
H10   H     H_    0.149804 0.146815 0.937816 0.167583
H11   H     H_    0.672484 0.987866 0.959219 0.124631
H12   H     H_    0.327516 0.012131 0.040781 0.124635
C31   C     C_3   0.992362 0.998983 0.062186 -0.102215
C32   C     C_3   0.007638 0.001015 0.937814 -0.102224
C33   C     C_3   0.895431 0.072793 0.006793 -0.126386
C34   C     C_3   0.104568 0.927205 0.993207 -0.126383
H13   H     H_    0.808893 0.132801 0.012751 0.120137
H14   H     H_    0.191106 0.867196 0.987249 0.120139
C35   C     C_3   0.683639 0.991990 0.479176 -0.412277
C36   C     C_3   0.316363 0.008014 0.520823 -0.412120
C37   C     C_3   0.606777 0.069972 0.508787 0.489586
C38   C     C_3   0.393226 0.930032 0.491212 0.489576
H15   H     H_    0.834022 0.985842 0.463336 0.200685
H16   H     H_    0.165979 0.014162 0.536663 0.200649
C39   C     C_3   0.502121 0.997508 0.563367 -0.380060
C40   C     C_3   0.497880 0.002496 0.436632 -0.380046
C41   C     C_3   0.574706 0.919805 0.533455 0.302748
C42   C     C_3   0.425298 0.080199 0.466544 0.302890
C43   C     C_R   0.498612 0.276898 0.178102 -0.117110
C44   C     C_R   0.501386 0.723102 0.821899 -0.117104
C45   C     C_R   0.526198 0.433152 0.191673 -0.056306
C46   C     C_R   0.473791 0.566848 0.808326 -0.056331
C47   C     C_R   0.521709 0.336666 0.218280 -0.117407
C48   C     C_R   0.478295 0.663335 0.781720 -0.117408
C49   C     C_R   0.486810 0.313315 0.110905 -0.214579
C50   C     C_R   0.513176 0.686685 0.889096 -0.214594
C51   C     C_R   0.497941 0.411229 0.081966 0.125292
C52   C     C_R   0.502017 0.588772 0.918034 0.125296
C53   C     C_R   0.509574 0.471770 0.124008 -0.039731
C54   C     C_R   0.490380 0.528231 0.875992 -0.039738
C55   C     C_R   0.497254 0.450373 0.013004 0.023384
C56   C     C_R   0.502684 0.549627 0.986997 0.023379
C57   C     C_R   0.504300 0.606845 0.030696 -0.308928
C58   C     C_R   0.495608 0.393155 0.969304 -0.308916
C59   C     C_R   0.507262 0.569565 0.097828 0.325397
C60   C     C_R   0.492649 0.430436 0.902173 0.325429
H17   H     H_    0.532816 0.737242 0.916899 0.097137
H18   H     H_    0.467185 0.262755 0.083103 0.097131
H19   H     H_    0.465158 0.691344 0.729661 0.161242
H20   H     H_    0.534860 0.308656 0.270338 0.161239
H21   H     H_    0.545271 0.476929 0.224686 0.183433
H22   H     H_    0.454737 0.523071 0.775313 0.183431
H23   H     H_    0.497500 0.682029 0.014471 0.164152
H24   H     H_    0.502369 0.317970 0.985528 0.164133
N1    N     N_R   0.653330 0.829444 0.568235 0.239433
O21   O     O_R   0.704103 0.769800 0.536250 -0.398499
O22   O     O_R   0.673979 0.807921 0.630951 -0.444313
N2    N     N_R   0.346682 0.170562 0.431764 0.239448
O23   O     O_R   0.295985 0.230221 0.463746 -0.398476
O24   O     O_R   0.325968 0.192072 0.369050 -0.444307
N3    N     N_R   0.501156 0.632858 0.138743 0.226750
O25   O     O_R   0.606807 0.708637 0.124933 -0.446915
O26   O     O_R   0.366832 0.623736 0.182364 -0.415284
N4    N     N_R   0.498706 0.367143 0.861258 0.226743
O27   O     O_R   0.392935 0.291404 0.875048 -0.446947
O28   O     O_R   0.633083 0.376220 0.817659 -0.415266
O29   O     O_3   0.935049 0.505231 0.268824 -0.764363
H25   H     H_    0.927447 0.542347 0.222862 0.336017
O30   O     O_3   0.064978 0.494768 0.731174 -0.764372
H26   H     H_    0.072576 0.457653 0.777136 0.336028
O31   O     O_3   0.716634 0.145010 0.518299 -0.740004
H27   H     H_    0.769982 0.176595 0.475015 0.322268
O32   O     O_3   0.283358 0.854996 0.481702 -0.740011
H28   H     H_    0.230479 0.823249 0.525025 0.322283

loop_
_geom_bond_atom_site_label_1
_geom_bond_atom_site_label_2
_geom_bond_distance
_ccdc_geom_bond_type
C29   C34   1.550432 S    
C43   C47   1.390817 A    
C49   H18   1.076444 S    
C17   C19   1.423435 A    
C52   C54   1.425096 A    
C55   C56   1.425960 A    
C4    C44   1.460229 S    
O4    C2    1.294311 A    
V1    O19   1.706056 S    
N2    O24   1.299791 A    
C55   C58   1.413548 A    
O30   H26   0.991967 S    
C23   C25   1.385819 A    
C21   C22   1.430178 A    
C7    C9    1.461532 S    
O9    V1    2.002370 S    
C9    C15   1.395290 A    
C44   C50   1.395895 A    
C10   C16   1.395291 A    
C11   C13   1.403377 A    
O3    C1    1.294312 A    
N1    O22   1.299798 A    
C59   N3    1.438184 S    
C46   C48   1.389791 A    
C15   H4    1.076344 S    
C51   C53   1.425104 A    
O12   V4    1.997370 S    
N3    O25   1.301075 A    
C52   C56   1.433477 A    
C58   H24   1.075054 S    
C28   C30   1.549520 S    
C18   C22   1.435094 A    
C5    C31   1.506966 S    
C33   H13   1.110344 S    
O7    C3    1.293713 A    
N4    O27   1.301070 A    
C30   H10   1.109267 S    
C46   C54   1.411549 A    
O5    C7    1.293485 A    
C13   H6    1.084114 S    
C45   C53   1.411554 A    
O7    V1    2.018057 S    
O6    C8    1.293486 A    
C14   H5    1.084110 S    
C28   C31   1.541975 S    
O8    V2    2.018057 S    
N3    O26   1.301501 A    
C2    C39   1.493572 S    
C26   H2    1.083752 S    
O3    V1    2.007158 S    
O14   V4    1.709542 S    
C28   C34   1.549416 S    
C49   C51   1.418138 A    
C11   C19   1.414696 A    
C53   C59   1.406472 A    
C24   C26   1.385817 A    
C28   H12   1.110471 S    
C2    O12   1.294349 A    
C35   C37   1.551756 S    
C46   H22   1.081202 S    
C18   C20   1.423436 A    
C36   C42   1.548291 S    
C45   H21   1.081199 S    
C35   C41   1.548284 S    
N2    O23   1.300079 A    
C57   C59   1.393952 A    
O11   V3    1.997370 S    
C45   C47   1.389793 A    
O17   V3    2.023476 S    
C43   C49   1.395892 A    
C27   C29   1.549520 S    
C44   C48   1.390817 A    
C11   O29   1.383121 S    
C12   O30   1.383122 S    
C40   C42   1.541918 S    
O8    C4    1.293712 A    
C39   C41   1.541913 S    
C19   C25   1.396039 A    
C1    O11   1.294349 A    
C25   H1    1.083751 S    
O15   V3    1.998082 S    
C9    C13   1.392403 A    
C30   C33   1.550430 S    
C37   O31   1.397747 S    
C57   H23   1.075056 S    
C50   H17   1.076444 S    
C27   C32   1.541977 S    
C23   H7    1.074064 S    
C29   C31   1.538948 S    
C50   C52   1.418135 A    
C54   C60   1.406464 A    
C56   C57   1.413544 A    
O10   V2    2.002370 S    
C29   H9    1.109270 S    
O29   H25   0.991966 S    
C36   C38   1.551754 S    
C27   C33   1.549413 S    
C41   N1    1.456764 S    
O18   V4    2.023476 S    
C58   C60   1.393940 A    
C36   C39   1.559089 S    
O15   C5    1.299921 A    
O31   H27   0.991117 S    
O16   C6    1.299923 A    
C12   C20   1.414693 A    
O1    C3    1.291583 A    
O32   H28   0.991124 S    
C48   H19   1.083019 S    
V2    O20   1.706058 S    
C21   C24   1.412342 A    
C20   C26   1.396040 A    
O10   C6    1.295641 A    
C22   C23   1.412343 A    
C35   H15   1.110482 S    
O16   V4    1.998077 S    
C10   C14   1.392403 A    
C38   C40   1.539811 S    
C16   C18   1.415984 A    
C38   C41   1.531268 S    
C37   C42   1.531261 S    
C24   H8    1.074064 S    
O5    V1    2.019205 S    
O17   C7    1.293005 A    
O6    V2    2.019205 S    
C3    C43   1.460231 S    
O18   C8    1.293006 A    
C30   C32   1.538946 S    
O2    V4    2.021891 S    
C12   C14   1.403373 A    
V3    O19   2.158700 S    
O13   V3    1.709543 S    
C27   H11   1.110472 S    
V4    O20   2.158698 S    
O1    V3    2.021889 S    
O9    C5    1.295642 A    
O13   V1    2.154225 S    
C35   C40   1.559092 S    
O14   V2    2.154223 S    
O2    C4    1.291582 A    
N4    O28   1.301501 A    
C6    C32   1.506967 S    
C8    C10   1.461530 S    
C47   H20   1.083024 S    
O4    V2    2.007161 S    
C60   N4    1.438164 S    
C15   C17   1.415985 A    
C51   C55   1.433471 A    
C32   C34   1.539702 S    
C16   H3    1.076345 S    
C36   H16   1.110483 S    
C38   O32   1.397745 S    
C17   C21   1.435091 A    
C34   H14   1.110344 S    
C31   C33   1.539701 S    
N1    O21   1.300082 A    
C37   C39   1.539810 S    
C42   N2    1.456766 S    
C1    C40   1.493564 S    
