data_mof_unit_65902.cif
_audit_creation_date              2012-10-26T19:20:18-0400
_audit_creation_method            fapswitch 2.2
_symmetry_space_group_name_H-M    P1
_symmetry_Int_Tables_number       1
_space_group_crystal_system       triclinic
_cell_length_a                    15.845088
_cell_length_b                    10.917102
_cell_length_c                    9.74529
_cell_angle_alpha                 90.630955
_cell_angle_beta                  90.931809
_cell_angle_gamma                 90.915152
_cell_volume                      1685.21900963

loop_
_atom_site_label
_atom_site_type_symbol
_atom_type_description
_atom_site_fract_x
_atom_site_fract_y
_atom_site_fract_z
_atom_type_partial_charge
C1    C     C_R   0.502171 0.265624 0.498904 0.576169
C2    C     C_2   0.474880 0.863336 0.504370 0.265750
C3    C     C_2   0.474027 0.064943 0.396590 0.274487
C4    C     C_R   0.340024 0.499690 0.499041 0.544009
C5    C     C_2   0.514116 0.133592 0.494906 0.325954
C6    C     C_2   0.447879 0.435194 0.923069 0.246392
C7    C     C_2   0.436748 0.460784 0.074646 0.417605
C8    C     C_R   0.494536 0.733874 0.500844 0.532621
C9    C     C_R   0.660027 0.500081 0.500954 0.523476
C10   C     C_3   0.972443 0.412230 0.585802 0.093964
C11   C     C_3   0.026061 0.388301 0.457232 0.094135
C12   C     C_3   0.083211 0.498264 0.498285 -0.023973
C13   C     C_1   0.250401 0.499023 0.497194 0.023011
C14   C     C_1   0.749757 0.499778 0.502747 0.014540
C15   C     C_3   0.030651 0.522190 0.626871 0.099552
C16   C     C_3   0.647541 0.132331 0.591402 -0.095621
C17   C     C_3   0.609933 0.624729 0.881958 -0.009929
C18   C     C_3   0.300186 0.515758 0.095078 -0.058232
C19   C     C_3   0.356456 0.880442 0.631855 -0.076043
C20   C     C_3   0.369748 0.041558 0.224884 -0.073221
C21   C     C_3   0.974340 0.609070 0.542408 0.096165
C22   C     C_3   0.917091 0.499108 0.501357 -0.023778
C23   C     C_3   0.027926 0.585093 0.413835 0.088922
C24   C     C_3   0.969725 0.475147 0.372768 0.095470
C25   C     C_1   0.174871 0.498481 0.497066 0.025654
C26   C     C_1   0.825342 0.499494 0.502718 0.027546
C27   C     C_2   0.489068 0.932077 0.393875 -0.113021
Cu1   Cu    Cu3+1 0.500020 0.500020 0.638630 1.029696
Cu2   Cu    Cu3+1 0.499980 0.499980 0.361370 1.029549
H1    H     H_    0.557711 0.503459 0.109626 0.206086
H2    H     H_    0.319880 0.609797 0.129221 0.124305
H3    H     H_    0.240120 0.492954 0.146674 0.180180
H4    H     H_    0.348328 0.780022 0.646136 0.131389
H5    H     H_    0.319838 0.910410 0.540085 0.110009
H6    H     H_    0.329735 0.926821 0.722812 0.177044
H7    H     H_    0.330334 0.988253 0.297276 0.117037
H8    H     H_    0.404425 0.979745 0.155019 0.129092
H9    H     H_    0.326343 0.096171 0.160391 0.196677
H10   H     H_    0.511010 0.891356 0.298963 0.102400
H11   H     H_    0.648668 0.223798 0.642553 0.145606
H12   H     H_    0.672265 0.139044 0.485303 0.107958
H13   H     H_    0.690925 0.073061 0.650319 0.180936
H14   H     H_    0.620698 0.674849 0.785477 0.183685
H15   H     H_    0.645496 0.537438 0.883544 0.122804
H16   H     H_    0.636298 0.683174 0.966590 0.119187
H17   H     H_    0.287270 0.513782 0.982544 0.140535
I1    I     I_    0.070935 0.214088 0.389939 -0.186180
I2    I     I_    0.373418 0.286024 0.842932 -0.219946
I3    I     I_    0.924836 0.275704 0.721625 -0.207061
I4    I     I_    0.918375 0.438127 0.171738 -0.193887
I5    I     I_    0.076038 0.720981 0.277612 -0.245191
I6    I     I_    0.930305 0.783722 0.609683 -0.203850
I7    I     I_    0.082800 0.558810 0.827560 -0.227838
N1    N     N_2   0.499090 0.498660 0.846910 -0.082838
N2    N     N_2   0.499070 0.498630 0.153040 -0.308159
O1    O     O_R   0.500010 0.321960 0.617040 -0.486596
O2    O     O_3   0.522954 0.607483 0.903719 -0.516962
O3    O     O_3   0.360853 0.428709 0.133271 -0.515139
O4    O     O_3   0.442420 0.914482 0.623072 -0.509911
O5    O     O_3   0.425967 0.122792 0.295154 -0.553699
O6    O     O_R   0.499990 0.321920 0.382900 -0.454989
O7    O     O_R   0.379090 0.500010 0.617050 -0.492814
O8    O     O_R   0.379060 0.499970 0.382910 -0.448232
O9    O     O_R   0.500010 0.678080 0.617100 -0.455692
O10   O     O_R   0.499990 0.678040 0.382960 -0.535382
O11   O     O_R   0.620940 0.500030 0.617090 -0.533195
O12   O     O_R   0.620910 0.499990 0.382950 -0.501218
O13   O     O_3   0.565815 0.078931 0.592844 -0.546999

loop_
_geom_bond_atom_site_label_1
_geom_bond_atom_site_label_2
_ccdc_geom_bond_type
Cu1   O11   S    
C9    C14   S    
C9    O12   A    
C2    C8    S    
C6    C7    S    
C16   O13   S    
C16   H13   S    
C9    O11   A    
C20   O5    S    
C20   H9    S    
H1    N2    S    
C7    O3    S    
C23   I5    S    
C4    O8    A    
C12   C15   S    
C7    N2    D    
C12   C25   S    
C23   C24   S    
N1    O2    S    
C3    O5    S    
Cu2   O8    S    
Cu1   O1    S    
C17   H15   S    
C8    O10   A    
C19   H6    S    
C21   C22   S    
C14   C26   T    
C20   H8    S    
C12   C23   S    
C13   C25   T    
C2    C27   D    
C15   C21   S    
C6    I2    S    
C16   H11   S    
C5    O13   S    
Cu2   O10   S    
Cu1   O9    S    
Cu1   O7    S    
C3    C27   S    
Cu1   Cu2   S    
C1    O1    A    
C8    O9    A    
C6    N1    D    
C22   C24   S    
C10   C15   S    
C21   C23   S    
C24   I4    S    
Cu2   O6    S    
C18   H3    S    
C10   C11   S    
C15   I7    S    
C18   H17   S    
C4    O7    A    
C11   C24   S    
C1    C5    S    
C27   H10   S    
C22   C26   S    
C17   O2    S    
C17   H14   S    
Cu1   N1    S    
C2    O4    S    
C20   H7    S    
C18   H2    S    
Cu2   N2    S    
C19   O4    S    
C19   H4    S    
Cu2   O12   S    
C10   I3    S    
C11   I1    S    
C16   H12   S    
C18   O3    S    
C21   I6    S    
C10   C22   S    
C4    C13   S    
C11   C12   S    
C17   H16   S    
C3    C5    D    
C19   H5    S    
C1    O6    A    
