data_mof_unit_6633.cif
_audit_creation_date              2012-12-10T18:02:05-0500
_audit_creation_method            fapswitch 2.2
_symmetry_space_group_name_H-M    P1
_symmetry_Int_Tables_number       1
_space_group_crystal_system       triclinic
_cell_length_a                    10.837086
_cell_length_b                    9.491708
_cell_length_c                    23.465708
_cell_angle_alpha                 89.827271
_cell_angle_beta                  89.145329
_cell_angle_gamma                 90.035526
_cell_volume                      2413.46031524

loop_
_atom_site_label
_atom_site_type_symbol
_atom_type_description
_atom_site_fract_x
_atom_site_fract_y
_atom_site_fract_z
_atom_type_partial_charge
C1    C     C_R   0.261969 0.499974 0.500009 0.792227
C2    C     C_R   0.738031 0.500025 0.499996 0.793190
C3    C     C_R   0.524822 0.363421 0.240079 0.146476
C4    C     C_R   0.437598 0.365301 0.758427 0.157267
C5    C     C_R   0.521755 0.368867 0.299518 -0.276052
C6    C     C_R   0.445640 0.372768 0.699067 -0.273874
C7    C     C_R   0.508209 0.498026 0.327959 -0.126054
C8    C     C_R   0.486641 0.496387 0.671756 -0.123972
C9    C     C_R   0.500273 0.623053 0.296008 -0.290626
C10   C     C_R   0.517668 0.614271 0.704569 -0.282542
C11   C     C_R   0.505193 0.619016 0.236359 0.443873
C12   C     C_R   0.509487 0.608163 0.764143 0.433151
C13   C     C_R   0.515501 0.488331 0.208303 0.263342
C14   C     C_R   0.470612 0.482359 0.791129 0.269073
C15   C     C_R   0.063759 0.371949 0.500017 -0.180654
C16   C     C_R   0.936242 0.628047 0.500003 -0.179802
C17   C     C_R   0.936090 0.371978 0.500041 -0.179023
C18   C     C_R   0.063911 0.628017 0.499976 -0.178330
C19   C     C_R   0.871827 0.500029 0.500020 -0.017986
C20   C     C_R   0.128173 0.499968 0.499995 -0.017742
C21   C     C_R   0.423651 0.074714 0.464953 -0.028587
C22   C     C_R   0.576363 0.925287 0.535040 -0.025107
C23   C     C_R   0.576356 0.074306 0.535042 -0.027483
C24   C     C_R   0.423657 0.925694 0.464950 -0.026603
C25   C     C_R   0.502016 0.499990 0.390745 0.841601
C26   C     C_R   0.497121 0.499568 0.609181 0.841518
C27   C     C_R   0.584915 0.443209 0.877074 0.599444
C28   C     C_R   0.396547 0.501824 0.122266 0.583766
C29   C     C_R   0.367405 0.481217 0.883473 0.569006
C30   C     C_R   0.611408 0.447092 0.115948 0.579716
C31   C     C_R   0.370735 0.475942 0.943163 -0.072065
C32   C     C_R   0.605116 0.435736 0.056529 -0.064351
C33   C     C_R   0.484564 0.453963 0.969893 -0.079341
C34   C     C_R   0.491006 0.457127 0.029904 -0.076889
C35   C     C_R   0.591973 0.429201 0.936688 -0.142635
C36   C     C_R   0.383659 0.482658 0.063135 -0.144114
C37   C     C_R   0.262979 0.490069 0.976494 -0.233372
C38   C     C_R   0.709345 0.399924 0.023479 -0.242341
C39   C     C_R   0.267510 0.487363 0.036005 0.466896
C40   C     C_R   0.702478 0.390575 0.964183 0.470149
Cu1   Cu    Cu3+1 0.500000 0.640660 0.500000 0.943332
Cu2   Cu    Cu3+1 0.500000 0.359340 0.500000 0.941386
H1    H     H_    0.173874 0.500763 0.956594 0.211558
H2    H     H_    0.796133 0.376047 0.043588 0.191622
H3    H     H_    0.528295 0.271125 0.323253 0.170770
H4    H     H_    0.420576 0.280972 0.674437 0.169150
H5    H     H_    0.488355 0.723603 0.317091 0.173124
H6    H     H_    0.551403 0.709666 0.684202 0.170340
H7    H     H_    0.111732 0.271855 0.500016 0.148606
H8    H     H_    0.888270 0.728142 0.500006 0.148670
H9    H     H_    0.887998 0.271890 0.500074 0.148784
H10   H     H_    0.112003 0.728106 0.499941 0.148892
H11   H     H_    0.362568 0.131222 0.436912 0.121600
H12   H     H_    0.637461 0.868780 0.563076 0.120692
H13   H     H_    0.637443 0.130491 0.563078 0.123769
H14   H     H_    0.362587 0.869509 0.436905 0.121571
N1    N     N_R   0.474196 0.469746 0.852030 -0.438939
N2    N     N_R   0.508335 0.481213 0.147318 -0.439775
N3    N     N_R   0.500000 0.852070 0.500000 -0.156841
N4    N     N_R   0.500000 0.147930 0.500000 -0.157880
O1    O     O_R   0.319640 0.618740 0.500000 -0.588432
O2    O     O_R   0.680360 0.381260 0.500000 -0.588642
O3    O     O_R   0.680360 0.618740 0.500000 -0.589221
O4    O     O_R   0.319640 0.381260 0.500000 -0.589895
O5    O     O_R   0.499960 0.618810 0.417880 -0.584142
O6    O     O_R   0.500040 0.381190 0.582120 -0.583474
O7    O     O_R   0.500040 0.618810 0.582120 -0.583354
O8    O     O_R   0.499960 0.381190 0.417880 -0.584634
O9    O     O_2   0.687710 0.432823 0.844221 -0.492294
O10   O     O_2   0.298839 0.541931 0.154609 -0.492701
O11   O     O_2   0.258865 0.499642 0.857019 -0.547491
O12   O     O_2   0.719760 0.425656 0.142226 -0.561770
O13   O     O_3   0.156653 0.492893 0.066146 -0.573159
C41   C     C_3   0.130416 0.360057 0.091565 0.139210
H15   H     H_    0.056988 0.376968 0.124384 0.200804
H16   H     H_    0.210752 0.314853 0.114284 0.137791
C42   C     C_3   0.083605 0.252734 0.048222 -0.440209
H17   H     H_    0.005192 0.298480 0.024588 0.249267
H18   H     H_    0.158502 0.226824 0.017153 0.221210
C43   C     C_3   0.042373 0.117071 0.078168 -0.888481
H19   H     H_    0.117834 0.074696 0.104766 0.267350
H20   H     H_    0.018637 0.035951 0.046238 0.266004
H21   H     H_    0.959928 0.137446 0.105609 0.266930
O14   O     O_3   0.804649 0.342069 0.934009 -0.572743
C44   C     C_3   0.783903 0.201007 0.916461 0.123726
H22   H     H_    0.825047 0.188169 0.873140 0.192417
H23   H     H_    0.684264 0.172374 0.912785 0.116846
C45   C     C_3   0.847768 0.098358 0.956710 -0.429763
H24   H     H_    0.949228 0.112697 0.952459 0.239799
H25   H     H_    0.819100 0.120992 0.001363 0.229408
C46   C     C_3   0.815495 0.945678 0.943236 -0.866088
H26   H     H_    0.715246 0.927255 0.950363 0.251501
H27   H     H_    0.867312 0.874251 0.971797 0.269090
H28   H     H_    0.840463 0.920597 0.898318 0.270312
N5    N     N_3   0.533298 0.230441 0.211675 -0.579506
H29   H     H_    0.458489 0.168529 0.225151 0.215513
H30   H     H_    0.614041 0.180586 0.224861 0.230710
N6    N     N_3   0.400053 0.237149 0.785883 -0.585167
H31   H     H_    0.460949 0.157561 0.773025 0.212733
H32   H     H_    0.312243 0.210866 0.771407 0.229444
O15   O     O_3   0.485658 0.741018 0.205530 -0.587103
C47   C     C_3   0.600332 0.797155 0.187166 0.027720
H33   H     H_    0.667193 0.714180 0.173331 0.161779
H34   H     H_    0.641295 0.858366 0.222572 0.146487
C48   C     C_3   0.578514 0.894967 0.136405 -0.303654
H35   H     H_    0.539413 0.833009 0.100796 0.223809
H36   H     H_    0.510568 0.977427 0.148711 0.237585
C49   C     C_3   0.697732 0.965687 0.115895 -0.900246
H37   H     H_    0.738900 0.028078 0.150781 0.263363
H38   H     H_    0.677359 0.037876 0.079929 0.258849
H39   H     H_    0.765211 0.885334 0.100946 0.265757
O16   O     O_3   0.554399 0.718849 0.795875 -0.592280
C50   C     C_3   0.455223 0.803320 0.815420 0.041180
H40   H     H_    0.372090 0.740489 0.827752 0.169403
H41   H     H_    0.429047 0.878624 0.781256 0.139660
C51   C     C_3   0.497049 0.885621 0.867642 -0.328306
H42   H     H_    0.536257 0.811060 0.899211 0.231132
H43   H     H_    0.570304 0.961743 0.854645 0.220762
C52   C     C_3   0.390341 0.965090 0.895984 -0.900946
H44   H     H_    0.345547 0.036379 0.865000 0.275409
H45   H     H_    0.425668 0.029108 0.931780 0.252977
H46   H     H_    0.320660 0.889562 0.913120 0.266181

loop_
_geom_bond_atom_site_label_1
_geom_bond_atom_site_label_2
_ccdc_geom_bond_type
C38   C40   A    
O15   C47   S    
C4    N6    S    
C8    C26   S    
Cu1   Cu2   S    
C40   O14   S    
N5    H29   S    
Cu1   O1    S    
C17   H9    S    
C18   H10   S    
C22   H12   S    
C42   H17   S    
C49   H37   S    
C15   H7    S    
C48   H36   S    
C41   H16   S    
C26   O7    A    
C16   H8    S    
C16   C19   A    
C8    C10   A    
C44   C45   S    
C30   N2    A    
C11   C13   A    
C51   H42   S    
C47   C48   S    
C15   C17   A    
O13   C41   S    
C17   C19   A    
C51   H43   S    
C41   C42   S    
C31   C33   A    
C32   C38   A    
Cu2   O2    S    
C18   C20   A    
C3    C13   A    
C50   C51   S    
C52   H45   S    
Cu2   O8    S    
C23   N4    A    
C25   O8    A    
C43   H21   S    
O16   C50   S    
C42   H18   S    
C15   C20   A    
C48   C49   S    
C41   H15   S    
C44   H23   S    
C26   O6    A    
C25   O5    A    
O14   C44   S    
Cu1   N3    S    
C21   N4    A    
C43   H20   S    
C27   N1    A    
Cu2   N4    S    
C22   N3    A    
C5    C7    A    
Cu1   O5    S    
C13   N2    S    
C27   C35   A    
C44   H22   S    
C5    H3    S    
C31   C37   A    
C1    O1    A    
C32   C34   A    
C37   H1    S    
C38   H2    S    
C46   H27   S    
C30   O12   S    
C45   C46   S    
C29   C31   A    
C33   C34   A    
C11   O15   S    
C49   H39   S    
C47   H34   S    
C9    C11   A    
C10   C12   A    
C4    C6    A    
C12   C14   A    
C9    H5    S    
N6    H32   S    
C10   H6    S    
Cu1   O3    S    
C1    O4    A    
Cu2   O4    S    
C12   O16   S    
C2    O3    A    
C50   H40   S    
C52   H46   S    
C7    C9    A    
C14   N1    S    
C1    C20   S    
C45   H25   S    
C6    H4    S    
C2    C19   S    
C36   C39   A    
C28   O10   S    
C29   N1    A    
C43   H19   S    
C3    C5    A    
C27   O9    S    
C6    C8    A    
C52   H44   S    
N5    H30   S    
C23   H13   S    
C28   N2    A    
C24   H14   S    
C48   H35   S    
C7    C25   S    
C51   C52   S    
C35   C40   A    
C37   C39   A    
C46   H28   S    
C30   C32   A    
C42   C43   S    
C24   N3    A    
C21   H11   S    
C33   C35   A    
C49   H38   S    
C34   C36   A    
C39   O13   S    
Cu1   O7    S    
C4    C14   A    
C47   H33   S    
C45   H24   S    
C28   C36   A    
C16   C18   A    
N6    H31   S    
C21   C24   A    
Cu2   O6    S    
C22   C23   A    
C3    N5    S    
C29   O11   S    
C46   H26   S    
C2    O2    A    
C50   H41   S    
