data_mof_unit_23315.cif
_audit_creation_date              2012-12-10T18:58:14-0500
_audit_creation_method            fapswitch 2.2
_symmetry_space_group_name_H-M    P1
_symmetry_Int_Tables_number       1
_space_group_crystal_system       triclinic
_cell_length_a                    11.057815
_cell_length_b                    10.848688
_cell_length_c                    9.548229
_cell_angle_alpha                 89.594335
_cell_angle_beta                  102.334445
_cell_angle_gamma                 90.394899
_cell_volume                      1118.94749312

loop_
_atom_site_label
_atom_site_type_symbol
_atom_type_description
_atom_site_fract_x
_atom_site_fract_y
_atom_site_fract_z
_atom_type_partial_charge
C1    C     C_R   0.499172 0.262617 0.500116 0.813246
C2    C     C_R   0.502084 0.129763 0.499098 -0.134112
C3    C     C_R   0.464292 0.067201 0.369048 -0.276839
C4    C     C_R   0.462976 0.938473 0.365647 0.235521
C5    C     C_R   0.500496 0.871429 0.495526 -0.148738
C6    C     C_R   0.547832 0.935779 0.621819 0.074860
C7    C     C_3   0.513547 0.927355 0.764721 -0.465600
C8    C     C_3   0.514214 0.067201 0.766529 -0.461306
C9    C     C_R   0.564560 0.587879 0.088726 0.282446
C10   C     C_R   0.427820 0.420108 0.057209 -0.079922
C11   C     C_R   0.427931 0.419990 0.908363 -0.086406
C12   C     C_R   0.262946 0.498957 0.442239 0.856470
C13   C     C_R   0.563905 0.588416 0.941131 0.250760
C14   C     C_3   0.699724 0.611964 0.967400 -0.510320
C15   C     C_3   0.700994 0.609114 0.126254 -0.512257
C16   C     C_R   0.497759 0.737695 0.498578 0.822107
C17   C     C_R   0.737103 0.499196 0.558102 0.862703
C18   C     C_2   0.128354 0.494248 0.410606 -0.357471
C19   C     C_2   0.067923 0.493111 0.517744 -0.153459
C20   C     C_2   0.871874 0.499048 0.591724 -0.360048
C21   C     C_2   0.933727 0.486546 0.487185 -0.151817
C22   C     C_R   0.548564 0.062801 0.623682 0.126156
Cu1   Cu    Cu3+1 0.499990 0.499980 0.640670 0.934036
Cu2   Cu    Cu3+1 0.500010 0.500020 0.359330 0.950541
H1    H     H_    0.885326 0.472211 0.377367 0.170932
H2    H     H_    0.589587 0.106598 0.850588 0.197353
H3    H     H_    0.371247 0.353807 0.099562 0.132653
H4    H     H_    0.371515 0.353560 0.839113 0.133754
H5    H     H_    0.751951 0.534391 0.933732 0.220829
H6    H     H_    0.721792 0.704291 0.928087 0.188193
H7    H     H_    0.751308 0.528131 0.180213 0.208282
H8    H     H_    0.726733 0.698810 0.180107 0.192210
H9    H     H_    0.117393 0.498215 0.629027 0.180030
H10   H     H_    0.920816 0.510846 0.702387 0.144176
H11   H     H_    0.078394 0.490571 0.299482 0.147050
H12   H     H_    0.429589 0.117900 0.270614 0.163555
H13   H     H_    0.420089 0.886427 0.758675 0.202743
H14   H     H_    0.588619 0.886380 0.847732 0.193898
H15   H     H_    0.421097 0.107452 0.761251 0.194534
N1    N     N_R   0.500780 0.500930 0.148120 -0.183529
N2    N     N_R   0.500790 0.500890 0.852210 -0.184316
O1    O     O_R   0.500000 0.319640 0.618810 -0.583963
O2    O     O_R   0.500010 0.319680 0.381230 -0.590962
O3    O     O_R   0.320680 0.500000 0.575130 -0.586246
O4    O     O_R   0.320690 0.500040 0.337550 -0.582936
O5    O     O_R   0.499990 0.680320 0.618770 -0.587187
O6    O     O_R   0.500000 0.680360 0.381190 -0.543299
O7    O     O_R   0.679310 0.499960 0.662450 -0.585776
O8    O     O_R   0.679320 0.500000 0.424870 -0.581862
N3    N     N_2   0.411085 0.877989 0.234702 -0.401533
H16   H     H_    0.319216 0.899606 0.196487 0.240627
C23   C     C_3   0.482704 0.890322 0.125108 -0.670983
H17   H     H_    0.480322 0.986833 0.084933 0.213562
H18   H     H_    0.442837 0.829183 0.034015 0.216719
H19   H     H_    0.580198 0.863112 0.168147 0.230942

loop_
_geom_bond_atom_site_label_1
_geom_bond_atom_site_label_2
_ccdc_geom_bond_type
C10   H3    S    
C2    C22   A    
N3    C23   S    
Cu1   Cu2   S    
C17   O7    A    
C15   H7    S    
C6    C7    S    
C12   O4    A    
C8    H15   S    
C8    H2    S    
C18   H11   S    
C8    C22   S    
Cu1   N2    S    
C23   H19   S    
C20   H10   S    
C13   N2    A    
N3    H16   S    
C7    H13   S    
C15   H8    S    
C12   O3    A    
Cu1   O5    S    
C13   C14   S    
C23   H17   S    
Cu1   O1    S    
C3    H12   S    
C14   H6    S    
Cu2   O4    S    
C11   H4    S    
C16   O6    A    
C19   C21   S    
C7    H14   S    
C23   H18   S    
C11   N2    A    
C2    C3    A    
C9    C15   S    
C5    C6    A    
C10   C11   A    
C14   H5    S    
C12   C18   S    
C3    C4    A    
C6    C22   A    
C1    O1    A    
C7    C8    S    
C17   C20   S    
C20   C21   D    
C10   N1    A    
C1    C2    S    
C19   H9    S    
C16   O5    A    
Cu2   O8    S    
Cu2   O2    S    
C9    C13   A    
C14   C15   S    
C18   C19   D    
C5    C16   S    
C21   H1    S    
Cu1   O7    S    
Cu2   N1    S    
Cu2   O6    S    
C1    O2    A    
C9    N1    A    
C17   O8    A    
Cu1   O3    S    
C4    N3    S    
C4    C5    A    
