data_mof_unit_67709.cif
_audit_creation_date              2013-03-05T16:49:09-0500
_audit_creation_method            fapswitch 2.2
_symmetry_space_group_name_H-M    P1
_symmetry_Int_Tables_number       1
_space_group_crystal_system       triclinic
_cell_length_a                    10.990086
_cell_length_b                    10.697385
_cell_length_c                    9.427641
_cell_angle_alpha                 89.876939
_cell_angle_beta                  91.545598
_cell_angle_gamma                 88.441146
_cell_volume                      1107.54442181

loop_
_atom_site_label
_atom_site_type_symbol
_atom_site_description
_atom_site_fract_x
_atom_site_fract_y
_atom_site_fract_z
_atom_type_partial_charge
O1    O     O_R   0.500060 0.316850 0.620870 -0.570511
O2    O     O_R   0.499940 0.683150 0.379130 -0.570545
O3    O     O_R   0.500000 0.316860 0.379090 -0.538148
O4    O     O_R   0.500000 0.683140 0.620910 -0.538449
C1    C     C_R   0.501437 0.260110 0.500294 0.955904
C2    C     C_R   0.498608 0.739886 0.499708 0.956127
O5    O     O_R   0.319670 0.500010 0.620890 -0.592739
O6    O     O_R   0.680330 0.499990 0.379110 -0.592818
O7    O     O_R   0.319620 0.500010 0.379110 -0.578355
O8    O     O_R   0.680380 0.499990 0.620890 -0.578362
C3    C     C_R   0.262197 0.503731 0.497952 0.837053
C4    C     C_R   0.737798 0.496291 0.502045 0.836920
Cu1   Cu    Cu3+1 0.500030 0.499990 0.643150 1.043756
Cu2   Cu    Cu3+1 0.499970 0.500010 0.356850 1.043899
H1    H     H_    0.140901 0.782658 0.893433 0.245621
H2    H     H_    0.859535 0.217307 0.106557 0.245683
C5    C     C_R   0.116603 0.811134 0.117768 -0.070490
C6    C     C_R   0.883468 0.188910 0.882157 -0.070582
C7    C     C_R   0.097460 0.750523 0.249119 -0.141085
C8    C     C_R   0.902360 0.249567 0.750781 -0.140923
C9    C     C_R   0.101650 0.616909 0.256068 -0.023446
C10   C     C_R   0.898300 0.383169 0.743916 -0.023258
C11   C     C_R   0.120814 0.545382 0.131045 0.300299
C12   C     C_R   0.879241 0.454665 0.868980 0.300141
C13   C     C_R   0.132088 0.609159 0.002140 -0.233688
C14   C     C_R   0.868034 0.390854 0.997875 -0.233795
H3    H     H_    0.138916 0.558731 0.903510 0.174530
H4    H     H_    0.861249 0.441260 0.096525 0.174558
C15   C     C_R   0.131646 0.738735 0.995846 -0.014518
C16   C     C_R   0.868572 0.261270 0.004134 -0.014007
C17   C     C_R   0.927892 0.549925 0.389184 -0.162209
C18   C     C_R   0.072087 0.450105 0.610796 -0.162586
H5    H     H_    0.872719 0.591202 0.303199 0.164602
H6    H     H_    0.127253 0.408821 0.696782 0.164654
C19   C     C_R   0.871805 0.496077 0.504686 0.009683
C20   C     C_R   0.128181 0.503967 0.495302 0.009585
C21   C     C_R   0.945648 0.445294 0.617214 0.124228
C22   C     C_R   0.054329 0.554756 0.382769 0.124501
C23   C     C_3   0.506192 0.039858 0.634093 0.181231
C24   C     C_3   0.493873 0.960128 0.365927 0.181540
C25   C     C_3   0.601376 0.953329 0.564017 0.153697
C26   C     C_3   0.398693 0.046657 0.436005 0.154137
C27   C     C_3   0.497874 0.875497 0.499287 -0.388080
C28   C     C_3   0.502195 0.124494 0.500722 -0.388007
C29   C     C_3   0.402761 0.962980 0.569338 0.192694
C30   C     C_3   0.597310 0.037002 0.430676 0.192851
C31   C     C_3   0.421356 0.580985 0.047957 -0.064447
C32   C     C_3   0.578648 0.419014 0.952043 -0.064103
C33   C     C_3   0.394559 0.472187 0.945701 -0.019465
C34   C     C_3   0.605446 0.527810 0.054298 -0.019164
H7    H     H_    0.310086 0.442723 0.891406 0.184531
H8    H     H_    0.689943 0.557233 0.108576 0.184462
H9    H     H_    0.360775 0.653082 0.095193 0.166561
H10   H     H_    0.639262 0.346936 0.904822 0.166607
N1    N     N_3   0.500090 0.499970 0.858290 -0.206731
N2    N     N_3   0.499910 0.500030 0.141710 -0.206665
C35   C     C_3   0.526981 0.608603 0.950519 0.080213
C36   C     C_3   0.473024 0.391395 0.049481 0.080739
H11   H     H_    0.549099 0.700571 0.904883 0.222027
H12   H     H_    0.450902 0.299428 0.095119 0.222154
C37   C     C_2   0.120084 0.949717 0.103870 0.533942
H13   H     H_    0.096927 0.010986 0.190336 0.123098
O9    O     O_2   0.150529 0.998432 0.993571 -0.442510
C38   C     C_2   0.880101 0.050322 0.896015 0.534311
H14   H     H_    0.903443 0.989102 0.809567 0.123169
O10   O     O_2   0.849586 0.001558 0.006259 -0.442409
C39   C     C_2   0.063937 0.826369 0.375650 0.465081
H15   H     H_    0.015160 0.915100 0.363457 0.142390
O11   O     O_2   0.088840 0.790035 0.495884 -0.469791
C40   C     C_2   0.935395 0.173795 0.624038 0.463859
H16   H     H_    0.984530 0.085225 0.635934 0.142768
O12   O     O_2   0.909604 0.210013 0.503965 -0.471076
N3    N     N_R   0.123622 0.409515 0.130433 0.120909
O13   O     O_R   0.102770 0.344393 0.243343 -0.293126
O14   O     O_R   0.143091 0.348593 0.013556 -0.366949
N4    N     N_R   0.876455 0.590528 0.869628 0.120979
O15   O     O_R   0.897276 0.655663 0.756718 -0.292600
O16   O     O_R   0.857011 0.651430 0.986524 -0.366883
N5    N     N_R   0.709357 0.897557 0.634386 0.144716
O17   O     O_R   0.698385 0.832872 0.749947 -0.262458
O18   O     O_R   0.814151 0.899305 0.573941 -0.335211
N6    N     N_R   0.290681 0.102412 0.365690 0.144587
O19   O     O_R   0.301603 0.167117 0.250134 -0.262478
O20   O     O_R   0.185916 0.100660 0.426207 -0.335744
N7    N     N_R   0.508658 0.084357 0.780429 0.175401
O21   O     O_R   0.416976 0.149659 0.827901 -0.272313
O22   O     O_R   0.600658 0.057066 0.865272 -0.287072
N8    N     N_R   0.491415 0.915637 0.219588 0.175453
O23   O     O_R   0.399445 0.942979 0.134723 -0.287293
O24   O     O_R   0.583109 0.850351 0.172118 -0.272271
N9    N     N_R   0.298231 0.924265 0.649001 0.196956
O25   O     O_R   0.223504 0.008062 0.699656 -0.256250
O26   O     O_R   0.286708 0.807610 0.683495 -0.350257
N10   N     N_R   0.701802 0.075655 0.350904 0.197492
O27   O     O_R   0.776714 0.991774 0.300744 -0.256676
O28   O     O_R   0.712184 0.192035 0.314268 -0.349753

loop_
_geom_bond_atom_site_label_1
_geom_bond_atom_site_label_2
_geom_bond_distance
_ccdc_geom_bond_type
C32   N1    1.480358 S    
Cu2   N2    2.028244 S    
C5    C15   1.398380 A    
N3    O13   1.299840 A    
C26   N6    1.456581 S    
C23   C25   1.541033 S    
N7    O21   1.300346 A    
C32   H10   1.107242 S    
N3    O14   1.301096 A    
O1    C1    1.290049 A    
C18   C20   1.396586 A    
C3    C20   1.472321 S    
C7    C9    1.430111 A    
C12   C14   1.402451 A    
C35   H11   1.108565 S    
N9    O26   1.299285 A    
C36   H12   1.108569 S    
O4    Cu1   1.969957 S    
C37   O9    1.220965 D    
C5    C37   1.489595 S    
C24   C27   1.546691 S    
C9    C22   1.479280 S    
C33   H7    1.101906 S    
C34   H8    1.101928 S    
C25   C30   1.540586 S    
C17   H5    1.084963 S    
C7    C39   1.492851 S    
C40   H16   1.081798 S    
C6    C16   1.398378 A    
C37   H13   1.078541 S    
C23   C29   1.535162 S    
C24   C26   1.541003 S    
Cu1   Cu2   2.699115 S    
C25   C27   1.541363 S    
C8    C40   1.492695 S    
O2    C2    1.290036 A    
C26   C28   1.541343 S    
C11   N3    1.452936 S    
O2    Cu2   1.970787 S    
C28   C30   1.546425 S    
H1    C15   1.081336 S    
N7    O22   1.298700 A    
C13   C15   1.387137 A    
N4    O16   1.301100 A    
N4    O15   1.299842 A    
O4    C2    1.292260 A    
N9    O25   1.299623 A    
N5    O18   1.299241 A    
C12   N4    1.452901 S    
C33   N1    1.477105 S    
C10   C21   1.479263 S    
C34   N2    1.477138 S    
C33   C36   1.535631 S    
C39   H15   1.081703 S    
C39   O11   1.219187 D    
C26   C29   1.540550 S    
C38   O10   1.220991 D    
C24   C30   1.535174 S    
O7    Cu2   1.998763 S    
C31   C35   1.534165 S    
C27   C29   1.546369 S    
O5    C3    1.304918 A    
C30   N10   1.458223 S    
O6    C4    1.304865 A    
C18   C21   1.394854 A    
C4    C19   1.472226 S    
N10   O28   1.300093 A    
O7    C3    1.300808 A    
O3    Cu2   1.969957 S    
O8    C4    1.300805 A    
C1    C28   1.450537 S    
N8    O24   1.300350 A    
C14   C16   1.387177 A    
N6    O20   1.299261 A    
C2    C27   1.450479 S    
N1    C35   1.484251 S    
C13   H3    1.079329 S    
C10   C12   1.423888 A    
O1    Cu1   1.970787 S    
C23   N7    1.460192 S    
C20   C22   1.416535 A    
O6    Cu2   1.987607 S    
C19   C21   1.416429 A    
C34   C35   1.535628 S    
C8    C10   1.429945 A    
O3    C1    1.292282 A    
O8    Cu1   1.998763 S    
C25   N5    1.456595 S    
C32   C36   1.534166 S    
C23   C28   1.546804 S    
C31   C33   1.542342 S    
C14   H4    1.079346 S    
C17   C22   1.394849 A    
C31   H9    1.107225 S    
C38   H14   1.078590 S    
C24   N8    1.460185 S    
C9    C11   1.423929 A    
C6    C38   1.489539 S    
C17   C19   1.396540 A    
C32   C34   1.542315 S    
C5    C7    1.419910 A    
N2    C36   1.484253 S    
C6    C8    1.419836 A    
C11   C13   1.402449 A    
N10   O27   1.299702 A    
C29   N9    1.458213 S    
N5    O17   1.299490 A    
O5    Cu1   1.987607 S    
N8    O23   1.298694 A    
N6    O19   1.299490 A    
C40   O12   1.219317 D    
H2    C16   1.081294 S    
C18   H6    1.084961 S    
C31   N2    1.480327 S    
Cu1   N1    2.028245 S    
