data_mof_unit_33857.cif
_audit_creation_date              2012-12-10T17:50:12-0500
_audit_creation_method            fapswitch 2.2
_symmetry_space_group_name_H-M    P1
_symmetry_Int_Tables_number       1
_space_group_crystal_system       triclinic
_cell_length_a                    10.648071
_cell_length_b                    14.763248
_cell_length_c                    14.543321
_cell_angle_alpha                 65.250236
_cell_angle_beta                  104.077219
_cell_angle_gamma                 102.492787
_cell_volume                      1996.77856943

loop_
_atom_site_label
_atom_site_type_symbol
_atom_type_description
_atom_site_fract_x
_atom_site_fract_y
_atom_site_fract_z
_atom_type_partial_charge
C1    C     C_R   0.479662 0.119358 0.310750 0.857805
C2    C     C_R   0.519783 0.880643 0.689244 0.859935
C3    C     C_R   0.511384 0.288978 0.174157 0.742652
C4    C     C_R   0.488351 0.710848 0.825752 0.736325
C5    C     C_R   0.481234 0.359968 0.073679 -0.065377
C6    C     C_R   0.518250 0.639902 0.926328 -0.058217
C7    C     C_R   0.441545 0.325319 0.992475 -0.212435
C8    C     C_R   0.557099 0.674587 0.007553 -0.210382
C9    C     C_R   0.498679 0.465141 0.051356 -0.196833
C10   C     C_R   0.501176 0.534694 0.948707 -0.197406
C11   C     C_R   0.493424 0.496629 0.872788 0.684668
C12   C     C_R   0.506483 0.503083 0.127350 0.682239
C13   C     C_R   0.456391 0.394920 0.892465 0.560051
C14   C     C_R   0.542776 0.604819 0.107626 0.556728
C15   C     C_R   0.744255 0.295680 0.649478 -0.238663
C16   C     C_R   0.255410 0.703953 0.351081 -0.237074
C17   C     C_R   0.699221 0.210117 0.626394 0.676682
C18   C     C_R   0.300428 0.789587 0.374035 0.678556
C19   C     C_R   0.512027 0.281690 0.514475 0.739812
C20   C     C_R   0.488189 0.718413 0.485351 0.757880
C21   C     C_R   0.551430 0.372144 0.533443 -0.154195
C22   C     C_R   0.448702 0.627865 0.466562 -0.147995
C23   C     C_R   0.260205 0.000440 0.500633 0.899380
C24   C     C_R   0.739790 0.999691 0.499186 0.895162
C25   C     C_R   0.665422 0.374558 0.608174 -0.192140
C26   C     C_R   0.334500 0.625290 0.392087 -0.190226
C27   C     C_R   0.481681 0.458823 0.483488 0.009462
C28   C     C_R   0.518490 0.541206 0.516494 0.001321
C29   C     C_R   0.620405 0.532060 0.600883 -0.082745
C30   C     C_R   0.379672 0.467947 0.399150 -0.045300
C31   C     C_R   0.693588 0.452679 0.644204 0.708805
C32   C     C_R   0.306317 0.547210 0.356011 0.714884
C33   C     C_3   0.017282 0.018773 0.404859 -0.260014
C34   C     C_3   0.982896 0.981702 0.594693 -0.250845
C35   C     C_3   0.962075 0.088958 0.434852 0.648395
C36   C     C_3   0.037962 0.911441 0.564668 0.652474
C37   C     C_3   0.875375 0.997858 0.499011 -0.312195
C38   C     C_3   0.124648 0.002538 0.500557 -0.309214
C39   C     C_3   0.930033 0.927206 0.469044 -0.205172
C40   C     C_3   0.070044 0.073233 0.530423 -0.202016
C41   C     C_R   0.467660 0.186191 0.199381 -0.258097
C42   C     C_R   0.530929 0.813786 0.800622 -0.246285
C43   C     C_R   0.399485 0.221343 0.014876 -0.045385
C44   C     C_R   0.597583 0.778726 0.985185 -0.056989
C45   C     C_R   0.409853 0.151959 0.118593 -0.206596
C46   C     C_R   0.586604 0.848234 0.881516 -0.177890
Cu1   Cu    Cu3+1 0.465750 0.918270 0.475680 1.158613
Cu2   Cu    Cu3+1 0.534250 0.081730 0.524320 1.156262
H1    H     H_    0.644680 0.583333 0.639060 0.281832
H2    H     H_    0.355401 0.416772 0.360867 0.277726
N1    N     N_R   0.585750 0.204560 0.560800 -0.269049
N2    N     N_R   0.414250 0.795440 0.439200 -0.268817
O1    O     O_R   0.454850 0.022100 0.338110 -0.563377
O2    O     O_R   0.545150 0.977900 0.661890 -0.562550
O3    O     O_R   0.512700 0.160150 0.379180 -0.478863
O4    O     O_R   0.487300 0.839850 0.620820 -0.481774
O5    O     O_R   0.287930 0.931000 0.479440 -0.523573
O6    O     O_R   0.712070 0.069000 0.520560 -0.521119
O7    O     O_R   0.345780 0.069050 0.520520 -0.536077
O8    O     O_R   0.654220 0.930950 0.479480 -0.537816
F1    F     F_    0.919428 0.179829 0.367324 -0.566559
F2    F     F_    0.080646 0.820584 0.632189 -0.564085
F3    F     F_    0.603139 0.734708 0.544114 -0.639224
F4    F     F_    0.397303 0.265516 0.455414 -0.633972
F5    F     F_    0.228031 0.866824 0.333042 -0.620158
F6    F     F_    0.771236 0.132621 0.667706 -0.623444
C47   C     C_2   0.878611 0.304187 0.708183 1.079427
O9    O     O_2   0.915785 0.233017 0.785222 -0.517517
O10   O     O_R   0.964388 0.392731 0.672804 -0.666671
H3    H     H_    0.053504 0.389121 0.718317 0.375873
C48   C     C_2   0.120805 0.695058 0.292918 1.074584
O11   O     O_2   0.083152 0.765968 0.215801 -0.508302
O12   O     O_R   0.035404 0.606400 0.328844 -0.669342
H4    H     H_    0.946053 0.609743 0.283681 0.373578
C49   C     C_2   0.042757 0.045011 0.299041 1.015574
O13   O     O_2   0.990839 0.990718 0.252272 -0.491185
O14   O     O_R   0.126940 0.131792 0.254848 -0.717200
H5    H     H_    0.137151 0.141940 0.183539 0.355652
C50   C     C_2   0.959136 0.956835 0.700717 1.009627
O15   O     O_2   0.886230 0.881136 0.741136 -0.540394
O16   O     O_R   0.019728 0.020144 0.752554 -0.684490
H6    H     H_    0.996514 0.995010 0.823502 0.384414
C51   C     C_2   0.853093 0.844821 0.435821 1.059208
O17   O     O_2   0.769463 0.865068 0.358484 -0.551296
O18   O     O_R   0.877632 0.745461 0.493262 -0.650498
H7    H     H_    0.819530 0.696824 0.463228 0.345798
C52   C     C_2   0.147725 0.155620 0.563382 1.070418
O19   O     O_2   0.125210 0.242431 0.514210 -0.486693
O20   O     O_R   0.245624 0.132515 0.650264 -0.716867
H8    H     H_    0.291813 0.194244 0.664379 0.348827
F7    F     F_    0.449357 0.364701 0.814844 -0.620700
F8    F     F_    0.549558 0.634810 0.185366 -0.618352
F9    F     F_    0.402236 0.681238 0.754469 -0.578279
F10   F     F_    0.598398 0.318393 0.245202 -0.576764
C53   C     C_2   0.632112 0.956032 0.860874 0.989484
O21   O     O_2   0.553206 0.016426 0.825838 -0.527382
O22   O     O_R   0.764369 0.986726 0.888464 -0.710022
H9    H     H_    0.782459 0.060519 0.877100 0.387566
C54   C     C_2   0.360205 0.044664 0.139391 0.979152
O23   O     O_2   0.436552 0.982478 0.173137 -0.516139
O24   O     O_R   0.226723 0.016533 0.113111 -0.706542
H10   H     H_    0.205473 0.942880 0.124046 0.395515
C55   C     C_2   0.338967 0.184484 0.931099 1.007186
O25   O     O_2   0.246285 0.221997 0.867739 -0.511708
O26   O     O_R   0.386725 0.105863 0.926074 -0.697692
H11   H     H_    0.336154 0.086348 0.866951 0.377870
C56   C     C_2   0.656783 0.815635 0.069077 1.027720
O27   O     O_2   0.750859 0.779670 0.131719 -0.494524
O28   O     O_R   0.605904 0.892243 0.075299 -0.694158
H12   H     H_    0.655107 0.911294 0.135039 0.387236
F11   F     F_    0.531665 0.555728 0.781246 -0.591112
F12   F     F_    0.468849 0.443773 0.219077 -0.593678
F13   F     F_    0.785634 0.449352 0.728237 -0.597466
F14   F     F_    0.214036 0.550477 0.272113 -0.597241

loop_
_geom_bond_atom_site_label_1
_geom_bond_atom_site_label_2
_ccdc_geom_bond_type
C25   C31   A    
Cu2   O3    S    
C38   C40   S    
C52   O19   D    
C26   C32   A    
O24   H10   S    
C34   C37   S    
O12   H4    S    
C53   O21   D    
C17   N1    A    
O22   H9    S    
C18   N2    A    
C29   H1    S    
O14   H5    S    
C18   F5    S    
C23   O7    A    
C17   F6    S    
C33   C39   S    
C51   O17   D    
C34   C40   S    
C40   C52   S    
C28   C29   A    
C35   C37   S    
C15   C25   A    
C15   C17   A    
C42   C46   A    
C1    O1    A    
C55   O25   D    
Cu1   O8    S    
C33   C49   S    
Cu2   N1    S    
C46   C53   S    
Cu1   Cu2   S    
C56   O27   D    
C7    C43   A    
C9    C10   A    
Cu1   O1    S    
C30   H2    S    
C22   C28   A    
C13   F7    S    
C27   C30   A    
C56   O28   S    
C16   C48   S    
C36   F2    S    
C44   C46   A    
O16   H6    S    
C16   C26   A    
C37   C39   S    
C11   F11   S    
C47   O9    D    
C55   O26   S    
C2    O2    A    
C50   O16   S    
C6    C8    A    
O18   H7    S    
C50   O15   D    
C47   O10   S    
Cu2   O2    S    
C49   O13   D    
C5    C9    A    
C34   C50   S    
Cu1   O5    S    
C49   O14   S    
C54   O23   D    
C19   F4    S    
C24   O8    A    
C15   C47   S    
C24   C37   S    
C35   F1    S    
C16   C18   A    
C43   C45   A    
C14   F8    S    
C4    C6    A    
C51   O18   S    
C12   C14   A    
C52   O20   S    
C45   C54   S    
C12   F12   S    
Cu2   O7    S    
C5    C7    A    
C44   C56   S    
C1    C41   S    
C23   O5    A    
C21   C25   A    
C3    C41   A    
C8    C14   A    
C54   O24   S    
C36   C39   S    
C8    C44   A    
C20   C22   A    
C3    C5    A    
C6    C10   A    
C53   O22   S    
Cu2   O6    S    
Cu1   N2    S    
C23   C38   S    
O26   H11   S    
C33   C38   S    
C20   N2    A    
C20   F3    S    
C36   C38   S    
C35   C40   S    
C1    O3    A    
C39   C51   S    
C48   O11   D    
C29   C31   A    
C2    O4    A    
O28   H12   S    
C30   C32   A    
C11   C13   A    
C4    C42   A    
C2    C42   S    
C33   C35   S    
C3    F10   S    
C34   C36   S    
C21   C27   A    
O10   H3    S    
C9    C12   A    
C43   C55   S    
C10   C11   A    
C4    F9    S    
C19   N1    A    
C7    C13   A    
C24   O6    A    
C22   C26   A    
C48   O12   S    
C27   C28   A    
C41   C45   A    
C32   F14   S    
O20   H8    S    
C31   F13   S    
Cu1   O4    S    
C19   C21   A    
