data_mof_unit_9516.cif
_audit_creation_date              2012-12-10T20:07:56-0500
_audit_creation_method            fapswitch 2.2
_symmetry_space_group_name_H-M    P1
_symmetry_Int_Tables_number       1
_space_group_crystal_system       triclinic
_cell_length_a                    13.354679
_cell_length_b                    18.495289
_cell_length_c                    18.966645
_cell_angle_alpha                 90.923259
_cell_angle_beta                  91.518893
_cell_angle_gamma                 71.602837
_cell_volume                      4443.59636735

loop_
_atom_site_label
_atom_site_type_symbol
_atom_type_description
_atom_site_fract_x
_atom_site_fract_y
_atom_site_fract_z
_atom_type_partial_charge
C1    C     C_R   0.492939 0.502370 0.634874 0.886917
C2    C     C_R   0.818520 0.432968 0.488852 -0.305603
C3    C     C_R   0.508553 0.559838 0.249409 0.428974
C4    C     C_R   0.703075 0.458475 0.495144 0.933594
C5    C     C_R   0.476144 0.570649 0.178812 -0.390425
C6    C     C_R   0.401618 0.538495 0.149750 -0.053136
C7    C     C_R   0.371461 0.485203 0.189842 0.379712
C8    C     C_R   0.427098 0.459655 0.254107 0.275910
C9    C     C_R   0.483409 0.503823 0.287680 -0.290659
C10   C     C_R   0.344517 0.496344 0.033010 -0.138878
C11   C     C_R   0.338183 0.501094 0.960274 -0.297824
C12   C     C_R   0.978660 0.468707 0.488742 0.095338
C13   C     C_R   0.371197 0.555811 0.925598 0.028350
C14   C     C_R   0.389491 0.615608 0.966107 0.473135
C15   C     C_R   0.380050 0.616206 0.039401 -0.291811
C16   C     C_R   0.500822 0.499403 0.364572 0.927683
C17   C     C_R   0.369388 0.552415 0.074033 0.145900
C18   C     C_R   0.390862 0.602975 0.804326 -0.138576
C19   C     C_R   0.428299 0.588196 0.736335 -0.313178
C20   C     C_R   0.463315 0.513185 0.709362 -0.133240
C21   C     C_R   0.456922 0.453079 0.751748 0.486385
C22   C     C_R   0.436806 0.467667 0.823637 -0.321795
C23   C     C_R   0.870892 0.486086 0.471710 0.016269
C24   C     C_R   0.399177 0.542715 0.850141 0.081179
C25   C     C_R   0.468121 0.281628 0.440466 -0.014396
C26   C     C_R   0.471418 0.205282 0.436792 -0.274730
C27   C     C_R   0.500878 0.158606 0.496631 0.227830
C28   C     C_R   0.296861 0.541093 0.498900 0.938948
C29   C     C_R   0.530326 0.191242 0.558235 -0.257355
C30   C     C_R   0.532576 0.266472 0.558087 -0.009666
C31   C     C_R   0.578785 0.019924 0.533635 0.313508
C32   C     C_R   0.571215 0.946024 0.539463 0.297121
C33   C     C_R   0.497273 0.923077 0.497508 -0.260161
C34   C     C_R   0.026622 0.525819 0.480660 -0.060619
C35   C     C_R   0.427481 0.977401 0.452894 0.376966
C36   C     C_R   0.423725 0.054476 0.455905 0.274884
C37   C     C_R   0.501064 0.076904 0.495189 -0.253106
C38   C     C_R   0.400612 0.823302 0.503797 0.435687
C39   C     C_R   0.405653 0.746175 0.500721 -0.139073
C40   C     C_R   0.011300 0.660926 0.483622 0.421026
C41   C     C_R   0.591627 0.706577 0.500718 -0.070464
C42   C     C_R   0.590529 0.782016 0.497173 -0.303113
C43   C     C_R   0.495243 0.842235 0.499289 0.113429
C44   C     C_R   0.182193 0.563858 0.493804 -0.397246
C45   C     C_R   0.965098 0.602486 0.470070 -0.111610
C46   C     C_R   0.878143 0.357799 0.508385 0.379883
C47   C     C_R   0.985904 0.340932 0.524834 0.359052
C48   C     C_R   0.034193 0.396916 0.517719 -0.333975
C49   C     C_3   0.177700 0.678807 0.607266 0.128788
C50   C     C_3   0.209253 0.742627 0.643216 -0.841580
C51   C     C_3   0.282737 0.394513 0.176196 0.123546
C52   C     C_3   0.188927 0.382444 0.136245 -0.886304
C53   C     C_3   0.531068 0.336954 0.249525 0.098449
C54   C     C_3   0.535200 0.254643 0.260012 -0.902587
C55   C     C_3   0.530940 0.653311 0.941437 0.091014
C56   C     C_R   0.862697 0.616423 0.442953 -0.199641
C57   C     C_3   0.566396 0.709688 0.899154 -0.823662
C58   C     C_3   0.379731 0.358397 0.740785 0.096277
C59   C     C_3   0.365714 0.298855 0.688844 -0.847971
C60   C     C_3   0.744596 0.024973 0.519882 0.139992
C61   C     C_3   0.838061 0.040442 0.557284 -0.839861
C62   C     C_3   0.595642 0.896546 0.649602 0.153545
C63   C     C_3   0.670115 0.836296 0.696630 -0.848130
C64   C     C_3   0.405560 0.939614 0.340737 0.143567
C65   C     C_3   0.346379 0.896275 0.296584 -0.820735
C66   C     C_3   0.253331 0.133370 0.455203 0.195676
C67   C     C_R   0.818976 0.556990 0.439125 -0.158116
C68   C     C_3   0.159305 0.151219 0.404089 -0.801619
C69   C     C_3   0.286837 0.910293 0.575074 0.116374
C70   C     C_3   0.171864 0.958912 0.581516 -0.811777
C71   C     C_3   0.882076 0.771889 0.516633 0.121653
C72   C     C_3   0.922323 0.819357 0.569901 -0.801564
C73   C     C_3   0.178866 0.429455 0.378405 0.151392
C74   C     C_3   0.180908 0.348328 0.361092 -0.850087
C75   C     C_3   0.858285 0.245816 0.466520 0.159369
C76   C     C_3   0.762638 0.222517 0.443972 -0.844874
C77   C     C_3   0.055229 0.267579 0.620239 0.124182
C78   C     C_R   0.135235 0.507875 0.475924 0.349806
C79   C     C_3   0.121112 0.188013 0.643293 -0.872992
C80   C     C_3   0.529517 0.674266 0.281718 0.146986
C81   C     C_3   0.610388 0.711592 0.307195 -0.836092
C82   C     C_R   0.118086 0.639781 0.505017 0.352778
H1    H     H_    0.510078 0.604734 0.147288 0.168930
H2    H     H_    0.742948 0.568129 0.412839 0.186327
H3    H     H_    0.242902 0.624835 0.616685 0.132354
H4    H     H_    0.106171 0.674116 0.633246 0.105750
H5    H     H_    0.214696 0.734174 0.701195 0.204052
H6    H     H_    0.287569 0.742013 0.624808 0.238419
H7    H     H_    0.149935 0.798603 0.631362 0.262260
H8    H     H_    0.277144 0.379130 0.231712 0.201684
H9    H     H_    0.356103 0.356173 0.152538 0.138486
H10   H     H_    0.190408 0.396762 0.079740 0.255683
H11   H     H_    0.192038 0.321931 0.140238 0.211557
H12   H     H_    0.391363 0.663670 0.068930 0.150829
H13   H     H_    0.114092 0.419163 0.159160 0.269090
H14   H     H_    0.602528 0.345457 0.275204 0.157982
H15   H     H_    0.534145 0.345434 0.191552 0.116716
H16   H     H_    0.590791 0.217043 0.222274 0.219955
H17   H     H_    0.564821 0.235935 0.313904 0.242804
H18   H     H_    0.455855 0.248302 0.251018 0.259454
H19   H     H_    0.337910 0.445051 0.055301 0.173600
H20   H     H_    0.316971 0.456955 0.931319 0.149280
H21   H     H_    0.570933 0.595039 0.920113 0.144916
H22   H     H_    0.556157 0.656510 0.997525 0.139190
H23   H     H_    0.356069 0.661714 0.820297 0.197310
H24   H     H_    0.529165 0.768447 0.919550 0.256424
H25   H     H_    0.653530 0.695533 0.903661 0.207250
H26   H     H_    0.543384 0.707007 0.842689 0.253561
H27   H     H_    0.304249 0.406811 0.739947 0.128134
H28   H     H_    0.392965 0.332400 0.794060 0.140182
H29   H     H_    0.296851 0.281347 0.703615 0.203992
H30   H     H_    0.351042 0.322867 0.634879 0.270559
H31   H     H_    0.437067 0.247928 0.690284 0.248137
H32   H     H_    0.448033 0.419543 0.857937 0.138330
H33   H     H_    0.441534 0.317660 0.395194 0.205360
H34   H     H_    0.424861 0.636508 0.703761 0.186545
H35   H     H_    0.550888 0.159414 0.606669 0.188355
H36   H     H_    0.719158 0.064874 0.474704 0.132353
H37   H     H_    0.771179 0.965283 0.499393 0.151830
H38   H     H_    0.867225 0.000098 0.601561 0.258593
H39   H     H_    0.902938 0.033093 0.519666 0.210553
H40   H     H_    0.814155 0.099637 0.578418 0.262739
H41   H     H_    0.519713 0.883622 0.644393 0.107077
H42   H     H_    0.581414 0.953290 0.675494 0.154666
H43   H     H_    0.745822 0.848568 0.704826 0.255719
H44   H     H_    0.633811 0.836211 0.748620 0.207404
H45   H     H_    0.816826 0.672424 0.424421 0.156243
H46   H     H_    0.686036 0.779120 0.671696 0.254852
H47   H     H_    0.489977 0.903548 0.344752 0.101946
H48   H     H_    0.400299 0.993454 0.313286 0.165512
H49   H     H_    0.262289 0.931327 0.289780 0.264173
H50   H     H_    0.382262 0.882807 0.243875 0.194634
H51   H     H_    0.350801 0.842169 0.323063 0.256184
H52   H     H_    0.252713 0.186456 0.483801 0.174655
H53   H     H_    0.243639 0.091696 0.494313 0.134208
H54   H     H_    0.156800 0.098137 0.376936 0.263481
H55   H     H_    0.085264 0.175891 0.433111 0.218480
H56   H     H_    0.452043 0.183394 0.386915 0.194941
H57   H     H_    0.165542 0.192546 0.364010 0.247217
H58   H     H_    0.336527 0.947709 0.585030 0.114896
H59   H     H_    0.305223 0.865664 0.616437 0.112799
H60   H     H_    0.119415 0.923427 0.572135 0.257777
H61   H     H_    0.158291 0.984458 0.635199 0.197843
H62   H     H_    0.151777 0.005393 0.542153 0.256398
H63   H     H_    0.849498 0.731957 0.544639 0.120059
H64   H     H_    0.816461 0.812310 0.486569 0.165437
H65   H     H_    0.968055 0.851346 0.543189 0.273474
H66   H     H_    0.854683 0.860672 0.596507 0.249653
H67   H     H_    0.558650 0.289987 0.604965 0.192403
H68   H     H_    0.972129 0.782369 0.610931 0.233250
H69   H     H_    0.333346 0.731800 0.500272 0.214244
H70   H     H_    0.665902 0.661935 0.503290 0.160790
H71   H     H_    0.243813 0.441688 0.350608 0.179008
H72   H     H_    0.102526 0.468703 0.357341 0.133784
H73   H     H_    0.118917 0.334232 0.390485 0.263300
H74   H     H_    0.164985 0.342473 0.303962 0.202078
H75   H     H_    0.258941 0.307303 0.375582 0.264349
H76   H     H_    0.918933 0.195224 0.489273 0.176012
H77   H     H_    0.890231 0.263370 0.418059 0.108184
H78   H     H_    0.664222 0.793059 0.492562 0.176003
H79   H     H_    0.701346 0.271524 0.419430 0.264448
H80   H     H_    0.786005 0.175070 0.404979 0.196013
H81   H     H_    0.729470 0.203243 0.490392 0.267561
H82   H     H_    0.976369 0.281696 0.644753 0.163322
H83   H     H_    0.095942 0.308425 0.639647 0.127015
H84   H     H_    0.201145 0.173031 0.620824 0.243420
H85   H     H_    0.128812 0.185942 0.701718 0.211214
H86   H     H_    0.082660 0.145724 0.624755 0.260136
H87   H     H_    0.463875 0.688322 0.319751 0.160283
H88   H     H_    0.498151 0.699226 0.229560 0.122213
H89   H     H_    0.115167 0.383325 0.536282 0.223264
H90   H     H_    0.675775 0.699669 0.269341 0.256232
H91   H     H_    0.572675 0.774071 0.311667 0.204684
H92   H     H_    0.643107 0.689078 0.359514 0.251820
N1    N     N_R   0.499990 0.310560 0.500020 -0.088022
N2    N     N_R   0.500140 0.689420 0.500040 -0.110338
O1    O     O_R   0.500000 0.439160 0.601820 -0.575862
O2    O     O_3   0.276826 0.471862 0.171591 -0.615441
O3    O     O_3   0.438235 0.387667 0.279057 -0.636238
O4    O     O_3   0.420003 0.672354 0.935427 -0.634022
O5    O     O_3   0.467514 0.381614 0.722581 -0.608466
O6    O     O_3   0.662101 0.035868 0.567982 -0.589810
O7    O     O_3   0.642248 0.894826 0.583457 -0.600511
O8    O     O_3   0.358999 0.956074 0.407477 -0.529532
O9    O     O_3   0.346721 0.106445 0.416231 -0.619873
O10   O     O_3   0.302378 0.878143 0.506594 -0.552285
O11   O     O_3   0.960267 0.736574 0.467240 -0.592337
O12   O     O_R   0.500040 0.560780 0.601820 -0.626710
O13   O     O_3   0.194871 0.436188 0.452024 -0.587521
O14   O     O_3   0.828604 0.303493 0.518992 -0.585810
O15   O     O_3   0.044998 0.268597 0.546046 -0.630352
O16   O     O_3   0.578768 0.594526 0.277778 -0.599159
O17   O     O_R   0.653580 0.409000 0.499980 -0.560755
O18   O     O_R   0.653630 0.530610 0.499980 -0.639907
O19   O     O_R   0.499960 0.439220 0.398180 -0.602995
O20   O     O_R   0.500000 0.560840 0.398180 -0.598121
O21   O     O_R   0.346370 0.469390 0.500020 -0.561754
O22   O     O_R   0.346420 0.591000 0.500020 -0.606731
O23   O     O_3   0.158852 0.693960 0.534141 -0.556417
Zn1   Zn    Zn3+2 0.499970 0.418800 0.500000 0.997610
Zn2   Zn    Zn3+2 0.500030 0.581200 0.500000 0.944232

loop_
_geom_bond_atom_site_label_1
_geom_bond_atom_site_label_2
_ccdc_geom_bond_type
C66   C68   S    
C41   C42   A    
C39   H69   S    
C27   C29   A    
C58   H27   S    
C55   O4    S    
C32   O7    S    
C76   H80   S    
C35   C36   A    
C80   H88   S    
C12   C48   A    
C15   H12   S    
C62   H42   S    
C76   H79   S    
C7    C8    A    
C41   H70   S    
C53   C54   S    
C2    C46   A    
C4    O18   A    
C12   C23   A    
C26   C27   A    
C29   C30   A    
C60   H37   S    
C58   O5    S    
C18   C24   A    
C36   C37   A    
C9    C16   S    
C18   C19   A    
C44   C82   A    
C25   H33   S    
C51   H8    S    
C14   O4    S    
C38   C39   A    
C5    H1    S    
C56   H45   S    
C10   C17   A    
C77   H83   S    
C55   H21   S    
O12   Zn2   S    
C69   H58   S    
C52   H13   S    
C61   H39   S    
C36   O9    S    
C73   C74   S    
C81   H90   S    
C23   C67   A    
C51   H9    S    
C62   O7    S    
C66   H52   S    
C1    O1    A    
C47   C48   A    
C45   C56   A    
C8    C9    A    
O1    Zn1   S    
C73   H72   S    
C21   O5    S    
C59   H29   S    
C60   H36   S    
C79   H86   S    
C51   O2    S    
C34   C78   A    
C63   H46   S    
C50   H6    S    
C77   H82   S    
C57   H24   S    
C67   H2    S    
C13   C14   A    
C61   H38   S    
C80   O16   S    
C54   H18   S    
C68   H55   S    
C4    O17   A    
C78   O13   S    
C80   H87   S    
C46   O14   S    
C53   O3    S    
C62   H41   S    
C65   H49   S    
C77   C79   S    
C60   O6    S    
C40   C45   A    
C70   H60   S    
C54   H16   S    
C51   C52   S    
C77   O15   S    
C40   C82   A    
C68   H54   S    
C75   O14   S    
C40   O11   S    
C80   C81   S    
C30   H67   S    
C3    C5    A    
C35   O8    S    
C38   O10   S    
O18   Zn2   S    
C29   H35   S    
C55   H22   S    
C28   C44   S    
C28   O22   A    
C31   C37   A    
C13   C24   S    
C60   C61   S    
C33   C43   S    
O21   Zn1   S    
C2    C4    S    
C75   C76   S    
C62   C63   S    
C16   O20   A    
C49   H3    S    
C48   H89   S    
C25   N1    A    
C50   H7    S    
C31   C32   A    
C22   H32   S    
C59   H31   S    
C71   H64   S    
O22   Zn2   S    
C59   H30   S    
C70   H61   S    
C74   H74   S    
C52   H11   S    
C34   C45   A    
C64   H47   S    
C3    C9    A    
C63   H43   S    
C50   H5    S    
C65   H51   S    
C75   H76   S    
C71   H63   S    
C41   N2    A    
C64   H48   S    
C72   H68   S    
C55   C57   S    
C31   O6    S    
C22   C24   A    
C54   H17   S    
C52   H10   S    
C42   C43   A    
C12   C34   A    
C72   H65   S    
C30   N1    A    
C65   H50   S    
O19   Zn1   S    
C49   O23   S    
C1    O12   A    
C75   H77   S    
C15   C17   A    
C6    C17   S    
C46   C47   A    
C1    C20   S    
C74   H75   S    
C57   H25   S    
C58   H28   S    
N2    Zn2   S    
C10   H19   S    
C42   H78   S    
C71   O11   S    
C39   N2    A    
C26   H56   S    
C6    C7    A    
C56   C67   A    
C76   H81   S    
C70   H62   S    
C28   O21   A    
C53   H15   S    
C81   H92   S    
C19   C20   A    
C44   C78   A    
C25   C26   A    
C18   H23   S    
C82   O23   S    
C16   O19   A    
C72   H66   S    
C3    O16   S    
C32   C33   A    
C11   C13   A    
C8    O3    S    
C5    C6    A    
C19   H34   S    
C27   C37   S    
C64   C65   S    
C33   C35   A    
C74   H73   S    
C11   H20   S    
C49   H4    S    
C79   H84   S    
C47   O15   S    
C69   C70   S    
C58   C59   S    
N1    Zn1   S    
C63   H44   S    
C10   C11   A    
C66   H53   S    
C64   O8    S    
O17   Zn1   S    
C38   C43   A    
C57   H26   S    
C71   C72   S    
C20   C21   A    
C7    O2    S    
C49   C50   S    
C66   O9    S    
C73   H71   S    
C2    C23   A    
C14   C15   A    
C61   H40   S    
C68   H57   S    
C79   H85   S    
O20   Zn2   S    
C21   C22   A    
C69   H59   S    
C69   O10   S    
C73   O13   S    
C81   H91   S    
C53   H14   S    
