data_mof_unit_40620.cif
_audit_creation_date              2013-03-05T15:51:04-0500
_audit_creation_method            fapswitch 2.2
_symmetry_space_group_name_H-M    P1
_symmetry_Int_Tables_number       1
_space_group_crystal_system       triclinic
_cell_length_a                    19.099971
_cell_length_b                    10.993305
_cell_length_c                    18.755394
_cell_angle_alpha                 90.00883
_cell_angle_beta                  90.303748
_cell_angle_gamma                 90.461976
_cell_volume                      3937.92053778

loop_
_atom_site_label
_atom_site_type_symbol
_atom_site_description
_atom_site_fract_x
_atom_site_fract_y
_atom_site_fract_z
_atom_type_partial_charge
O1    O     O_R   0.784290 0.290360 0.830540 -0.526221
O2    O     O_R   0.215710 0.290360 0.169460 -0.520718
O3    O     O_R   0.284290 0.790360 0.830540 -0.520513
O4    O     O_R   0.715710 0.790360 0.169460 -0.522308
O5    O     O_R   0.762610 0.041070 0.825230 -0.502977
O6    O     O_R   0.237390 0.041070 0.174770 -0.498391
O7    O     O_R   0.262610 0.541070 0.825230 -0.498868
O8    O     O_R   0.737390 0.541070 0.174770 -0.500539
C1    C     C_R   0.724520 0.961852 0.856144 0.537274
C2    C     C_R   0.275599 0.962421 0.143815 0.544203
C3    C     C_R   0.224240 0.462681 0.856374 0.539247
C4    C     C_R   0.772657 0.456162 0.146778 0.552402
O9    O     O_R   0.667390 0.924160 0.829970 -0.532061
O10   O     O_R   0.332610 0.924160 0.170030 -0.518297
O11   O     O_R   0.167390 0.424160 0.829970 -0.531100
O12   O     O_R   0.832610 0.424160 0.170030 -0.516598
O13   O     O_R   0.553980 0.081420 0.821780 -0.503991
O14   O     O_R   0.446020 0.081420 0.178220 -0.495481
O15   O     O_R   0.053980 0.581420 0.821780 -0.503993
O16   O     O_R   0.946020 0.581420 0.178220 -0.490517
C5    C     C_R   0.529924 0.177566 0.850741 0.545695
C6    C     C_R   0.470584 0.177812 0.149587 0.546515
C7    C     C_R   0.029512 0.677532 0.850392 0.535214
C8    C     C_R   0.969517 0.677592 0.148929 0.550985
O17   O     O_R   0.543210 0.283170 0.826740 -0.516513
O18   O     O_R   0.456790 0.283170 0.173260 -0.517825
O19   O     O_R   0.043210 0.783170 0.826740 -0.528002
O20   O     O_R   0.956790 0.783170 0.173260 -0.519938
O21   O     O_R   0.678350 0.375000 0.822720 -0.494839
O22   O     O_R   0.321650 0.375000 0.177280 -0.494734
O23   O     O_R   0.178350 0.875000 0.822720 -0.500843
O24   O     O_R   0.821650 0.875000 0.177280 -0.485694
C9    C     C_R   0.735951 0.354633 0.855758 0.545988
C10   C     C_R   0.261717 0.365202 0.147878 0.549088
C11   C     C_R   0.238494 0.864905 0.852094 0.544925
C12   C     C_R   0.761694 0.865457 0.147969 0.563325
O25   O     O_R   0.785060 0.289300 0.670580 -0.500694
O26   O     O_R   0.214940 0.289300 0.329420 -0.520767
O27   O     O_R   0.285060 0.789300 0.670580 -0.517003
O28   O     O_R   0.714940 0.789300 0.329420 -0.483279
O29   O     O_R   0.763330 0.040090 0.676940 -0.516083
O30   O     O_R   0.236670 0.040090 0.323060 -0.511978
O31   O     O_R   0.263330 0.540090 0.676940 -0.519503
O32   O     O_R   0.736670 0.540090 0.323060 -0.538465
C13   C     C_R   0.728587 0.952194 0.648544 0.546469
C14   C     C_R   0.272617 0.956110 0.352774 0.542372
C15   C     C_R   0.228495 0.451572 0.648745 0.561963
C16   C     C_R   0.771601 0.455032 0.351864 0.560519
O33   O     O_R   0.668160 0.923110 0.670000 -0.453537
O34   O     O_R   0.331840 0.923110 0.330000 -0.471051
O35   O     O_R   0.168160 0.423110 0.670000 -0.441518
O36   O     O_R   0.831840 0.423110 0.330000 -0.472531
O37   O     O_R   0.554690 0.080440 0.673480 -0.456526
O38   O     O_R   0.445310 0.080440 0.326520 -0.492926
O39   O     O_R   0.054690 0.580440 0.673480 -0.417630
O40   O     O_R   0.945310 0.580440 0.326520 -0.496042
C17   C     C_R   0.527112 0.177036 0.646860 0.547770
C18   C     C_R   0.463432 0.177190 0.359074 0.546414
C19   C     C_R   0.026457 0.676979 0.647125 0.574081
C20   C     C_R   0.937644 0.680446 0.362577 0.526963
O41   O     O_R   0.543980 0.282110 0.666770 -0.531913
O42   O     O_R   0.456020 0.282110 0.333230 -0.511409
O43   O     O_R   0.043980 0.782110 0.666770 -0.537483
O44   O     O_R   0.956020 0.782110 0.333230 -0.519405
O45   O     O_R   0.679070 0.374030 0.674430 -0.510954
O46   O     O_R   0.320930 0.374030 0.325570 -0.489901
O47   O     O_R   0.179070 0.874030 0.674430 -0.505860
O48   O     O_R   0.820930 0.874030 0.325570 -0.466502
C21   C     C_R   0.738353 0.359516 0.645659 0.541251
C22   C     C_R   0.263299 0.353422 0.356930 0.552290
C23   C     C_R   0.239702 0.861503 0.646284 0.547730
C24   C     C_R   0.774330 0.811845 0.360949 0.560166
Cr1   Cr    Cr6+3 0.769260 0.163750 0.750730 1.024941
Cr2   Cr    Cr6+3 0.230740 0.163750 0.249270 1.017444
Cr3   Cr    Cr6+3 0.269260 0.663750 0.750730 1.022484
Cr4   Cr    Cr6+3 0.730740 0.663750 0.249270 1.024885
Cr5   Cr    Cr6+3 0.612640 0.009910 0.748780 1.070331
Cr6   Cr    Cr6+3 0.387360 0.009910 0.251220 1.075186
Cr7   Cr    Cr6+3 0.112640 0.509910 0.748780 1.088634
Cr8   Cr    Cr6+3 0.887360 0.509910 0.251220 1.035614
Cr9   Cr    Cr6+3 0.614190 0.322400 0.747710 1.018199
Cr10  Cr    Cr6+3 0.385810 0.322400 0.252290 1.057711
Cr11  Cr    Cr6+3 0.114190 0.822400 0.747710 1.014441
Cr12  Cr    Cr6+3 0.885810 0.822400 0.252290 1.039395
O49   O     O_3   0.665360 0.165350 0.749070 -0.262458
O50   O     O_3   0.334640 0.165350 0.250930 -0.272070
O51   O     O_3   0.165360 0.665350 0.749070 -0.259095
O52   O     O_3   0.834640 0.665350 0.250930 -0.310293
C25   C     C_2   0.498880 0.169848 0.921646 -0.112526
C26   C     C_2   0.503239 0.169403 0.079411 -0.113637
C27   C     C_2   0.996446 0.669886 0.920237 -0.125703
C28   C     C_2   0.999849 0.667247 0.077838 -0.127854
C29   C     C_2   0.494119 0.069401 0.039055 -0.166568
C30   C     C_2   0.505185 0.069111 0.961450 -0.164697
C31   C     C_2   0.985170 0.569797 0.036618 -0.168841
C32   C     C_2   0.999361 0.568364 0.959637 -0.164717
H1    H     H_    0.476862 0.984889 0.063160 0.141115
H2    H     H_    0.518618 0.983423 0.936687 0.136868
H3    H     H_    0.960908 0.488900 0.059162 0.158295
H4    H     H_    0.012819 0.482148 0.935393 0.144004
H5    H     H_    0.524738 0.252395 0.056644 0.112308
H6    H     H_    0.481057 0.253938 0.945378 0.105875
H7    H     H_    0.025017 0.747113 0.055452 0.100484
H8    H     H_    0.979349 0.754431 0.943960 0.106007
C33   C     C_R   0.747882 0.407778 0.079379 0.018387
C34   C     C_R   0.234398 0.445692 0.932327 0.023448
C35   C     C_R   0.265274 0.944340 0.067904 0.021265
C36   C     C_R   0.734948 0.943524 0.932003 0.019720
C37   C     C_R   0.698669 0.471901 0.038403 0.014517
C38   C     C_R   0.297254 0.479257 0.965290 0.028405
C39   C     C_R   0.204793 0.985335 0.033747 0.030042
C40   C     C_R   0.797938 0.976097 0.964864 0.008728
C41   C     C_R   0.693466 0.453927 0.965617 0.017419
C42   C     C_R   0.305228 0.466513 0.038286 0.020789
C43   C     C_R   0.197288 0.972420 0.960659 0.018060
C44   C     C_R   0.805793 0.964498 0.037947 0.009957
C45   C     C_R   0.780227 0.296475 0.974253 -0.149058
C46   C     C_R   0.182607 0.416467 0.049070 -0.152967
C47   C     C_R   0.317460 0.908949 0.952178 -0.153303
C48   C     C_R   0.682936 0.916931 0.048953 -0.156442
C49   C     C_R   0.783742 0.311576 0.047681 -0.155107
C50   C     C_R   0.175564 0.423511 0.975429 -0.148867
C51   C     C_R   0.323324 0.913973 0.025839 -0.150318
C52   C     C_R   0.676162 0.921876 0.975225 -0.149739
C53   C     C_3   0.687886 0.605935 0.030566 -0.247365
C54   C     C_3   0.368862 0.433210 0.950533 -0.287982
C55   C     C_3   0.130859 0.948509 0.047448 -0.285078
C56   C     C_3   0.869082 0.928178 0.950305 -0.292998
C57   C     C_3   0.681374 0.585396 0.950917 -0.280714
C58   C     C_3   0.377571 0.417313 0.030377 -0.258546
C59   C     C_3   0.122652 0.932030 0.967555 -0.260069
C60   C     C_3   0.877692 0.913338 0.030218 -0.261209
C61   C     C_R   0.739315 0.375144 0.931902 0.021503
C62   C     C_R   0.249306 0.425846 0.080408 0.017323
C63   C     C_R   0.251909 0.925393 0.919569 0.015684
C64   C     C_R   0.749584 0.925892 0.080343 0.015643
H9    H     H_    0.812183 0.226593 0.950557 0.151377
H10   H     H_    0.137281 0.390290 0.080187 0.140918
H11   H     H_    0.362154 0.877771 0.922091 0.139763
H12   H     H_    0.637508 0.891509 0.080122 0.140368
H13   H     H_    0.819984 0.256443 0.078077 0.144662
H14   H     H_    0.124455 0.407071 0.952278 0.136553
H15   H     H_    0.372790 0.889509 0.049737 0.135319
H16   H     H_    0.625316 0.903852 0.952085 0.134747
H17   H     H_    0.099474 0.024811 0.068919 0.144001
H18   H     H_    0.904344 0.998778 0.927381 0.140877
H19   H     H_    0.735298 0.659838 0.045233 0.153865
H20   H     H_    0.403578 0.505001 0.928016 0.145250
H21   H     H_    0.638342 0.636402 0.055465 0.146307
H22   H     H_    0.367905 0.345974 0.920508 0.132485
H23   H     H_    0.127170 0.862278 0.078166 0.133486
H24   H     H_    0.867205 0.840571 0.920695 0.131805
H25   H     H_    0.627792 0.602314 0.929944 0.143510
H26   H     H_    0.381217 0.320277 0.046463 0.152524
H27   H     H_    0.114594 0.835382 0.952034 0.157314
H28   H     H_    0.880404 0.816470 0.046789 0.150709
H29   H     H_    0.724422 0.628456 0.919883 0.135829
H30   H     H_    0.418063 0.478660 0.053891 0.148167
H31   H     H_    0.085591 0.997465 0.943002 0.142220
H32   H     H_    0.918756 0.973943 0.053377 0.144328
C65   C     C_R   0.472135 0.172137 0.435176 0.000592
C66   C     C_R   0.485499 0.174971 0.582359 0.002491
C67   C     C_R   0.951314 0.675153 0.438233 0.003177
C68   C     C_R   0.982580 0.675917 0.583458 0.031666
C69   C     C_R   0.471495 0.281516 0.472243 0.011607
C70   C     C_R   0.476649 0.284208 0.544516 0.012017
C71   C     C_R   0.960244 0.784313 0.474542 0.003740
C72   C     C_R   0.975550 0.785140 0.545639 0.018204
C73   C     C_R   0.466931 0.065789 0.548470 -0.100543
C74   C     C_R   0.461195 0.064093 0.473958 -0.105439
C75   C     C_R   0.956869 0.569179 0.551767 -0.098507
C76   C     C_R   0.946187 0.566602 0.477790 -0.133537
C77   C     C_3   0.511521 0.396745 0.461266 -0.257515
C78   C     C_3   0.517260 0.402588 0.541565 -0.252449
C79   C     C_3   0.008481 0.888501 0.458648 -0.261876
C80   C     C_3   0.025774 0.889503 0.536956 -0.259688
H33   H     H_    0.464496 0.981525 0.577907 0.209828
H34   H     H_    0.451641 0.979024 0.446828 0.212916
H35   H     H_    0.950305 0.487172 0.582262 0.192066
H36   H     H_    0.933380 0.481086 0.451974 0.167062
H37   H     H_    0.980547 0.971438 0.440889 0.147434
H38   H     H_    0.080361 0.861315 0.547586 0.172619
H39   H     H_    0.479395 0.470761 0.438259 0.197288
H40   H     H_    0.572262 0.396661 0.560176 0.171319
H41   H     H_    0.562354 0.382029 0.434321 0.133642
H42   H     H_    0.487521 0.479416 0.564809 0.157049
H43   H     H_    0.053655 0.862170 0.424932 0.162850
H44   H     H_    0.008280 0.973098 0.564838 0.145135
C81   C     C_R   0.756696 0.435315 0.426026 0.073539
C82   C     C_R   0.251379 0.393582 0.582541 0.019021
C83   C     C_R   0.258000 0.923462 0.425972 -0.011224
C84   C     C_R   0.754158 0.892717 0.583824 0.007817
C85   C     C_R   0.707369 0.351643 0.449657 -0.030786
C86   C     C_R   0.206892 0.313346 0.544421 0.021828
C87   C     C_R   0.311375 0.866004 0.463564 0.041801
C88   C     C_R   0.717818 0.795314 0.551711 0.009666
C89   C     C_R   0.700917 0.330117 0.521827 -0.053894
C90   C     C_R   0.211080 0.306814 0.471586 -0.006782
C91   C     C_R   0.309049 0.857795 0.536839 -0.009907
C92   C     C_R   0.725583 0.769688 0.480767 -0.048892
C93   C     C_R   0.781767 0.492761 0.549014 -0.160801
C94   C     C_R   0.315799 0.426532 0.472441 -0.156224
C95   C     C_R   0.203018 0.974946 0.538351 -0.169694
C96   C     C_R   0.818108 0.915828 0.472173 -0.100073
C97   C     C_R   0.787985 0.514104 0.475884 -0.143287
C98   C     C_R   0.311813 0.435304 0.547204 -0.173600
C99   C     C_R   0.204051 0.979293 0.463863 -0.165425
C100  C     C_R   0.810007 0.944105 0.544877 -0.159611
C101  C     C_3   0.695711 0.220893 0.431403 0.091466
C102  C     C_3   0.129217 0.285936 0.538958 0.102269
C103  C     C_3   0.332556 0.736341 0.455014 0.078785
C104  C     C_3   0.645301 0.740316 0.551060 0.113868
C105  C     C_3   0.688952 0.197004 0.511222 -0.211671
C106  C     C_3   0.135119 0.287007 0.458551 -0.225222
C107  C     C_3   0.330704 0.727301 0.535328 -0.234632
C108  C     C_3   0.655027 0.713171 0.471815 -0.202623
C109  C     C_R   0.742169 0.393379 0.571773 0.041630
C110  C     C_R   0.260664 0.372036 0.433500 0.019938
C111  C     C_R   0.253645 0.908322 0.575296 0.011196
C112  C     C_R   0.771392 0.834828 0.437659 0.019787
H45   H     H_    0.808879 0.550864 0.586931 0.107425
H46   H     H_    0.359636 0.467454 0.445173 0.166092
H47   H     H_    0.159502 0.013300 0.566655 0.116184
H48   H     H_    0.857985 0.963161 0.442217 0.185889
H49   H     H_    0.817536 0.591524 0.457535 0.087017
H50   H     H_    0.351824 0.485990 0.575775 0.127032
H51   H     H_    0.161968 0.022062 0.435455 0.126730
H52   H     H_    0.842579 0.015197 0.567862 0.151778
H53   H     H_    0.646469 0.204474 0.400776 0.117234
H54   H     H_    0.114365 0.195990 0.561109 0.096160
H55   H     H_    0.292028 0.680075 0.427271 0.113339
H56   H     H_    0.640390 0.657392 0.584780 0.104541
H57   H     H_    0.635245 0.169032 0.527002 0.148121
H58   H     H_    0.121496 0.199588 0.433209 0.105425
H59   H     H_    0.287474 0.667554 0.553893 0.139241
H60   H     H_    0.656772 0.614407 0.460117 0.109103
H61   H     H_    0.731566 0.142421 0.534865 0.179153
H62   H     H_    0.110641 0.366538 0.431839 0.179975
H63   H     H_    0.381917 0.712635 0.562227 0.193229
H64   H     H_    0.620564 0.766233 0.435599 0.219487
N1    N     N_R   0.757332 0.165391 0.399230 0.085623
O53   O     O_R   0.750886 0.108842 0.338627 -0.312626
O54   O     O_R   0.819612 0.184218 0.425844 -0.361061
N2    N     N_R   0.084619 0.382045 0.564014 0.089689
O55   O     O_R   0.039802 0.356922 0.613957 -0.368731
O56   O     O_R   0.096427 0.494047 0.544603 -0.366197
N3    N     N_R   0.402487 0.723450 0.424278 0.071029
O57   O     O_R   0.408899 0.673145 0.361914 -0.348639
O58   O     O_R   0.458684 0.754040 0.459733 -0.351509
N4    N     N_R   0.590231 0.828697 0.562623 0.120886
O59   O     O_R   0.539547 0.803380 0.606344 -0.358994
O60   O     O_R   0.592503 0.933748 0.530779 -0.366241

loop_
_geom_bond_atom_site_label_1
_geom_bond_atom_site_label_2
_geom_bond_distance
_ccdc_geom_bond_type
C18   O42   1.259933 A    
C103  C107  1.510210 S    
C75   C76   1.401566 A    
O4    C12   1.267902 A    
O47   Cr11  1.937449 S    
C29   C30   1.471903 S    
C8    O20   1.272792 A    
O39   C19   1.291512 A    
C25   H6    1.084027 S    
O20   Cr12  2.061924 S    
C84   C100  1.410414 A    
C73   C74   1.401318 A    
C94   H46   1.078663 S    
C56   H18   1.111574 S    
Cr11  O51   1.990881 S    
C31   C32   1.470540 S    
C93   H45   1.082819 S    
C27   H8    1.083870 S    
C88   C92   1.369103 A    
C45   C61   1.412098 A    
O1    Cr1   2.061229 S    
C43   C63   1.402382 A    
O29   Cr1   1.942034 S    
C57   H29   1.112562 S    
C58   H30   1.111460 S    
O1    C9    1.261130 A    
C30   H2    1.083468 S    
C43   C59   1.495921 S    
C77   C78   1.510777 S    
C1    C36   1.449915 S    
O7    C3    1.271000 A    
C66   C73   1.400328 A    
C77   H41   1.109927 S    
C69   C70   1.358860 A    
C103  H55   1.113760 S    
C74   H34   1.078372 S    
C65   C69   1.389017 A    
C91   C107  1.496499 S    
O24   C12   1.271220 A    
C106  H62   1.112762 S    
C16   O36   1.275373 A    
C105  H61   1.106032 S    
C46   C50   1.389216 A    
C4    C33   1.447131 S    
C104  H56   1.113206 S    
C31   H3    1.086266 S    
O47   C23   1.283668 A    
O46   Cr10  1.943170 S    
C54   C58   1.516130 S    
C69   C77   1.489174 S    
O21   C9    1.281108 A    
O8    Cr4   1.947167 S    
C20   C67   1.442686 S    
O23   Cr11  1.945599 S    
N2    O55   1.300470 A    
C89   C109  1.401823 A    
C92   C112  1.389108 A    
N1    O53   1.300239 A    
O30   C14   1.280875 A    
C103  N3    1.465482 S    
C25   C30   1.341515 D    
O32   Cr4   1.943614 S    
C1    O9    1.261089 A    
O44   Cr12  2.070555 S    
C45   C49   1.388315 A    
C19   C68   1.455182 S    
C28   H7    1.083363 S    
C55   H23   1.111319 S    
C27   C32   1.339995 D    
C66   C70   1.405952 A    
C3    O11   1.261118 A    
C56   H24   1.111894 S    
O11   Cr7   2.073740 S    
C17   C66   1.444025 S    
C4    O12   1.275324 A    
C40   C56   1.487940 S    
C81   C97   1.402599 A    
C54   H20   1.111543 S    
C51   H15   1.079590 S    
C98   H50   1.081826 S    
C96   C112  1.410304 A    
C97   H49   1.075074 S    
C48   H12   1.083620 S    
O6    Cr2   1.947167 S    
C7    O19   1.269008 A    
C15   O35   1.258546 A    
O3    Cr3   2.061229 S    
Cr4   O52   1.984504 S    
C41   C57   1.490977 S    
C46   C62   1.403184 A    
C81   C85   1.385906 A    
O48   C24   1.302459 A    
C79   H37   1.110379 S    
C76   H36   1.083030 S    
O42   Cr10  2.070555 S    
Cr5   O49   1.976402 S    
O18   Cr10  2.061924 S    
C41   C61   1.390951 A    
C37   C41   1.382280 A    
C96   H48   1.079241 S    
O17   Cr9   2.057441 S    
C42   C58   1.495984 S    
C75   H35   1.074572 S    
C2    C35   1.449747 S    
C90   C110  1.384785 A    
C36   C52   1.407070 A    
C105  H57   1.110219 S    
O34   Cr6   2.054001 S    
Cr7   O51   1.976402 S    
C82   C98   1.407715 A    
C20   O44   1.292731 A    
C80   H44   1.111888 S    
C82   C86   1.411547 A    
C87   C91   1.378205 A    
N3    O58   1.301506 A    
O31   Cr3   1.942034 S    
O4    Cr4   2.064662 S    
C24   C112  1.462167 S    
O9    Cr5   2.073740 S    
O30   Cr2   1.943614 S    
C70   C78   1.510802 S    
O22   C10   1.271752 A    
O26   C22   1.265144 A    
C95   H47   1.077331 S    
C108  H64   1.111983 S    
C49   H13   1.083608 S    
C68   C72   1.401692 A    
C77   H39   1.109109 S    
C91   C111  1.402152 A    
O3    C11   1.270940 A    
C53   H19   1.111548 S    
C78   H40   1.107669 S    
C71   C72   1.363613 A    
O16   Cr8   1.936559 S    
C101  H53   1.112945 S    
C83   C87   1.392227 A    
N4    O59   1.300440 A    
Cr10  O50   1.977160 S    
C95   C99   1.398115 A    
C35   C51   1.406547 A    
C28   C31   1.347798 D    
C47   C63   1.403506 A    
C36   C40   1.393079 A    
O43   Cr11  2.065823 S    
N1    O54   1.302564 A    
C104  C108  1.528461 S    
O48   Cr12  1.943170 S    
O41   Cr9   2.065823 S    
O22   Cr10  1.951591 S    
O15   C7    1.277972 A    
C26   H5    1.085936 S    
O5    C1    1.272115 A    
C53   C57   1.515081 S    
C106  H58   1.100774 S    
C86   C102  1.514436 S    
O39   Cr7   1.954078 S    
C87   C103  1.493699 S    
C13   C84   1.466513 S    
C85   C101  1.492221 S    
C79   C80   1.503699 S    
C44   C60   1.495908 S    
C10   C62   1.449694 S    
C13   O33   1.263038 A    
C67   C71   1.388568 A    
O8    C4    1.270579 A    
O36   Cr8   2.054001 S    
C34   C50   1.407473 A    
C3    C34   1.448975 S    
O25   C21   1.271592 A    
C6    C26   1.462698 S    
C33   C49   1.398865 A    
C58   H26   1.111257 S    
C14   C83   1.447102 S    
C22   C110  1.451757 S    
Cr2   O50   1.984504 S    
C59   H31   1.111505 S    
C67   C76   1.408258 A    
C100  H52   1.082995 S    
O35   Cr7   2.061723 S    
Cr1   O49   1.984788 S    
C16   C81   1.437368 S    
C53   H21   1.111522 S    
C38   C54   1.489492 S    
C96   C100  1.408139 A    
C65   C74   1.407616 A    
C37   C53   1.496594 S    
O14   Cr6   1.936559 S    
C55   H17   1.111602 S    
O21   Cr9   1.945599 S    
O27   Cr3   2.062650 S    
C73   H33   1.079266 S    
C101  N1    1.463097 S    
C39   C55   1.489538 S    
O37   Cr5   1.954078 S    
C108  H60   1.108456 S    
C8    C28   1.461371 S    
C7    C27   1.459398 S    
C19   O43   1.255325 A    
C107  H63   1.111139 S    
C50   H14   1.080171 S    
C11   C63   1.450147 S    
C90   C106  1.484342 S    
C29   H1    1.083040 S    
C38   C42   1.383971 A    
C40   C44   1.384113 A    
C104  N4    1.454719 S    
C89   C105  1.492388 S    
C26   C29   1.344267 D    
C71   C79   1.495187 S    
C42   C62   1.402216 A    
O26   Cr2   2.065597 S    
Cr3   O51   1.984788 S    
C72   C80   1.498996 S    
C107  H59   1.108516 S    
C5    O17   1.269417 A    
C56   C60   1.515905 S    
O37   C17   1.288717 A    
O28   C24   1.298522 A    
C94   C98   1.408014 A    
O14   C6    1.275242 A    
C35   C39   1.395923 A    
C45   H9    1.081927 S    
C5    C25   1.461117 S    
O24   Cr12  1.951591 S    
O31   C15   1.286445 A    
O2    Cr2   2.064662 S    
O6    C2    1.277391 A    
N2    O56   1.302286 A    
O7    Cr3   1.946046 S    
N3    O57   1.300511 A    
C17   O41   1.253041 A    
C44   C64   1.402413 A    
C47   C51   1.386553 A    
C83   C99   1.400487 A    
C14   O34   1.266987 A    
C23   C111  1.452669 S    
O25   Cr1   2.062650 S    
O40   Cr8   1.946810 S    
C95   C111  1.398597 A    
C101  C105  1.525890 S    
C12   C64   1.450252 S    
C47   H11   1.083689 S    
C94   C110  1.408133 A    
C15   C82   1.466018 S    
C59   H27   1.110899 S    
C99   H51   1.073619 S    
C93   C109  1.392158 A    
Cr8   O52   1.990392 S    
O32   C16   1.271898 A    
O29   C13   1.281962 A    
C78   H42   1.111884 S    
O16   C8    1.271264 A    
C57   H25   1.111544 S    
O13   Cr5   1.943705 S    
C54   H22   1.112018 S    
O2    C10   1.266953 A    
C86   C90   1.370717 A    
Cr12  O52   1.977160 S    
C33   C37   1.405080 A    
O45   C21   1.268117 A    
C32   H4    1.084520 S    
O19   Cr11  2.057441 S    
C92   C108  1.488066 S    
O33   Cr5   2.061723 S    
C21   C109  1.437017 S    
O23   C11   1.277041 A    
O10   Cr6   2.065846 S    
O5    Cr1   1.946046 S    
C60   H28   1.110908 S    
C55   C59   1.516468 S    
C102  H54   1.107995 S    
C48   C52   1.389269 A    
C80   H38   1.107172 S    
C79   H43   1.112597 S    
C88   C104  1.506803 S    
C9    C61   1.446787 S    
C102  N2    1.442689 S    
O40   C20   1.300333 A    
O46   C22   1.269578 A    
C84   C88   1.405162 A    
C34   C38   1.394496 A    
Cr6   O50   1.990392 S    
C6    O18   1.270454 A    
O28   Cr4   2.065597 S    
O38   C18   1.271013 A    
C85   C89   1.380125 A    
C93   C97   1.397060 A    
O45   Cr9   1.937449 S    
C52   H16   1.078506 S    
C68   C75   1.399542 A    
C39   C43   1.384678 A    
O12   Cr8   2.065846 S    
C102  C106  1.512913 S    
C46   H10   1.083654 S    
C18   C65   1.437233 S    
N4    O60   1.300755 A    
C48   C64   1.402423 A    
C60   H32   1.111558 S    
Cr9   O49   1.990881 S    
O15   Cr7   1.943705 S    
C2    O10   1.267330 A    
O38   Cr6   1.946810 S    
O27   C23   1.263025 A    
O13   C5    1.278137 A    
