data_mof_unit_57416.cif
_audit_creation_date              2012-12-10T18:47:41-0500
_audit_creation_method            fapswitch 2.2
_symmetry_space_group_name_H-M    P1
_symmetry_Int_Tables_number       1
_space_group_crystal_system       triclinic
_cell_length_a                    10.025271
_cell_length_b                    10.599308
_cell_length_c                    15.371293
_cell_angle_alpha                 93.149371
_cell_angle_beta                  67.201761
_cell_angle_gamma                 88.267629
_cell_volume                      1501.13027469

loop_
_atom_site_label
_atom_site_type_symbol
_atom_type_description
_atom_site_fract_x
_atom_site_fract_y
_atom_site_fract_z
_atom_type_partial_charge
C1    C     C_R   0.497976 0.739464 0.501052 0.870966
C2    C     C_R   0.502103 0.260521 0.498845 0.870206
C3    C     C_R   0.489926 0.680398 0.042631 0.316941
C4    C     C_R   0.678248 0.391957 0.889140 0.290381
C5    C     C_R   0.397702 0.723248 0.000226 0.408046
C6    C     C_R   0.747603 0.338897 0.944291 0.473035
C7    C     C_R   0.549261 0.938843 0.561186 -0.129796
C8    C     C_R   0.451030 0.061100 0.438592 -0.135209
C9    C     C_R   0.553394 0.067924 0.559226 -0.090322
C10   C     C_R   0.446431 0.932060 0.440784 -0.059385
C11   C     C_R   0.504672 0.127732 0.497790 -0.021555
C12   C     C_R   0.495466 0.872236 0.502067 -0.019727
C13   C     C_R   0.959706 0.399291 0.457153 0.312004
C14   C     C_R   0.040783 0.600985 0.542448 0.389983
C15   C     C_R   0.100750 0.399105 0.460832 0.363060
C16   C     C_R   0.899032 0.599644 0.541486 0.397874
C17   C     C_R   0.408214 0.497626 0.676546 0.857502
C18   C     C_R   0.592565 0.501296 0.323376 0.918111
C19   C     C_R   0.350681 0.504350 0.780560 -0.217848
C20   C     C_R   0.656177 0.491907 0.219237 -0.203284
C21   C     C_R   0.253870 0.669307 0.905520 0.398929
C22   C     C_R   0.821937 0.370953 0.079312 0.465451
C23   C     C_R   0.236351 0.589990 0.834413 0.273843
C24   C     C_R   0.797473 0.438762 0.166384 0.292453
C25   C     C_R   0.442581 0.459578 0.821300 -0.123084
C26   C     C_R   0.568956 0.523059 0.170819 -0.124564
C27   C     C_R   0.463831 0.531390 0.893474 0.029475
C28   C     C_R   0.619620 0.496028 0.072916 -0.017072
C29   C     C_R   0.372258 0.643253 0.932480 -0.122919
C30   C     C_R   0.728644 0.398721 0.032349 -0.032211
C31   C     C_R   0.567442 0.492444 0.930969 -0.095276
C32   C     C_R   0.555617 0.555332 0.017754 -0.136757
H1    H     H_    0.463409 0.570711 0.208686 0.212490
H2    H     H_    0.499689 0.370837 0.791830 0.237726
H3    H     H_    0.586326 0.891182 0.608987 0.182033
H4    H     H_    0.414193 0.108738 0.390680 0.199419
H5    H     H_    0.591516 0.121144 0.606332 0.181600
H6    H     H_    0.407356 0.878870 0.394141 0.213504
N1    N     N_R   0.142780 0.500030 0.500020 -0.202136
N2    N     N_R   0.857220 0.499970 0.499980 -0.214347
O1    O     O_R   0.385370 0.683250 0.500010 -0.552493
O2    O     O_R   0.614630 0.316750 0.499990 -0.546201
O3    O     O_R   0.614700 0.683220 0.500000 -0.608019
O4    O     O_R   0.385300 0.316780 0.500000 -0.572151
O5    O     O_R   0.319830 0.500020 0.632250 -0.525464
O6    O     O_R   0.680170 0.499980 0.367750 -0.516699
O7    O     O_R   0.549160 0.499990 0.632240 -0.608699
O8    O     O_R   0.450840 0.500010 0.367760 -0.601021
Zn1   Zn    Zn3+2 0.346870 0.500020 0.500000 1.108039
Zn2   Zn    Zn3+2 0.653130 0.499980 0.500000 1.086889
O9    O     O_3   0.334927 0.844369 0.025813 -0.654198
H7    H     H_    0.340882 0.882927 0.967172 0.371408
O10   O     O_3   0.835336 0.228942 0.913093 -0.616350
H8    H     H_    0.804441 0.178386 0.868745 0.372771
S1    S     S_3+6 0.950052 0.502722 0.181580 0.107158
O11   O     O_2   0.033763 0.403091 0.208255 -0.261447
O12   O     O_2   0.048339 0.548770 0.088975 -0.200891
O13   O     O_3   0.900941 0.625898 0.263414 -0.496383
H9    H     H_    0.990461 0.645601 0.273011 0.373456
S2    S     S_3+6 0.060720 0.542825 0.851514 0.106134
O14   O     O_2   0.023934 0.567489 0.768214 -0.220252
O15   O     O_2   0.061491 0.402819 0.861339 -0.169028
O16   O     O_3   0.932556 0.614959 0.949931 -0.493043
H10   H     H_    0.866637 0.663179 0.928091 0.382684
O17   O     O_3   0.150813 0.764745 0.954330 -0.644301
H11   H     H_    0.100636 0.790661 0.913267 0.366546
O18   O     O_3   0.943825 0.290877 0.034733 -0.611352
H12   H     H_    0.984702 0.268886 0.081524 0.371918
S3    S     S_3+6 0.543134 0.795429 0.111074 0.076235
O19   O     O_2   0.687742 0.758124 0.112978 -0.205442
O20   O     O_2   0.554929 0.921846 0.069578 -0.215335
O21   O     O_3   0.417732 0.810719 0.222416 -0.571767
H13   H     H_    0.326773 0.838758 0.216364 0.385690
S4    S     S_3+6 0.769856 0.359632 0.763848 0.015180
O22   O     O_2   0.749664 0.471690 0.713983 -0.317921
O23   O     O_2   0.929404 0.333448 0.737310 -0.212563
O24   O     O_3   0.706299 0.230549 0.727746 -0.616931
H14   H     H_    0.771407 0.212767 0.660405 0.399344
S5    S     S_3+6 0.926174 0.263477 0.395489 0.090468
O25   O     O_2   0.861752 0.166342 0.465412 -0.333942
O26   O     O_2   0.827735 0.292394 0.345914 -0.256039
O27   O     O_3   0.081986 0.199326 0.311950 -0.478918
H15   H     H_    0.056178 0.117730 0.289707 0.396794
S6    S     S_3+6 0.076021 0.741206 0.599372 0.126405
O28   O     O_2   0.175587 0.717791 0.649163 -0.277847
O29   O     O_2   0.140073 0.833405 0.525341 -0.313924
O30   O     O_3   0.922303 0.810124 0.682059 -0.462670
H16   H     H_    0.949701 0.893622 0.700018 0.387070
O31   O     O_3   0.198266 0.297158 0.424758 -0.659806
H17   H     H_    0.146939 0.221286 0.452140 0.368906
O32   O     O_3   0.803422 0.701556 0.583051 -0.659655
H18   H     H_    0.708414 0.667843 0.618664 0.378114

loop_
_geom_bond_atom_site_label_1
_geom_bond_atom_site_label_2
_ccdc_geom_bond_type
O4    Zn1   S    
O30   H16   S    
C13   S5    S    
C27   C29   A    
S6    O30   S    
C14   S6    S    
S1    O11   D    
O24   H14   S    
C24   S1    S    
S4    O23   D    
S2    O16   S    
C3    S3    S    
C17   O5    A    
C18   C20   S    
S2    O15   D    
C8    H4    S    
S3    O20   D    
C13   N2    A    
C14   N1    A    
C1    O3    A    
C20   C24   A    
C2    O4    A    
S4    O24   S    
C4    S4    S    
C25   H2    S    
C7    C12   A    
C1    C12   S    
C2    C11   S    
C18   O6    A    
O1    Zn1   S    
O7    Zn2   S    
C5    C29   A    
C21   C23   A    
C23   S2    S    
S4    O22   D    
O16   H10   S    
C27   C31   A    
O18   H12   S    
C28   C32   A    
S6    O28   D    
C4    C6    A    
O32   H18   S    
S5    O26   D    
O13   H9    S    
O10   H8    S    
C21   C29   A    
C6    C30   A    
O9    H7    S    
S2    O14   D    
S3    O21   S    
C19   C23   A    
C15   O31   S    
C26   H1    S    
C31   C32   A    
O5    Zn1   S    
C9    H5    S    
C3    C32   A    
S1    O12   D    
C9    C11   A    
C15   N1    A    
C10   C12   A    
O2    Zn2   S    
C1    O1    A    
O8    Zn1   S    
N1    Zn1   S    
C16   N2    A    
O17   H11   S    
C13   C15   A    
C14   C16   A    
C6    O10   S    
C7    C9    A    
C22   C30   A    
C21   O17   S    
C7    H3    S    
C17   O7    A    
S6    O29   D    
O21   H13   S    
C3    C5    A    
C18   O8    A    
S5    O27   S    
O3    Zn2   S    
C25   C27   A    
O6    Zn2   S    
C26   C28   A    
C10   H6    S    
C28   C30   A    
C20   C26   A    
C2    O2    A    
C8    C11   A    
N2    Zn2   S    
C17   C19   S    
C22   C24   A    
S3    O19   D    
C19   C25   A    
C22   O18   S    
C4    C31   A    
S5    O25   D    
C16   O32   S    
C8    C10   A    
O27   H15   S    
S1    O13   S    
C5    O9    S    
O31   H17   S    
