data_mof_unit_65548.cif
_audit_creation_date              2012-10-26T21:11:19-0400
_audit_creation_method            fapswitch 2.2
_symmetry_space_group_name_H-M    P1
_symmetry_Int_Tables_number       1
_space_group_crystal_system       triclinic
_cell_length_a                    15.990524
_cell_length_b                    14.432285
_cell_length_c                    13.146179
_cell_angle_alpha                 90.000116
_cell_angle_beta                  90.008185
_cell_angle_gamma                 90.000393
_cell_volume                      3033.87252498

loop_
_atom_site_label
_atom_site_type_symbol
_atom_type_description
_atom_site_fract_x
_atom_site_fract_y
_atom_site_fract_z
_atom_type_partial_charge
C1    C     C_1   0.500000 0.227124 0.500000 -0.024550
C2    C     C_R   0.500000 0.671295 0.500000 0.555911
C3    C     C_R   0.337840 0.500000 0.499975 0.566292
C4    C     C_R   0.662160 0.500000 0.500025 0.566292
C5    C     C_1   0.500000 0.142311 0.500000 -0.017929
C6    C     C_1   0.500000 0.857689 0.500000 -0.017929
C7    C     C_1   0.500014 0.500000 0.173629 0.147700
C8    C     C_1   0.499986 0.500000 0.826370 0.147700
C9    C     C_1   0.500000 0.042405 0.500000 0.024396
C10   C     C_1   0.500000 0.957594 0.500000 0.024396
C11   C     C_3   0.972229 0.422933 0.545502 -0.028573
C12   C     C_1   0.500000 0.772876 0.500000 -0.024550
C13   C     C_3   0.027771 0.577067 0.454498 -0.028573
C14   C     C_3   0.027769 0.425576 0.449473 -0.028581
C15   C     C_3   0.972231 0.574424 0.550527 -0.028581
C16   C     C_1   0.500004 0.500000 0.050680 -0.020212
C17   C     C_1   0.499996 0.500000 0.949319 -0.020212
C18   C     C_1   0.249001 0.500000 0.499961 -0.000728
C19   C     C_1   0.750999 0.500000 0.500039 -0.000728
C20   C     C_1   0.058804 0.344131 0.394184 0.227857
C21   C     C_1   0.941196 0.655869 0.605816 0.227857
C22   C     C_1   0.941192 0.338596 0.595291 0.227689
C23   C     C_3   0.027802 0.497358 0.596017 -0.028568
C24   C     C_1   0.058807 0.661404 0.404709 0.227689
C25   C     C_1   0.941135 0.505532 0.298906 0.229405
C26   C     C_1   0.058864 0.494468 0.701094 0.229405
C27   C     C_3   0.972198 0.502642 0.403983 -0.028568
C28   C     C_3   0.083221 0.500000 0.499988 -0.018224
C29   C     C_3   0.916779 0.499999 0.500012 -0.018224
C30   C     C_1   0.174151 0.500000 0.499968 -0.023123
C31   C     C_1   0.825849 0.500000 0.500032 -0.023123
C32   C     C_R   0.500000 0.328705 0.500000 0.555911
Cu1   Cu    Cu3+1 0.499990 0.500000 0.592680 1.018222
Cu2   Cu    Cu3+1 0.500010 0.500000 0.407320 1.018222
N1    N     N_1   0.500020 0.500000 0.268070 -0.160455
N2    N     N_1   0.499980 0.500000 0.731930 -0.160455
N3    N     N_1   0.083279 0.279970 0.350629 -0.246694
N4    N     N_1   0.916721 0.720030 0.649371 -0.246694
N5    N     N_1   0.916717 0.272155 0.634513 -0.247078
N6    N     N_1   0.083283 0.727844 0.365487 -0.247078
N7    N     N_1   0.916642 0.507808 0.216128 -0.244047
N8    N     N_1   0.083358 0.492192 0.783872 -0.244047
O1    O     O_R   0.499990 0.376050 0.578280 -0.472905
O2    O     O_R   0.500010 0.623950 0.421720 -0.472905
O3    O     O_R   0.500010 0.376050 0.421720 -0.472901
O4    O     O_R   0.499990 0.623950 0.578280 -0.472901
O5    O     O_R   0.379070 0.500000 0.578250 -0.481643
O6    O     O_R   0.620930 0.500000 0.421750 -0.481643
O7    O     O_R   0.379080 0.500000 0.421720 -0.481262
O8    O     O_R   0.620920 0.500000 0.578280 -0.481261

loop_
_geom_bond_atom_site_label_1
_geom_bond_atom_site_label_2
_ccdc_geom_bond_type
C6    C10   S    
C13   C28   S    
C5    C9    S    
C18   C30   T    
C14   C27   S    
C25   C27   S    
C9    C10   T    
C11   C22   S    
Cu1   O4    S    
C8    C17   S    
C4    O8    A    
C2    C12   S    
C14   C28   S    
C28   C30   S    
Cu1   Cu2   S    
C3    O7    A    
C19   C31   T    
C29   C31   S    
Cu2   O3    S    
C23   C28   S    
C2    O4    A    
C20   N3    T    
C26   N8    T    
C1    C5    T    
C22   N5    T    
C15   C23   S    
C7    C16   S    
C11   C23   S    
C32   O1    A    
C15   C29   S    
C13   C15   S    
C6    C12   T    
Cu1   O5    S    
C11   C14   S    
C27   C29   S    
C25   N7    T    
Cu1   O1    S    
C14   C20   S    
C15   C21   S    
Cu1   N2    S    
Cu2   O6    S    
C11   C29   S    
C3    C18   S    
C4    O6    A    
Cu2   N1    S    
C8    N2    T    
C23   C26   S    
C3    O5    A    
Cu2   O2    S    
C13   C27   S    
Cu2   O7    S    
C24   N6    T    
Cu1   O8    S    
C4    C19   S    
C7    N1    T    
C1    C32   S    
C21   N4    T    
C13   C24   S    
C2    O2    A    
C16   C17   T    
C32   O3    A    
