data_mof_unit_63635.cif
_audit_creation_date              2012-12-10T19:56:06-0500
_audit_creation_method            fapswitch 2.2
_symmetry_space_group_name_H-M    P1
_symmetry_Int_Tables_number       1
_space_group_crystal_system       triclinic
_cell_length_a                    18.274332
_cell_length_b                    18.274335
_cell_length_c                    35.658606
_cell_angle_alpha                 89.999978
_cell_angle_beta                  89.976203
_cell_angle_gamma                 89.999979
_cell_volume                      11908.2355501

loop_
_atom_site_label
_atom_site_type_symbol
_atom_type_description
_atom_site_fract_x
_atom_site_fract_y
_atom_site_fract_z
_atom_type_partial_charge
C1    C     C_R   0.500000 0.141145 0.500000 0.999042
C2    C     C_1   0.717738 0.500004 0.499998 -0.151491
C3    C     C_2   0.081813 0.610117 0.194882 0.931635
C4    C     C_2   0.389912 0.918092 0.805134 0.931997
C5    C     C_2   0.918055 0.610026 0.805120 0.931619
C6    C     C_2   0.593245 0.102057 0.805455 1.004300
C7    C     C_2   0.102147 0.406806 0.805454 1.004271
C8    C     C_2   0.892710 0.584069 0.695150 0.932370
C9    C     C_2   0.415805 0.892782 0.695141 0.932517
C10   C     C_2   0.097968 0.401601 0.694350 0.976597
C11   C     C_2   0.598359 0.097963 0.694355 0.976440
C12   C     C_2   0.902044 0.401574 0.305653 0.976597
C13   C     C_1   0.500000 0.717738 0.500000 -0.151967
C14   C     C_2   0.401647 0.097961 0.305643 0.976438
C15   C     C_2   0.107267 0.584081 0.304845 0.932394
C16   C     C_2   0.584190 0.892769 0.304861 0.932522
C17   C     C_2   0.396817 0.092024 0.113243 0.984744
C18   C     C_2   0.907974 0.396787 0.113232 0.984727
C19   C     C_2   0.606029 0.913622 0.113015 0.958162
C20   C     C_2   0.086255 0.606095 0.113025 0.958512
C21   C     C_2   0.393949 0.913653 0.886984 0.958144
C22   C     C_2   0.913659 0.606036 0.886974 0.958467
C23   C     C_2   0.603217 0.091989 0.886759 0.984704
C24   C     C_1   0.282262 0.500004 0.500002 -0.151488
C25   C     C_2   0.092103 0.396860 0.886763 0.984785
C26   C     C_2   0.894136 0.586196 0.613258 0.955643
C27   C     C_2   0.413716 0.894189 0.613250 0.956265
C28   C     C_2   0.103304 0.407861 0.612997 0.998598
C29   C     C_2   0.592111 0.103308 0.613006 0.998383
C30   C     C_2   0.896702 0.407849 0.387006 0.998595
C31   C     C_2   0.407890 0.103306 0.386993 0.998391
C32   C     C_2   0.105847 0.586209 0.386738 0.955684
C33   C     C_2   0.586279 0.894181 0.386752 0.956259
C34   C     C_1   1.000000 0.782261 1.000000 -0.150852
C35   C     C_1   0.217738 0.999996 0.999968 -0.150228
C36   C     C_1   0.000000 0.217737 1.000000 -0.149614
C37   C     C_1   0.782262 0.999996 0.000032 -0.150230
C38   C     C_1   0.500000 0.217536 0.500000 -0.136060
C39   C     C_1   0.782465 0.500007 0.500031 -0.135978
C40   C     C_1   0.500000 0.782466 0.500000 -0.135928
C41   C     C_R   0.858855 0.500003 0.500070 0.990501
C42   C     C_1   0.217535 0.500007 0.499969 -0.135973
C43   C     C_1   1.000000 0.717534 1.000000 -0.134377
C44   C     C_1   0.282465 0.999994 0.999944 -0.135531
C45   C     C_1   0.000000 0.282463 0.999999 -0.136686
C46   C     C_1   0.717535 0.999994 0.000057 -0.135531
C47   C     C_R   0.499977 0.000343 0.426771 0.934876
C48   C     C_R   0.999660 0.499962 0.426771 0.934800
C49   C     C_R   0.500023 0.000344 0.573229 0.934877
C50   C     C_R   0.000339 0.499963 0.573228 0.934846
C51   C     C_R   0.000064 0.499678 0.926772 0.934112
C52   C     C_R   0.500000 0.858855 0.500000 0.982082
C53   C     C_R   0.500324 0.000049 0.926772 0.934165
C54   C     C_R   0.999936 0.499676 0.073228 0.934107
C55   C     C_R   0.499676 0.000050 0.073228 0.934101
C56   C     C_R   0.455510 0.051637 0.173468 -0.090556
C57   C     C_R   0.948347 0.455463 0.173465 -0.090227
C58   C     C_R   0.554125 0.960376 0.173622 -0.060164
C59   C     C_R   0.039536 0.554146 0.173631 -0.060652
C60   C     C_R   0.445866 0.960397 0.826377 -0.060159
C61   C     C_R   0.960402 0.554108 0.826369 -0.060624
C62   C     C_R   0.544514 0.051622 0.826533 -0.090550
C63   C     C_R   0.141145 0.500003 0.499929 0.990471
C64   C     C_R   0.051685 0.455513 0.826532 -0.090209
C65   C     C_R   0.948206 0.541438 0.673762 -0.059661
C66   C     C_R   0.458471 0.948254 0.673758 -0.059688
C67   C     C_R   0.047234 0.450500 0.673467 -0.075340
C68   C     C_R   0.549447 0.047246 0.673469 -0.075324
C69   C     C_R   0.952768 0.450485 0.326535 -0.075355
C70   C     C_R   0.450556 0.047242 0.326530 -0.075325
C71   C     C_R   0.051782 0.541439 0.326235 -0.059686
C72   C     C_R   0.541527 0.948245 0.326243 -0.059688
C73   C     C_R   0.451735 0.047643 0.134047 -0.116088
C74   C     C_R   1.000000 0.641145 1.000000 0.980424
C75   C     C_R   0.952336 0.451713 0.134042 -0.115842
C76   C     C_R   0.551244 0.957147 0.134125 -0.103682
C77   C     C_R   0.042770 0.551277 0.134132 -0.103955
C78   C     C_R   0.448746 0.957163 0.865874 -0.103704
C79   C     C_R   0.957182 0.551246 0.865868 -0.103946
C80   C     C_R   0.548284 0.047628 0.865955 -0.116092
C81   C     C_R   0.047700 0.451755 0.865955 -0.115869
C82   C     C_R   0.949757 0.543477 0.634233 -0.102971
C83   C     C_R   0.456448 0.949798 0.634230 -0.103171
C84   C     C_R   0.049438 0.453170 0.633980 -0.112471
C85   C     C_R   0.358855 0.999997 0.999926 0.989636
C86   C     C_R   0.546787 0.049450 0.633984 -0.112412
C87   C     C_R   0.950564 0.453161 0.366021 -0.112458
C88   C     C_R   0.453215 0.049447 0.366015 -0.112414
C89   C     C_R   0.050232 0.543481 0.365764 -0.102968
C90   C     C_R   0.543550 0.949792 0.365771 -0.103170
C91   C     C_R   0.499976 0.000611 0.114467 -0.178757
C92   C     C_R   0.999345 0.499982 0.114467 -0.178796
C93   C     C_R   0.500026 0.000612 0.885533 -0.178751
C94   C     C_R   0.000654 0.499987 0.885532 -0.178804
C95   C     C_R   0.000541 0.499606 0.614472 -0.184446
C96   C     C_R   0.000000 0.358855 0.999999 0.998962
C97   C     C_R   0.500349 0.000560 0.614472 -0.184555
C98   C     C_R   0.999455 0.499605 0.385527 -0.184448
C99   C     C_R   0.499651 0.000557 0.385528 -0.184557
C100  C     C_R   0.358665 0.500001 0.500005 0.917582
C101  C     C_R   0.500000 0.358665 0.500000 0.917553
C102  C     C_R   0.641335 0.500001 0.499995 0.917583
C103  C     C_R   0.500000 0.641335 0.500000 0.917619
C104  C     C_R   0.858665 0.999999 0.000008 0.916481
C105  C     C_R   1.000000 0.858664 0.000000 0.916040
C106  C     C_R   0.141335 0.999999 0.999992 0.916483
C107  C     C_R   0.641145 0.999997 0.000075 0.989620
C108  C     C_R   0.000000 0.141335 1.000000 0.916928
C109  C     C_R   0.505618 0.007074 0.192958 -0.020609
C110  C     C_R   0.992881 0.505589 0.192962 -0.020480
C111  C     C_R   0.494390 0.007079 0.807042 -0.020616
C112  C     C_R   0.007102 0.505599 0.807037 -0.020482
C113  C     C_R   0.997600 0.495632 0.693049 -0.028148
C114  C     C_R   0.504296 0.997626 0.693048 -0.027996
C115  C     C_R   0.002394 0.495623 0.306951 -0.028148
C116  C     C_R   0.495707 0.997619 0.306952 -0.027996
C117  C     C_1   0.502582 0.004375 0.233211 0.109263
C118  C     C_1   0.500000 0.282263 0.500000 -0.151039
C119  C     C_1   0.995598 0.502522 0.233214 0.109310
C120  C     C_1   0.497426 0.004382 0.766789 0.109244
C121  C     C_1   0.004386 0.502536 0.766785 0.109254
C122  C     C_1   0.001241 0.499217 0.733273 0.105865
C123  C     C_1   0.500725 0.001252 0.733274 0.105382
C124  C     C_1   0.998747 0.499204 0.266726 0.105915
C125  C     C_1   0.499281 0.001244 0.266726 0.105391
C126  C     C_2   0.406801 0.102092 0.194547 1.004288
C127  C     C_2   0.897931 0.406706 0.194540 1.004278
C128  C     C_2   0.610063 0.918046 0.194863 0.931992
H1    H     H_    0.399196 0.187082 0.230324 0.365232
H2    H     H_    0.416637 0.813429 0.734448 0.376551
H3    H     H_    0.201487 0.366112 0.701882 0.361649
H4    H     H_    0.633866 0.201475 0.701909 0.361641
H5    H     H_    0.798530 0.366073 0.298119 0.361650
H6    H     H_    0.366137 0.201471 0.298091 0.361639
H7    H     H_    0.186573 0.583226 0.265496 0.376335
H8    H     H_    0.583352 0.813411 0.265557 0.376543
H9    H     H_    0.315198 0.093719 0.075198 0.350797
H10   H     H_    0.906310 0.315159 0.075176 0.350560
H11   H     H_    0.693491 0.914358 0.078538 0.349042
H12   H     H_    0.812956 0.399018 0.230338 0.365391
H13   H     H_    0.085455 0.693543 0.078557 0.349243
H14   H     H_    0.306506 0.914410 0.921473 0.349033
H15   H     H_    0.914400 0.693474 0.921449 0.349259
H16   H     H_    0.684831 0.093656 0.924807 0.350789
H17   H     H_    0.093826 0.315223 0.924814 0.350580
H18   H     H_    0.806796 0.584162 0.578745 0.348742
H19   H     H_    0.415730 0.806861 0.578709 0.348996
H20   H     H_    0.184337 0.404687 0.574623 0.349725
H21   H     H_    0.595308 0.184343 0.574650 0.349481
H22   H     H_    0.815669 0.404673 0.425380 0.349725
H23   H     H_    0.689641 0.919300 0.234036 0.377346
H24   H     H_    0.404692 0.184343 0.425347 0.349482
H25   H     H_    0.193200 0.584189 0.421242 0.348748
H26   H     H_    0.584260 0.806856 0.421294 0.348994
H27   H     H_    0.080496 0.689623 0.234110 0.377405
H28   H     H_    0.310338 0.919381 0.765959 0.377352
H29   H     H_    0.919283 0.689578 0.765916 0.377394
H30   H     H_    0.600891 0.187056 0.769687 0.365238
H31   H     H_    0.187114 0.399204 0.769647 0.365381
H32   H     H_    0.813368 0.583187 0.734480 0.376339
O1    O     O_R   0.560470 0.107230 0.500140 -0.611735
O2    O     O_R   0.392770 0.060470 0.000140 -0.610912
O3    O     O_R   0.450471 0.841177 0.592196 -0.810114
O4    O     O_2   0.106491 0.341837 0.618367 -0.573888
O5    O     O_R   0.150206 0.441024 0.587105 -0.800416
O6    O     O_2   0.658135 0.106483 0.618366 -0.573165
O7    O     O_R   0.558962 0.150218 0.587130 -0.802002
O8    O     O_2   0.893520 0.341824 0.381638 -0.573893
O9    O     O_R   0.849796 0.441012 0.412896 -0.800414
O10   O     O_2   0.341866 0.106480 0.381632 -0.573163
O11   O     O_R   0.441039 0.150218 0.412867 -0.802002
O12   O     O_2   0.103961 0.653070 0.386436 -0.533127
O13   O     O_R   0.939530 0.392770 0.000140 -0.611131
O14   O     O_R   0.158883 0.549450 0.407756 -0.811660
O15   O     O_2   0.653139 0.896046 0.386422 -0.533814
O16   O     O_R   0.549520 0.841173 0.407808 -0.810116
O17   O     O_R   0.607230 0.939530 0.000140 -0.612372
O18   O     O_R   0.060470 0.392770 0.999860 -0.611105
O19   O     O_R   0.392770 0.939530 0.999860 -0.612376
O20   O     O_R   0.939530 0.607230 0.999860 -0.612180
O21   O     O_R   0.607230 0.060470 0.999860 -0.610920
O22   O     O_R   0.560470 0.999900 0.444700 -0.604880
O23   O     O_R   0.000100 0.560470 0.444700 -0.604073
O24   O     O_R   0.439530 0.000100 0.444700 -0.608565
O25   O     O_R   0.892770 0.560470 0.500140 -0.612260
O26   O     O_R   0.999900 0.439530 0.444700 -0.609375
O27   O     O_R   0.560470 0.000100 0.555300 -0.608566
O28   O     O_R   0.000100 0.439530 0.555300 -0.609372
O29   O     O_R   0.439530 0.999900 0.555300 -0.604881
O30   O     O_R   0.999900 0.560470 0.555300 -0.604078
O31   O     O_R   0.060470 0.499900 0.944700 -0.608273
O32   O     O_R   0.500100 0.060470 0.944700 -0.608684
O33   O     O_R   0.939530 0.500100 0.944700 -0.604806
O34   O     O_R   0.499900 0.939530 0.944700 -0.604401
O35   O     O_R   0.060470 0.500100 0.055300 -0.604789
O36   O     O_R   0.439530 0.892770 0.500140 -0.611673
O37   O     O_R   0.500100 0.939530 0.055300 -0.604401
O38   O     O_R   0.939530 0.499900 0.055300 -0.608267
O39   O     O_R   0.499900 0.060470 0.055300 -0.608691
O40   O     O_R   0.392480 0.499860 0.468850 -0.609604
O41   O     O_R   0.500140 0.392480 0.468850 -0.608259
O42   O     O_R   0.607520 0.500140 0.468850 -0.607915
O43   O     O_R   0.499860 0.607520 0.468850 -0.609264
O44   O     O_R   0.392480 0.500140 0.531150 -0.607914
O45   O     O_R   0.500140 0.607520 0.531150 -0.609264
O46   O     O_R   0.607520 0.499860 0.531150 -0.609604
O47   O     O_R   0.107230 0.439530 0.500140 -0.611135
O48   O     O_R   0.499860 0.392480 0.531150 -0.608258
O49   O     O_R   0.892480 0.999860 0.968850 -0.607674
O50   O     O_R   0.000140 0.892480 0.968850 -0.608903
O51   O     O_R   0.107520 0.000140 0.968850 -0.608564
O52   O     O_R   0.999860 0.107520 0.968850 -0.607325
O53   O     O_R   0.892480 0.000140 0.031150 -0.608558
O54   O     O_R   0.000140 0.107520 0.031150 -0.607327
O55   O     O_R   0.107520 0.999860 0.031150 -0.607668
O56   O     O_R   0.999860 0.892480 0.031150 -0.608910
O57   O     O_2   0.340436 0.098800 0.190472 -0.550066
O58   O     O_R   0.560470 0.892770 0.499860 -0.611674
O59   O     O_R   0.437427 0.153912 0.218708 -0.762603
O60   O     O_2   0.901268 0.340346 0.190438 -0.550031
O61   O     O_R   0.846096 0.437280 0.218727 -0.760996
O62   O     O_2   0.617725 0.852479 0.189341 -0.550987
O63   O     O_R   0.653471 0.953543 0.221529 -0.769575
O64   O     O_2   0.147359 0.617892 0.189326 -0.551601
O65   O     O_R   0.046289 0.653426 0.221597 -0.769430
O66   O     O_2   0.382222 0.852528 0.810655 -0.550974
O67   O     O_R   0.346520 0.953608 0.778469 -0.769581
O68   O     O_2   0.852487 0.617674 0.810655 -0.551552
O69   O     O_R   0.892770 0.439530 0.499860 -0.611129
O70   O     O_R   0.953537 0.653426 0.778429 -0.769388
O71   O     O_2   0.659609 0.098726 0.809527 -0.550069
O72   O     O_R   0.562643 0.153903 0.781302 -0.762580
O73   O     O_2   0.098885 0.340444 0.809561 -0.550035
O74   O     O_R   0.153938 0.437432 0.781260 -0.761017
O75   O     O_2   0.885592 0.649736 0.689758 -0.548166
O76   O     O_R   0.849206 0.548745 0.721851 -0.773394
O77   O     O_2   0.350132 0.885716 0.689766 -0.548767
O78   O     O_R   0.451103 0.849245 0.721820 -0.771474
O79   O     O_2   0.073886 0.359611 0.718029 -0.575577
O80   O     O_R   0.439530 0.107230 0.499860 -0.611735
O81   O     O_R   0.172950 0.403065 0.686542 -0.758802
O82   O     O_2   0.640355 0.073865 0.718013 -0.574769
O83   O     O_R   0.596903 0.172949 0.686571 -0.759907
O84   O     O_2   0.926136 0.359577 0.281980 -0.575584
O85   O     O_R   0.827060 0.403034 0.313457 -0.758783
O86   O     O_2   0.359658 0.073863 0.281981 -0.574768
O87   O     O_R   0.403097 0.172945 0.313430 -0.759919
O88   O     O_2   0.114395 0.649743 0.310248 -0.548193
O89   O     O_R   0.150747 0.548775 0.278128 -0.773429
O90   O     O_2   0.649863 0.885700 0.310236 -0.548765
O91   O     O_R   0.107230 0.560470 0.499860 -0.612260
O92   O     O_R   0.548889 0.849230 0.278184 -0.771470
O93   O     O_2   0.392713 0.158038 0.118484 -0.574148
O94   O     O_R   0.350032 0.057983 0.087612 -0.801176
O95   O     O_2   0.841960 0.392669 0.118481 -0.573697
O96   O     O_R   0.942034 0.350005 0.087589 -0.801956
O97   O     O_2   0.602808 0.846809 0.113111 -0.533530
O98   O     O_R   0.659836 0.949596 0.092137 -0.810292
O99   O     O_2   0.153071 0.602924 0.113107 -0.533977
O100  O     O_R   0.050241 0.659866 0.092160 -0.809782
O101  O     O_2   0.397135 0.846838 0.886877 -0.533521
O102  O     O_R   0.060470 0.607230 0.000140 -0.612203
O103  O     O_R   0.340172 0.949641 0.907876 -0.810309
O104  O     O_2   0.846845 0.602836 0.886881 -0.533995
O105  O     O_R   0.949636 0.659817 0.907849 -0.809771
O106  O     O_2   0.607350 0.158000 0.881515 -0.574146
O107  O     O_R   0.649983 0.057933 0.912394 -0.801194
O108  O     O_2   0.158122 0.392801 0.881518 -0.573689
O109  O     O_R   0.058076 0.350042 0.912400 -0.801933
O110  O     O_2   0.895995 0.653057 0.613570 -0.533137
O111  O     O_R   0.841122 0.549428 0.592229 -0.811668
O112  O     O_2   0.346856 0.896058 0.613580 -0.533814
Zn1   Zn    Zn3+2 0.580800 1.000000 0.500000 1.080027
Zn2   Zn    Zn3+2 0.500000 0.500000 0.541650 1.056571
Zn3   Zn    Zn3+2 0.000000 0.000000 0.958350 1.062430
Zn4   Zn    Zn3+2 0.000000 0.000000 0.041650 1.062436
Zn5   Zn    Zn3+2 0.000000 0.580800 0.500000 1.087153
Zn6   Zn    Zn3+2 0.419200 1.000000 0.500000 1.080027
Zn7   Zn    Zn3+2 0.000000 0.419200 0.500000 1.072913
Zn8   Zn    Zn3+2 0.080800 0.500000 0.000000 1.080365
Zn9   Zn    Zn3+2 0.500000 0.080800 0.000000 1.073786
Zn10  Zn    Zn3+2 0.919200 0.500000 0.000000 1.080354
Zn11  Zn    Zn3+2 0.500000 0.919200 0.000000 1.086912
Zn12  Zn    Zn3+2 0.500000 0.500000 0.458350 1.056570

loop_
_geom_bond_atom_site_label_1
_geom_bond_atom_site_label_2
_ccdc_geom_bond_type
C63   O91   A    
C12   C69   S    
C7    O73   D    
C77   C92   A    
C58   C128  S    
C18   C75   S    
O40   Zn12  S    
O30   Zn5   S    
C6    O72   S    
C36   C108  S    
C58   C109  A    
C68   C86   A    
C56   C109  A    
C108  O54   A    
C52   O36   A    
C70   C88   A    
C16   C72   S    
C59   C77   A    
C19   O98   S    
C54   C92   S    
C51   C94   S    
C16   O92   S    
C109  C117  S    
C39   C41   S    
C10   C67   S    
O26   Zn7   S    
C33   O15   D    
O21   Zn9   S    
C106  O55   A    
C60   C78   A    
C3    O64   D    
C31   O11   S    
C20   C77   S    
C107  O21   A    
O51   Zn3   S    
C101  C118  S    
C62   C80   A    
C19   C76   S    
O31   Zn8   S    
C22   C79   S    
C61   C112  A    
C60   C111  A    
H32   O76   S    
C50   C95   S    
C64   C112  A    
H22   O9    S    
C49   O29   A    
C2    C102  S    
C78   C93   A    
O24   Zn6   S    
C12   O85   S    
O39   Zn9   S    
H11   O98   S    
C59   C110  A    
C47   C99   S    
C128  O63   S    
H17   O109  S    
C4    O67   S    
C115  C124  S    
C86   C97   A    
C33   O16   S    
C9    C66   S    
C70   C116  A    
C13   C40   T    
C55   C91   S    
C33   C90   S    
C27   O3    S    
C66   C83   A    
O38   Zn10  S    
H20   O5    S    
C2    C39   T    
O17   Zn11  S    
C69   C115  A    
C62   C111  A    
C32   C89   S    
C22   O104  D    
C12   O84   D    
C30   C87   S    
O54   Zn4   S    
C21   C78   S    
H29   O70   S    
O27   Zn1   S    
C96   O18   A    
C57   C75   A    
C54   O35   A    
C4    O66   D    
C23   C80   S    
C13   C103  S    
C3    O65   S    
H9    O94   S    
C69   C87   A    
C120  C123  T    
C87   C98   A    
C43   C74   S    
O48   Zn2   S    
C27   O112  D    
C32   O12   D    
C7    O74   S    
C1    O1    A    
C10   O79   D    
C26   C82   S    
C105  O56   A    
C26   O110  D    
C6    O71   D    
C107  O17   A    
C17   C73   S    
C53   O34   A    
C14   C70   S    
C10   O81   S    
C104  O49   A    
H7    O89   S    
C47   O22   A    
H10   O96   S    
O43   Zn12  S    
O41   Zn12  S    
C108  O52   A    
C21   O103  S    
C57   C127  S    
O23   Zn5   S    
C50   O30   A    
H21   O7    S    
C20   O99   D    
C1    O80   A    
C82   C95   A    
C55   O39   A    
C17   O94   S    
C68   C114  A    
H2    O78   S    
O55   Zn4   S    
C113  C122  S    
O42   Zn12  S    
C7    C64   S    
C36   C45   T    
C73   C91   A    
C79   C94   A    
C96   O13   A    
H30   O72   S    
H24   O11   S    
O46   Zn2   S    
C11   C68   S    
H3    O81   S    
O13   Zn10  S    
C15   O89   S    
O49   Zn3   S    
C90   C99   A    
C40   C52   S    
C85   O2    A    
O45   Zn2   S    
O69   Zn7   S    
C11   O83   S    
C105  O50   A    
C111  C120  S    
H15   O105  S    
C84   C95   A    
C29   O6    D    
C110  C119  S    
O91   Zn5   S    
C30   O9    S    
C48   O26   A    
C101  O48   A    
C48   O23   A    
C72   C90   A    
C29   O7    S    
H4    O83   S    
C57   C110  A    
C71   C89   A    
O53   Zn4   S    
C128  O62   D    
C28   O5    S    
C85   O19   A    
C17   O93   D    
C46   C107  S    
C4    C60   S    
O50   Zn3   S    
O56   Zn4   S    
C71   C115  A    
C49   O27   A    
C35   C44   T    
C102  O46   A    
C121  C122  T    
O37   Zn11  S    
O1    Zn1   S    
C1    C38   S    
C20   O100  S    
O22   Zn1   S    
C114  C123  S    
C100  O40   A    
H28   O67   S    
C21   O101  D    
C41   O69   A    
O32   Zn9   S    
O58   Zn1   S    
C56   C126  S    
C116  C125  S    
C51   O33   A    
O34   Zn11  S    
H31   O74   S    
O80   Zn6   S    
H16   O107  S    
H14   O103  S    
O20   Zn10  S    
C44   C85   S    
C8    O76   S    
H6    O87   S    
C41   O25   A    
C25   O108  D    
C51   O31   A    
C126  O59   S    
C28   O4    D    
O47   Zn7   S    
C14   O87   S    
O2    Zn9   S    
C3    C59   S    
H18   O111  S    
O102  Zn8   S    
C16   O90   D    
C56   C73   A    
C66   C114  A    
O35   Zn8   S    
C58   C76   A    
C34   C105  S    
C65   C113  A    
C31   C88   S    
O52   Zn3   S    
C103  O45   A    
C47   O24   A    
C25   C81   S    
O25   Zn5   S    
C50   O28   A    
C19   O97   D    
C37   C104  S    
C24   C100  S    
C126  O57   D    
C31   O10   D    
C18   O95   D    
C15   C71   S    
O29   Zn6   S    
C72   C116  A    
C23   O106  D    
C52   O58   A    
C54   O38   A    
C5    O68   D    
H26   O16   S    
C89   C98   A    
C18   O96   S    
C6    C62   S    
C27   C83   S    
C67   C113  A    
C28   C84   S    
C30   O8    D    
C112  C121  S    
H1    O59   S    
O33   Zn10  S    
C101  O41   A    
C104  O53   A    
O19   Zn11  S    
C29   C86   S    
C9    O77   D    
C81   C94   A    
C100  O44   A    
C22   O105  S    
H27   O65   S    
C65   C82   A    
C55   O37   A    
C32   O14   S    
C61   C79   A    
C106  O51   A    
H25   O14   S    
C23   O107  S    
C37   C46   T    
H13   O100  S    
H23   O63   S    
C119  C124  T    
C48   C98   S    
H19   O3    S    
C102  O42   A    
H12   O61   S    
C53   O32   A    
C103  O43   A    
C64   C81   A    
C88   C99   A    
O36   Zn6   S    
C24   C42   T    
C127  O61   S    
C76   C91   A    
O44   Zn2   S    
C26   O111  S    
C38   C118  T    
C8    O75   D    
O18   Zn8   S    
C8    C65   S    
C74   O20   A    
C15   O88   D    
C74   O102  A    
C83   C97   A    
C75   C92   A    
C9    O78   S    
C35   C106  S    
C11   O82   D    
C5    O70   S    
H8    O92   S    
C63   O47   A    
C127  O60   D    
C80   C93   A    
C34   C43   T    
C45   C96   S    
C117  C125  T    
C42   C63   S    
C53   C93   S    
C25   O109  S    
C5    C61   S    
H5    O85   S    
C67   C84   A    
C14   O86   D    
O28   Zn7   S    
C49   C97   S    
