data_mof_unit_68144.cif
_audit_creation_date              2013-03-05T15:59:43-0500
_audit_creation_method            fapswitch 2.2
_symmetry_space_group_name_H-M    P1
_symmetry_Int_Tables_number       1
_space_group_crystal_system       triclinic
_cell_length_a                    7.085931
_cell_length_b                    14.536568
_cell_length_c                    15.720887
_cell_angle_alpha                 90.724125
_cell_angle_beta                  90.311844
_cell_angle_gamma                 90.206941
_cell_volume                      1619.16754079

loop_
_atom_site_label
_atom_site_type_symbol
_atom_site_description
_atom_site_fract_x
_atom_site_fract_y
_atom_site_fract_z
_atom_type_partial_charge
O1    O     O_R   0.638960 0.835150 0.161940 -0.597919
O2    O     O_R   0.361040 0.164850 0.838060 -0.594340
O3    O     O_R   0.309170 0.846340 0.337470 -0.615066
O4    O     O_R   0.690830 0.153660 0.662530 -0.602193
O5    O     O_R   0.138810 0.664830 0.338070 -0.594968
O6    O     O_R   0.861190 0.335170 0.661930 -0.593313
C1    C     C_R   0.478131 0.868588 0.365572 0.935553
C2    C     C_R   0.522134 0.131733 0.633680 0.928917
O7    O     O_R   0.309250 0.846350 0.162570 -0.545934
O8    O     O_R   0.690750 0.153650 0.837430 -0.545766
O9    O     O_R   0.138880 0.664840 0.161920 -0.584303
O10   O     O_R   0.861120 0.335160 0.838080 -0.585948
C3    C     C_R   0.478766 0.866351 0.132224 0.981129
C4    C     C_R   0.521139 0.134821 0.869002 0.981986
O11   O     O_R   0.638880 0.835150 0.338090 -0.584619
O12   O     O_R   0.361120 0.164850 0.661910 -0.584163
O13   O     O_3   0.472380 0.690440 0.250000 -0.267841
O14   O     O_3   0.527620 0.309560 0.750000 -0.268760
V1    V     V_3+5 0.197550 0.761040 0.250010 1.173921
V2    V     V_3+5 0.802450 0.238960 0.749990 1.182205
O15   O     O_R   0.809160 0.653640 0.162540 -0.610045
O16   O     O_R   0.190840 0.346360 0.837460 -0.610797
C5    C     C_R   0.976928 0.631141 0.134243 0.935870
C6    C     C_R   0.023222 0.368454 0.865997 0.935344
O17   O     O_R   0.809090 0.653640 0.337440 -0.543313
O18   O     O_R   0.190910 0.346360 0.662560 -0.542659
C7    C     C_R   0.978743 0.635381 0.369052 0.994038
C8    C     C_R   0.020935 0.367752 0.632968 0.992172
V3    V     V_3+5 0.697540 0.738950 0.250000 1.177268
V4    V     V_3+5 0.302460 0.261050 0.750000 1.182322
O19   O     O_3   0.972580 0.809550 0.250010 -0.272619
O20   O     O_3   0.027420 0.190450 0.749990 -0.265483
C9    C     C_3   0.097569 0.578470 0.529400 0.152272
C10   C     C_3   0.902093 0.429225 0.474944 0.150119
C11   C     C_3   0.923704 0.537234 0.574024 0.096387
C12   C     C_3   0.076645 0.470112 0.430659 0.098218
C13   C     C_3   0.006249 0.439043 0.562033 -0.449083
C14   C     C_3   0.993507 0.567793 0.442427 -0.452477
C15   C     C_3   0.180719 0.479897 0.517325 0.388789
C16   C     C_3   0.819214 0.527766 0.487383 0.393046
C17   C     C_3   0.854936 0.440163 0.002032 -0.189242
C18   C     C_3   0.145984 0.558758 0.998512 -0.189183
C19   C     C_3   0.999727 0.455248 0.075324 -0.191149
C20   C     C_3   0.001198 0.543729 0.925241 -0.193112
H1    H     H_    0.995480 0.419136 0.137060 0.122703
H2    H     H_    0.005664 0.580029 0.863632 0.120599
H3    H     H_    0.743276 0.387025 0.000744 0.142771
H4    H     H_    0.257740 0.611855 0.999657 0.141933
C21   C     C_3   0.984286 0.560243 0.063607 -0.210471
C22   C     C_3   0.016441 0.438792 0.936910 -0.208516
C23   C     C_3   0.840683 0.545264 0.991061 0.340102
C24   C     C_3   0.160216 0.453572 0.009385 0.341863
C25   C     C_3   0.648353 0.009755 0.446534 -0.264468
C26   C     C_3   0.351775 0.990345 0.551022 -0.209977
C27   C     C_3   0.502234 0.085787 0.466973 -0.181387
C28   C     C_3   0.499875 0.914488 0.530639 -0.191010
H5    H     H_    0.507161 0.156470 0.441223 0.130671
H6    H     H_    0.499451 0.843527 0.555826 0.134889
H7    H     H_    0.762028 0.014796 0.399257 0.157918
H8    H     H_    0.234694 0.981853 0.596444 0.134533
C29   C     C_3   0.513298 0.061394 0.562384 -0.153417
C30   C     C_3   0.488007 0.939105 0.435842 -0.204694
C31   C     C_3   0.659377 0.986253 0.541890 0.342110
C32   C     C_3   0.342351 0.014153 0.455431 0.318375
C33   C     C_3   0.597567 0.927723 0.974551 0.143143
C34   C     C_3   0.401400 0.074752 0.029291 0.140367
C35   C     C_3   0.423406 0.967795 0.929377 0.095237
C36   C     C_3   0.575878 0.034380 0.074234 0.099414
C37   C     C_3   0.505728 0.066245 0.942280 -0.443479
C38   C     C_3   0.493193 0.936502 0.060907 -0.447612
C39   C     C_3   0.680152 0.026293 0.988032 0.390977
C40   C     C_3   0.319146 0.976216 0.015543 0.398612
C41   C     C_3   0.831185 0.566010 0.658520 -0.225049
C42   C     C_3   0.786560 0.668748 0.664968 -0.978352
H9    H     H_    0.911115 0.708380 0.687628 0.264542
H10   H     H_    0.738447 0.696445 0.603232 0.296909
H11   H     H_    0.673673 0.680462 0.712212 0.255030
H12   H     H_    0.698691 0.525922 0.665444 0.225268
H13   H     H_    0.925103 0.547102 0.712191 0.146116
C43   C     C_3   0.170116 0.444030 0.345623 -0.227228
C44   C     C_3   0.224015 0.342944 0.338810 -0.991895
H14   H     H_    0.287291 0.319284 0.399074 0.299061
H15   H     H_    0.100166 0.299984 0.321407 0.268022
H16   H     H_    0.329587 0.333108 0.288037 0.260177
H17   H     H_    0.074084 0.461044 0.292115 0.148973
H18   H     H_    0.299248 0.486694 0.338664 0.228845
C45   C     C_3   0.331760 0.939414 0.843762 -0.235819
C46   C     C_3   0.280391 0.837263 0.836117 -0.966833
H19   H     H_    0.403924 0.795427 0.817701 0.258606
H20   H     H_    0.221924 0.810608 0.896206 0.297681
H21   H     H_    0.174227 0.827269 0.784741 0.252927
H22   H     H_    0.201622 0.980764 0.835504 0.222082
H23   H     H_    0.428345 0.957158 0.791026 0.153071
C47   C     C_3   0.668835 0.059604 0.160443 -0.231442
C48   C     C_3   0.717884 0.161532 0.171948 -0.964790
H24   H     H_    0.776417 0.190946 0.112933 0.296248
H25   H     H_    0.592775 0.201581 0.191896 0.261445
H26   H     H_    0.823733 0.169498 0.223814 0.253437
H27   H     H_    0.574535 0.038751 0.213058 0.146938
H28   H     H_    0.799829 0.018537 0.166638 0.221402
C49   C     C_3   0.687759 0.837168 0.948937 -0.273728
C50   C     C_3   0.798078 0.843306 0.866948 -0.887195
H29   H     H_    0.699043 0.851545 0.813462 0.258664
H30   H     H_    0.896954 0.902504 0.868906 0.316766
H31   H     H_    0.878023 0.778655 0.856592 0.253561
H32   H     H_    0.779453 0.812787 0.000839 0.227037
H33   H     H_    0.572740 0.786435 0.940584 0.186637
C51   C     C_3   0.307883 0.162018 0.062323 -0.279411
C52   C     C_3   0.202096 0.147426 0.145340 -0.860483
H34   H     H_    0.093994 0.092950 0.137166 0.309975
H35   H     H_    0.298806 0.127078 0.197227 0.247706
H36   H     H_    0.132290 0.212597 0.164554 0.245824
H37   H     H_    0.419548 0.213991 0.072695 0.190343
H38   H     H_    0.211812 0.189269 0.013486 0.223730
Br1   Br    Br    0.913967 0.090706 0.965738 -0.597384
Br2   Br    Br    0.083427 0.913611 0.037827 -0.598140
C53   C     C_3   0.190002 0.669522 0.557225 -0.262844
C54   C     C_3   0.298050 0.660410 0.640802 -0.882148
H39   H     H_    0.203753 0.640179 0.693311 0.251655
H40   H     H_    0.408611 0.607320 0.634402 0.313718
H41   H     H_    0.364646 0.727382 0.657846 0.241683
H42   H     H_    0.284776 0.694676 0.506965 0.221078
H43   H     H_    0.080357 0.723243 0.563888 0.173242
C55   C     C_3   0.807720 0.339475 0.445899 -0.276102
C56   C     C_3   0.704206 0.349751 0.361389 -0.890579
H44   H     H_    0.598086 0.405220 0.366352 0.313383
H45   H     H_    0.802610 0.367026 0.309503 0.252828
H46   H     H_    0.633040 0.283867 0.344496 0.244426
H47   H     H_    0.917060 0.286182 0.439751 0.185462
H48   H     H_    0.710342 0.314213 0.495075 0.225588
Br3   Br    Br    0.417876 0.419363 0.542630 -0.596269
Br4   Br    Br    0.585147 0.592325 0.464070 -0.596882
C57   C     C_3   0.656672 0.596835 0.982451 -0.378137
C58   C     C_3   0.585169 0.595943 0.890524 -0.953561
H49   H     H_    0.687133 0.632483 0.849889 0.269767
H50   H     H_    0.567846 0.524414 0.866104 0.274105
H51   H     H_    0.448256 0.632089 0.885621 0.254561
H52   H     H_    0.552717 0.566887 0.025968 0.200976
H53   H     H_    0.680545 0.667415 0.005163 0.178402
C59   C     C_3   0.344234 0.401645 0.017798 -0.378062
C60   C     C_3   0.415783 0.403097 0.109640 -0.961798
H54   H     H_    0.431280 0.474704 0.134122 0.276005
H55   H     H_    0.314037 0.365931 0.149847 0.268357
H56   H     H_    0.553418 0.367634 0.114764 0.255578
H57   H     H_    0.321258 0.330597 0.995552 0.176696
H58   H     H_    0.448023 0.431493 0.974130 0.201585
C61   C     C_3   0.847055 0.969343 0.586347 -0.386028
C62   C     C_3   0.819764 0.931100 0.674508 -0.939926
H59   H     H_    0.738757 0.979999 0.714797 0.270727
H60   H     H_    0.743500 0.864506 0.669994 0.261683
H61   H     H_    0.959682 0.919866 0.704444 0.263878
H62   H     H_    0.930067 0.919480 0.547838 0.185305
H63   H     H_    0.925856 0.034976 0.592028 0.210539
C63   C     C_3   0.167923 0.028755 0.400199 -0.339149
C64   C     C_3   0.075642 0.120777 0.419461 -0.996239
H64   H     H_    0.013582 0.122102 0.483815 0.264085
H65   H     H_    0.181594 0.176138 0.416123 0.274144
H66   H     H_    0.964085 0.134699 0.371580 0.260433
H67   H     H_    0.210795 0.027752 0.332308 0.192215
H68   H     H_    0.067429 0.971422 0.410363 0.189898

loop_
_geom_bond_atom_site_label_1
_geom_bond_atom_site_label_2
_geom_bond_distance
_ccdc_geom_bond_type
C49   H33   1.103365 S    
C34   C36   1.542190 S    
C45   C46   1.530699 S    
C9    C53   1.532390 S    
C49   C50   1.514519 S    
O6    C8    1.311529 A    
C64   H65   1.100533 S    
C10   C13   1.556558 S    
O13   V3    1.742025 S    
C41   C42   1.529916 S    
C61   C62   1.512935 S    
C62   H61   1.108673 S    
C33   C49   1.516211 S    
O4    C2    1.312972 A    
V1    O19   1.745454 S    
C58   H51   1.107749 S    
C44   H14   1.105282 S    
C25   H7    1.101840 S    
C48   H26   1.109571 S    
C26   H8    1.105145 S    
O9    V1    1.996700 S    
C9    C15   1.561045 S    
C42   H10   1.107958 S    
C10   C16   1.560537 S    
C8    C13   1.535284 S    
O16   C6    1.311503 A    
C11   C13   1.554166 S    
C62   H60   1.108262 S    
O3    C1    1.311872 A    
C52   H35   1.106328 S    
C9    C11   1.544018 S    
C19   C24   1.542986 S    
C5    C21   1.506695 S    
C34   C37   1.562147 S    
C3    C38   1.528651 S    
C7    C14   1.528046 S    
O12   V4    2.001919 S    
C33   C38   1.553563 S    
C32   C63   1.523651 S    
C51   C52   1.525336 S    
C50   H31   1.109776 S    
C29   C31   1.539881 S    
C35   C40   1.550198 S    
C51   H38   1.101703 S    
C37   C39   1.545407 S    
O7    C3    1.327468 A    
C54   H39   1.106850 S    
C25   C31   1.543339 S    
C43   H18   1.110216 S    
C24   C59   1.515023 S    
O5    C7    1.309480 A    
C60   H54   1.110084 S    
O7    V1    2.025295 S    
C34   C40   1.556556 S    
C48   H24   1.108395 S    
O8    V2    2.025294 S    
C33   C35   1.540378 S    
C42   H11   1.106677 S    
C56   H46   1.109376 S    
C30   C32   1.534061 S    
C41   H12   1.109780 S    
O3    V1    1.997889 S    
O14   V4    1.742026 S    
V4    O20   2.199333 S    
O14   V2    2.204577 S    
C2    C29   1.508464 S    
C1    O11   1.313173 A    
C16   Br4   1.944038 S    
C57   H52   1.100396 S    
C2    O12   1.317017 A    
C45   H22   1.110492 S    
C64   H66   1.109482 S    
O17   V3    2.022531 S    
C17   C19   1.551590 S    
C47   C48   1.528969 S    
C18   C20   1.551221 S    
C61   H63   1.106102 S    
C31   C61   1.521205 S    
C44   H15   1.106388 S    
C20   H2    1.109360 S    
O11   V3    2.001919 S    
C25   C27   1.549112 S    
O15   C5    1.312618 A    
C6    C22   1.504227 S    
C26   C28   1.556615 S    
C42   H9    1.107016 S    
C55   H48   1.104439 S    
C59   C60   1.527529 S    
C12   C43   1.538906 S    
C52   H36   1.109590 S    
C59   H58   1.100518 S    
C19   C21   1.543856 S    
C58   H50   1.109990 S    
C21   C23   1.537213 S    
C33   C39   1.557368 S    
O15   V3    2.007428 S    
C36   C47   1.543076 S    
C35   C37   1.553995 S    
C54   H41   1.109492 S    
C51   H37   1.102098 S    
C53   H42   1.104673 S    
C1    C30   1.498692 S    
C63   H68   1.107936 S    
C43   H17   1.109985 S    
C25   C30   1.535931 S    
C22   C24   1.536825 S    
C46   H21   1.108605 S    
C47   H28   1.109919 S    
C27   C32   1.544424 S    
O10   V2    1.996699 S    
O1    V3    2.022687 S    
C17   H3    1.103689 S    
C28   C31   1.543256 S    
C39   Br1   1.935966 S    
C18   H4    1.103742 S    
C62   H59   1.109703 S    
C50   H30   1.107747 S    
C19   H1    1.109735 S    
C63   C64   1.518850 S    
C20   C23   1.541845 S    
C36   C38   1.548113 S    
C46   H20   1.107468 S    
O18   V4    2.022532 S    
C27   H5    1.109599 S    
O8    C4    1.331641 A    
C57   C58   1.528696 S    
C4    C37   1.536996 S    
C28   C30   1.538974 S    
C60   H56   1.107802 S    
O1    C3    1.309867 A    
C27   C29   1.547290 S    
C12   C14   1.548594 S    
C17   C22   1.539676 S    
C44   H16   1.105240 S    
V2    O20   1.745454 S    
C20   C22   1.542809 S    
C49   H32   1.103056 S    
C40   Br2   1.935012 S    
C11   C41   1.538402 S    
C10   C55   1.527458 S    
O16   V4    2.007429 S    
O18   C8    1.328174 A    
C12   C15   1.550410 S    
C34   C51   1.520252 S    
C43   C44   1.522203 S    
C41   H13   1.109704 S    
C59   H57   1.097507 S    
C48   H25   1.106935 S    
C57   H53   1.094351 S    
C58   H49   1.105926 S    
O5    V1    2.024042 S    
C26   C29   1.546977 S    
O17   C7    1.327303 A    
O6    V2    2.024040 S    
O10   C6    1.315815 A    
C35   C45   1.542069 S    
C9    C14   1.555668 S    
O2    V4    2.022685 S    
C60   H55   1.105438 S    
C61   H62   1.110759 S    
C53   H43   1.107983 S    
C63   H67   1.111228 S    
V3    O19   2.199334 S    
C53   C54   1.524538 S    
C14   C16   1.542086 S    
C23   C57   1.512670 S    
C56   H44   1.106848 S    
C15   Br3   1.941354 S    
C47   H27   1.110615 S    
C36   C39   1.550402 S    
C45   H23   1.110214 S    
O9    C5    1.315805 A    
O13   V1    2.204577 S    
C28   H6    1.109575 S    
C55   H47   1.101381 S    
C11   C16   1.551106 S    
C10   C12   1.543465 S    
C50   H29   1.100261 S    
O2    C4    1.310379 A    
C54   H40   1.105776 S    
C18   C21   1.540419 S    
O4    V2    1.997891 S    
C46   H19   1.105471 S    
C26   C32   1.547520 S    
C13   C15   1.545900 S    
C64   H64   1.105311 S    
C56   H45   1.106679 S    
C38   C40   1.539107 S    
C52   H34   1.105598 S    
C17   C23   1.543280 S    
C18   C24   1.544315 S    
C55   C56   1.523362 S    
