data_mof_unit_48584.cif
_audit_creation_date              2012-12-10T17:02:32-0500
_audit_creation_method            fapswitch 2.2
_symmetry_space_group_name_H-M    P1
_symmetry_Int_Tables_number       1
_space_group_crystal_system       triclinic
_cell_length_a                    10.952471
_cell_length_b                    11.008637
_cell_length_c                    9.86501
_cell_angle_alpha                 109.244412
_cell_angle_beta                  99.381422
_cell_angle_gamma                 91.623266
_cell_volume                      1103.65039131

loop_
_atom_site_label
_atom_site_type_symbol
_atom_type_description
_atom_site_fract_x
_atom_site_fract_y
_atom_site_fract_z
_atom_type_partial_charge
C1    C     C_R   0.487816 0.255723 0.443558 0.942797
C2    C     C_R   0.511748 0.745541 0.555793 0.860838
C3    C     C_2   0.471026 0.119764 0.419150 -0.419257
C4    C     C_2   0.526485 0.883460 0.576019 -0.473146
C5    C     C_2   0.554802 0.062435 0.486016 0.439032
C6    C     C_2   0.527097 0.924827 0.460911 0.392236
C7    C     C_2   0.523058 0.505688 0.086664 0.595946
C8    C     C_2   0.528835 0.468100 0.921702 0.609116
C9    C     C_R   0.261367 0.491923 0.498062 0.760076
C10   C     C_R   0.737203 0.495922 0.499867 0.853627
C11   C     C_R   0.149362 0.502953 0.765254 0.496323
C12   C     C_R   0.835076 0.299855 0.259879 0.451119
C13   C     C_R   0.115538 0.579157 0.895880 -0.277884
C14   C     C_R   0.871147 0.257290 0.122090 -0.384455
C15   C     C_R   0.010802 0.650604 0.893250 0.485055
C16   C     C_R   0.980908 0.309317 0.100288 0.496128
C17   C     C_R   0.932368 0.628166 0.759236 -0.236833
C18   C     C_R   0.060823 0.396378 0.220348 -0.285056
C19   C     C_R   0.959536 0.540744 0.629123 -0.061070
C20   C     C_R   0.035176 0.426460 0.362912 -0.050985
C21   C     C_R   0.081041 0.505097 0.629833 -0.056245
C22   C     C_R   0.911061 0.401490 0.374195 -0.023691
C23   C     C_R   0.870036 0.481184 0.500361 -0.111920
C24   C     C_R   0.125541 0.474802 0.495503 -0.138743
Cu1   Cu    Cu3+1 0.521920 0.521810 0.644910 1.044216
Cu2   Cu    Cu3+1 0.478080 0.478190 0.355090 1.020657
H1    H     H_    0.851118 0.680955 0.758261 0.154338
H2    H     H_    0.138745 0.442333 0.197956 0.180196
N1    N     N_2   0.445130 0.445420 0.137360 -0.064308
N2    N     N_2   0.554870 0.554580 0.862640 -0.053403
O1    O     O_R   0.511700 0.332340 0.577400 -0.503073
O2    O     O_R   0.488300 0.667660 0.422600 -0.502475
O3    O     O_R   0.474680 0.295500 0.332650 -0.551451
O4    O     O_R   0.525320 0.704500 0.667350 -0.586541
O5    O     O_R   0.338170 0.518410 0.622370 -0.514579
O6    O     O_R   0.661830 0.481590 0.377630 -0.535308
O7    O     O_R   0.301150 0.481570 0.377630 -0.635799
O8    O     O_R   0.698850 0.518430 0.622370 -0.606189
O9    O     O_3   0.010910 0.279010 0.962303 -0.584337
C25   C     C_3   0.008203 0.143495 0.895759 -0.400701
H3    H     H_    0.061507 0.122363 0.805636 0.166941
H4    H     H_    0.911889 0.100085 0.846660 0.176491
H5    H     H_    0.052044 0.095997 0.973066 0.160190
O10   O     O_3   0.970645 0.728098 0.017758 -0.594603
C26   C     C_3   0.070443 0.795293 0.129924 -0.398894
H6    H     H_    0.143457 0.837429 0.087903 0.154486
H7    H     H_    0.109584 0.731644 0.189989 0.171803
H8    H     H_    0.034463 0.876779 0.209296 0.185747
O11   O     O_3   0.240742 0.419775 0.775567 -0.552359
C27   C     C_3   0.199065 0.291699 0.684065 -0.239407
H9    H     H_    0.099231 0.266594 0.681303 0.148559
H10   H     H_    0.253923 0.224504 0.726288 0.192492
H11   H     H_    0.215891 0.274667 0.571703 0.132846
O12   O     O_3   0.729966 0.244505 0.288277 -0.546361
C28   C     C_3   0.697608 0.114580 0.196280 -0.284048
H12   H     H_    0.780003 0.057466 0.184989 0.134093
H13   H     H_    0.644870 0.109965 0.088328 0.156158
H14   H     H_    0.635072 0.067159 0.244073 0.200575
H15   H     H_    0.169141 0.578806 0.998032 0.137146
H16   H     H_    0.812109 0.187423 0.029629 0.140999
O13   O     O_3   0.519101 0.840040 0.319139 -0.527329
C29   C     C_3   0.394655 0.817997 0.243733 -0.198169
H17   H     H_    0.382427 0.873420 0.167435 0.147348
H18   H     H_    0.324078 0.840835 0.316254 0.091112
H19   H     H_    0.375317 0.714510 0.176106 0.195870
O14   O     O_3   0.665090 0.132728 0.570540 -0.570326
C30   C     C_3   0.767077 0.057064 0.553339 -0.320295
H20   H     H_    0.768285 0.002268 0.436513 0.170919
H21   H     H_    0.767782 0.990282 0.616695 0.142765
H22   H     H_    0.853793 0.122542 0.596734 0.194140
H23   H     H_    0.540033 0.952439 0.686249 0.111776
H24   H     H_    0.386731 0.067910 0.347317 0.066329
O15   O     O_3   0.511663 0.339378 0.835907 -0.546717
C31   C     C_3   0.617096 0.279229 0.874596 -0.268310
H25   H     H_    0.599703 0.174104 0.815628 0.204978
H26   H     H_    0.634994 0.291552 0.992457 0.149394
H27   H     H_    0.700602 0.315971 0.844132 0.194913
O16   O     O_3   0.602634 0.608153 0.185630 -0.533927
C32   C     C_3   0.727456 0.588111 0.169373 -0.289092
H28   H     H_    0.789746 0.656761 0.266134 0.191628
H29   H     H_    0.749741 0.605312 0.071568 0.164084
H30   H     H_    0.750153 0.489184 0.162497 0.141152
O17   O     O_3   0.528294 0.673939 0.940826 -0.512655
C33   C     C_3   0.629265 0.763985 0.959401 -0.106466
H31   H     H_    0.593909 0.847147 0.930015 0.136570
H32   H     H_    0.701392 0.724159 0.894050 0.152045
H33   H     H_    0.673110 0.803131 0.076484 0.167920
O18   O     O_3   0.421148 0.319523 0.055507 -0.510684
C34   C     C_3   0.296417 0.284482 0.048126 -0.098176
H34   H     H_    0.279073 0.280948 0.154214 0.165167
H35   H     H_    0.273128 0.185548 0.967973 0.132068
H36   H     H_    0.236886 0.350102 0.008507 0.194862

loop_
_geom_bond_atom_site_label_1
_geom_bond_atom_site_label_2
_ccdc_geom_bond_type
Cu1   O1    S    
C28   H12   S    
Cu2   O2    S    
C7    N1    D    
O15   C31   S    
C2    C4    S    
C33   H33   S    
C1    O3    A    
C7    C8    S    
C26   H6    S    
C31   H26   S    
C6    O13   S    
C19   C21   A    
C33   H32   S    
C15   O10   S    
C5    C6    S    
C12   C22   A    
C1    O1    A    
C2    O2    A    
N2    O17   S    
N1    O18   S    
C29   H18   S    
C25   H5    S    
C20   C24   A    
C31   H27   S    
C27   H10   S    
C34   H35   S    
Cu1   O4    S    
C2    O4    A    
C25   H4    S    
O14   C30   S    
C26   H7    S    
C27   H11   S    
C31   H25   S    
C30   H20   S    
C17   H1    S    
C18   H2    S    
C33   H31   S    
C4    C6    D    
O9    C25   S    
C32   H29   S    
O16   C32   S    
Cu1   Cu2   S    
C11   C21   A    
C1    C3    S    
C19   C23   A    
C29   H17   S    
C11   O11   S    
Cu1   O8    S    
Cu2   O3    S    
O17   C33   S    
C9    O7    A    
C27   H9    S    
C9    C24   S    
C34   H36   S    
Cu1   O5    S    
C7    O16   S    
Cu2   O6    S    
C25   H3    S    
C20   C22   A    
C28   H13   S    
C14   C16   A    
C21   C24   A    
O10   C26   S    
C26   H8    S    
Cu1   N2    S    
C15   C17   A    
O12   C28   S    
C29   H19   S    
C12   C14   A    
C5    O14   S    
C3    C5    D    
C32   H30   S    
Cu2   O7    S    
C13   H15   S    
C10   C23   S    
C14   H16   S    
C10   O8    A    
C30   H22   S    
C8    N2    D    
C13   C15   A    
C3    H24   S    
C11   C13   A    
C8    O15   S    
C17   C19   A    
C18   C20   A    
O13   C29   S    
C16   O9    S    
C32   H28   S    
O18   C34   S    
Cu2   N1    S    
C16   C18   A    
O11   C27   S    
C28   H14   S    
C9    O5    A    
C22   C23   A    
C10   O6    A    
C30   H21   S    
C34   H34   S    
C4    H23   S    
C12   O12   S    
