data_mof_unit_21809.cif
_audit_creation_date              2013-03-05T15:50:21-0500
_audit_creation_method            fapswitch 2.2
_symmetry_space_group_name_H-M    P1
_symmetry_Int_Tables_number       1
_space_group_crystal_system       triclinic
_cell_length_a                    18.383696
_cell_length_b                    26.010912
_cell_length_c                    18.220482
_cell_angle_alpha                 89.950653
_cell_angle_beta                  90.034769
_cell_angle_gamma                 89.95632
_cell_volume                      8712.60256401

loop_
_atom_site_label
_atom_site_type_symbol
_atom_site_description
_atom_site_fract_x
_atom_site_fract_y
_atom_site_fract_z
_atom_type_partial_charge
Zn1   Zn    Zn3+2 0.249990 0.293780 0.913250 1.055400
Zn2   Zn    Zn3+2 0.249990 0.706220 0.086750 1.096966
Zn3   Zn    Zn3+2 0.249990 0.706220 0.913250 1.042127
Zn4   Zn    Zn3+2 0.249990 0.293780 0.086750 1.105058
Zn5   Zn    Zn3+2 0.749990 0.793780 0.413250 1.057980
Zn6   Zn    Zn3+2 0.749990 0.206220 0.586750 1.084945
Zn7   Zn    Zn3+2 0.749990 0.206220 0.413250 1.054628
Zn8   Zn    Zn3+2 0.749990 0.793780 0.586750 1.088803
Zn9   Zn    Zn3+2 0.336760 0.206240 0.000000 1.012981
Zn10  Zn    Zn3+2 0.336760 0.793760 0.000000 1.016447
Zn11  Zn    Zn3+2 0.836760 0.706240 0.500000 1.017414
Zn12  Zn    Zn3+2 0.836760 0.293760 0.500000 1.020227
Zn13  Zn    Zn3+2 0.163250 0.206230 0.000000 1.020594
Zn14  Zn    Zn3+2 0.163250 0.793770 0.000000 1.021165
Zn15  Zn    Zn3+2 0.663250 0.706230 0.500000 1.026393
Zn16  Zn    Zn3+2 0.663250 0.293770 0.500000 1.019902
O1    O     O_3   0.249990 0.250010 0.000000 -0.533721
O2    O     O_3   0.249990 0.749990 0.000000 -0.532142
O3    O     O_3   0.749990 0.750010 0.500000 -0.532231
O4    O     O_3   0.749990 0.249990 0.500000 -0.533385
O5    O     O_R   0.335430 0.280650 0.146160 -0.592422
O6    O     O_R   0.335430 0.719350 0.853840 -0.632464
O7    O     O_R   0.335430 0.719350 0.146160 -0.592662
O8    O     O_R   0.335430 0.280650 0.853840 -0.617792
O9    O     O_R   0.835430 0.780650 0.646160 -0.602842
O10   O     O_R   0.835430 0.219350 0.353840 -0.618995
O11   O     O_R   0.835430 0.219350 0.646160 -0.618494
O12   O     O_R   0.835430 0.780650 0.353840 -0.621627
O13   O     O_R   0.164550 0.280640 0.853840 -0.593958
O14   O     O_R   0.164550 0.719360 0.146160 -0.588113
O15   O     O_R   0.164550 0.719360 0.853840 -0.600904
O16   O     O_R   0.164550 0.280640 0.146160 -0.588700
O17   O     O_R   0.664550 0.780640 0.353840 -0.595203
O18   O     O_R   0.664550 0.219360 0.646160 -0.591191
O19   O     O_R   0.664550 0.219360 0.353840 -0.597726
O20   O     O_R   0.664550 0.780640 0.646160 -0.608960
O21   O     O_R   0.396160 0.219380 0.914560 -0.632382
O22   O     O_R   0.396160 0.780620 0.085440 -0.637853
O23   O     O_R   0.396160 0.780620 0.914560 -0.618155
O24   O     O_R   0.396160 0.219380 0.085440 -0.637296
O25   O     O_R   0.896160 0.719380 0.414560 -0.632412
O26   O     O_R   0.896160 0.280620 0.585440 -0.605568
O27   O     O_R   0.896160 0.280620 0.414560 -0.632898
O28   O     O_R   0.896160 0.719380 0.585440 -0.628286
O29   O     O_R   0.103840 0.219370 0.085450 -0.635052
O30   O     O_R   0.103840 0.780630 0.914550 -0.632804
O31   O     O_R   0.103840 0.780630 0.085450 -0.635542
O32   O     O_R   0.103840 0.219370 0.914550 -0.636355
O33   O     O_R   0.603840 0.719370 0.585450 -0.638927
O34   O     O_R   0.603840 0.280630 0.414550 -0.630404
O35   O     O_R   0.603840 0.280630 0.585450 -0.637873
O36   O     O_R   0.603840 0.719370 0.414550 -0.627092
O37   O     O_R   0.310730 0.133160 0.000000 -0.634110
O38   O     O_R   0.310730 0.866840 0.000000 -0.625749
O39   O     O_R   0.810730 0.633160 0.500000 -0.629791
O40   O     O_R   0.810730 0.366840 0.500000 -0.620700
O41   O     O_R   0.249970 0.366860 0.060720 -0.563572
O42   O     O_R   0.249970 0.633140 0.939280 -0.611870
O43   O     O_R   0.249970 0.633140 0.060720 -0.576115
O44   O     O_R   0.249970 0.366860 0.939280 -0.621182
O45   O     O_R   0.749970 0.866860 0.560720 -0.568410
O46   O     O_R   0.749970 0.133140 0.439280 -0.605444
O47   O     O_R   0.749970 0.133140 0.560720 -0.579782
O48   O     O_R   0.749970 0.866860 0.439280 -0.618856
O49   O     O_R   0.189290 0.133150 0.000000 -0.610488
O50   O     O_R   0.189290 0.866850 0.000000 -0.613213
O51   O     O_R   0.689290 0.633150 0.500000 -0.610739
O52   O     O_R   0.689290 0.366850 0.500000 -0.617138
C1    C     C_R   0.389087 0.249574 0.140396 0.910017
C2    C     C_R   0.389511 0.749852 0.860131 0.899776
C3    C     C_R   0.389112 0.750318 0.140365 0.908328
C4    C     C_R   0.388725 0.249253 0.859297 0.914602
C5    C     C_R   0.888212 0.748641 0.641072 0.913394
C6    C     C_R   0.888811 0.250692 0.359418 0.912402
C7    C     C_R   0.888674 0.251045 0.640674 0.891425
C8    C     C_R   0.888815 0.749304 0.359408 0.913717
C9    C     C_R   0.110466 0.249552 0.859808 0.783224
C10   C     C_R   0.110819 0.750587 0.140537 0.785056
C11   C     C_R   0.110539 0.750352 0.859732 0.782133
C12   C     C_R   0.110783 0.249461 0.140458 0.783785
C13   C     C_R   0.610730 0.749597 0.359658 0.787721
C14   C     C_R   0.610664 0.250277 0.640360 0.780371
C15   C     C_R   0.610824 0.250519 0.359575 0.784672
C16   C     C_R   0.610930 0.749068 0.640765 0.778247
C17   C     C_R   0.250491 0.109404 0.000970 0.797929
C18   C     C_R   0.250351 0.890746 0.999861 0.800113
C19   C     C_R   0.750346 0.609349 0.499679 0.802211
C20   C     C_R   0.750128 0.390644 0.499957 0.801466
C21   C     C_R   0.250763 0.391292 0.000540 0.963628
C22   C     C_R   0.246976 0.608684 0.000300 0.934972
C23   C     C_R   0.750169 0.891307 0.500488 0.957648
C24   C     C_R   0.746201 0.108705 0.500174 0.931724
C25   C     C_3   0.263904 0.468987 0.086335 0.295310
C26   C     C_3   0.162711 0.530178 0.976350 0.314098
C27   C     C_3   0.267775 0.530815 0.084024 0.295392
C28   C     C_3   0.168414 0.467542 0.971206 0.319395
C29   C     C_3   0.752280 0.968856 0.587398 0.306432
C30   C     C_3   0.664069 0.030249 0.466981 0.305681
C31   C     C_3   0.755803 0.030703 0.585842 0.299486
C32   C     C_3   0.670182 0.967512 0.462229 0.326349
H1    H     H_    0.255145 0.906223 0.862134 0.128967
H2    H     H_    0.266183 0.096098 0.863615 0.131459
H3    H     H_    0.715262 0.405136 0.634151 0.141295
H4    H     H_    0.730878 0.594956 0.636410 0.112822
H5    H     H_    0.362874 0.463350 0.974774 0.262721
H6    H     H_    0.284255 0.538284 0.888465 0.279558
H7    H     H_    0.352184 0.549364 0.950343 0.214937
H8    H     H_    0.309653 0.452689 0.899223 0.249343
H9    H     H_    0.863466 0.963585 0.487216 0.261702
H10   H     H_    0.795001 0.038319 0.393288 0.278037
H11   H     H_    0.855419 0.049360 0.462373 0.218215
H12   H     H_    0.818683 0.952794 0.406495 0.244569
C33   C     C_3   0.307736 0.471332 0.953845 -0.431164
C34   C     C_3   0.298865 0.529745 0.945800 -0.416934
C35   C     C_3   0.810819 0.971430 0.460573 -0.441993
C36   C     C_3   0.802929 0.029763 0.451883 -0.411182
C37   C     C_3   0.246381 0.448873 0.004064 -0.293657
C38   C     C_3   0.242038 0.550952 0.002344 -0.289932
C39   C     C_3   0.744471 0.948852 0.503550 -0.290568
C40   C     C_3   0.740247 0.050953 0.501645 -0.290572
C41   C     C_R   0.008814 0.332326 0.853232 -0.094388
C42   C     C_R   0.992943 0.679913 0.129893 -0.092891
C43   C     C_R   0.003224 0.671043 0.860379 -0.107348
C44   C     C_R   0.992452 0.319898 0.129363 -0.098811
C45   C     C_R   0.495691 0.822879 0.366748 -0.089745
C46   C     C_R   0.483583 0.189170 0.620313 -0.095386
C47   C     C_R   0.497126 0.176379 0.365937 -0.107915
C48   C     C_R   0.528491 0.840543 0.669495 -0.101233
C49   C     C_R   0.964766 0.375428 0.847760 -0.089197
C50   C     C_R   0.935604 0.645731 0.121968 -0.109872
C51   C     C_R   0.950225 0.633206 0.864068 -0.102086
C52   C     C_R   0.934995 0.354045 0.121387 -0.101239
C53   C     C_R   0.438246 0.857065 0.374261 -0.098727
C54   C     C_R   0.422502 0.158979 0.608711 -0.118486
C55   C     C_R   0.440435 0.141596 0.373070 -0.114766
C56   C     C_R   0.484457 0.883589 0.676151 -0.080841
C57   C     C_R   0.380992 0.856094 0.324878 -0.247739
C58   C     C_R   0.367298 0.157824 0.660404 -0.233391
C59   C     C_R   0.382707 0.142835 0.324220 -0.241224
C60   C     C_R   0.422794 0.881593 0.719445 -0.248788
C61   C     C_R   0.916450 0.380267 0.790116 -0.157768
C62   C     C_R   0.879273 0.645581 0.172425 -0.248550
C63   C     C_R   0.893339 0.632989 0.814172 -0.233744
C64   C     C_R   0.878798 0.354276 0.171998 -0.239740
C65   C     C_R   0.380603 0.821226 0.265876 0.451862
C66   C     C_R   0.372079 0.187072 0.725182 0.460799
C67   C     C_R   0.381420 0.178309 0.265839 0.452614
C68   C     C_R   0.405604 0.836882 0.759110 0.471456
C69   C     C_R   0.908080 0.340507 0.738613 0.498106
C70   C     C_R   0.879577 0.679522 0.232553 0.450197
C71   C     C_R   0.888564 0.670679 0.758888 0.465541
C72   C     C_R   0.879332 0.320432 0.232320 0.447024
C73   C     C_R   0.440186 0.786330 0.256465 0.037515
C74   C     C_R   0.434940 0.218430 0.738107 0.029304
C75   C     C_R   0.440652 0.213431 0.256373 0.038982
C76   C     C_R   0.454590 0.794209 0.758586 0.036085
C77   C     C_R   0.952188 0.295111 0.744207 0.007865
C78   C     C_R   0.939255 0.714240 0.242420 0.035144
C79   C     C_R   0.943766 0.709312 0.753224 0.029291
C80   C     C_R   0.939103 0.285734 0.242241 0.035077
C81   C     C_R   0.005397 0.292629 0.800468 -0.019026
C82   C     C_R   0.995884 0.714564 0.189586 -0.012744
C83   C     C_R   0.000814 0.709719 0.805753 -0.012565
C84   C     C_R   0.995657 0.285375 0.189309 -0.010947
C85   C     C_R   0.497293 0.786674 0.308826 -0.013573
C86   C     C_R   0.491047 0.219167 0.684641 -0.003640
C87   C     C_R   0.497898 0.213080 0.308554 -0.009591
C88   C     C_R   0.513842 0.794877 0.709149 -0.030130
C89   C     C_R   0.444034 0.750443 0.197628 -0.114898
C90   C     C_R   0.443982 0.248825 0.802470 -0.122136
C91   C     C_R   0.444229 0.249358 0.197460 -0.117456
C92   C     C_R   0.443930 0.749827 0.802566 -0.125491
C93   C     C_R   0.944662 0.251946 0.696673 -0.117061
C94   C     C_R   0.944086 0.748922 0.302633 -0.120765
C95   C     C_R   0.943630 0.747888 0.697685 -0.117616
C96   C     C_R   0.944069 0.251084 0.302587 -0.119661
C97   C     C_R   0.499900 0.713149 0.193932 0.047604
C98   C     C_R   0.507092 0.278789 0.813951 0.061613
C99   C     C_R   0.500454 0.286296 0.193093 0.045444
C100  C     C_R   0.482487 0.703851 0.788842 0.055027
C101  C     C_R   0.990208 0.208401 0.703106 0.048898
C102  C     C_R   0.001894 0.784394 0.308874 0.059173
C103  C     C_R   0.996720 0.786940 0.695865 0.045692
C104  C     C_R   0.001938 0.215589 0.308838 0.059202
C105  C     C_R   0.043058 0.206637 0.759046 0.044970
C106  C     C_R   0.055723 0.786258 0.253947 0.038548
C107  C     C_R   0.049444 0.789415 0.751845 0.044173
C108  C     C_R   0.055803 0.213781 0.253940 0.037913
C109  C     C_R   0.554019 0.711920 0.248659 0.037559
C110  C     C_R   0.562678 0.278902 0.760787 0.031957
C111  C     C_R   0.554328 0.287833 0.248044 0.039143
C112  C     C_R   0.533772 0.702319 0.731492 0.044144
C113  C     C_R   0.052531 0.249785 0.805103 -0.082101
C114  C     C_R   0.053717 0.750152 0.196052 -0.083897
C115  C     C_R   0.053118 0.749611 0.804514 -0.081413
C116  C     C_R   0.053668 0.249876 0.195947 -0.082098
C117  C     C_R   0.553872 0.749939 0.304021 -0.080971
C118  C     C_R   0.553981 0.249426 0.696257 -0.077397
C119  C     C_R   0.554003 0.250118 0.303918 -0.081513
C120  C     C_R   0.553576 0.749010 0.696150 -0.095163
C121  C     C_R   0.502173 0.676270 0.136804 -0.171786
C122  C     C_R   0.515749 0.308954 0.878080 -0.212639
C123  C     C_R   0.503474 0.322409 0.134926 -0.174215
C124  C     C_R   0.468994 0.658531 0.829913 -0.212770
C125  C     C_R   0.984538 0.166428 0.653804 -0.177473
C126  C     C_R   0.006515 0.818756 0.369008 -0.219083
C127  C     C_R   0.997591 0.824317 0.639175 -0.179012
C128  C     C_R   0.006578 0.181137 0.368951 -0.218544
C129  C     C_R   0.554703 0.637805 0.135875 -0.132854
C130  C     C_R   0.578181 0.337883 0.889620 -0.177285
C131  C     C_R   0.556388 0.360545 0.133253 -0.130567
C132  C     C_R   0.495822 0.611323 0.807036 -0.171758
C133  C     C_R   0.026187 0.122396 0.663290 -0.112764
C134  C     C_R   0.060971 0.855635 0.372690 -0.178382
C135  C     C_R   0.045671 0.865320 0.641302 -0.113719
C136  C     C_R   0.061127 0.144265 0.372680 -0.180602
C137  C     C_R   0.074518 0.118880 0.721904 0.335816
C138  C     C_R   0.111896 0.859904 0.316346 0.372957
C139  C     C_R   0.093390 0.870446 0.700064 0.361987
C140  C     C_R   0.112170 0.140111 0.316435 0.372662
C141  C     C_R   0.606533 0.634705 0.191712 0.352846
C142  C     C_R   0.634094 0.337882 0.837830 0.380144
C143  C     C_R   0.607706 0.364172 0.189501 0.356831
C144  C     C_R   0.539087 0.608225 0.744464 0.351079
C145  C     C_R   0.084621 0.161202 0.768081 -0.250269
C146  C     C_R   0.109995 0.824785 0.257912 -0.232023
C147  C     C_R   0.096802 0.832229 0.754023 -0.243579
C148  C     C_R   0.110222 0.175293 0.257997 -0.231536
C149  C     C_R   0.606847 0.672208 0.247074 -0.231368
C150  C     C_R   0.625960 0.308699 0.773470 -0.232110
C151  C     C_R   0.607304 0.327378 0.245925 -0.231302
C152  C     C_R   0.562492 0.653755 0.710543 -0.248339
H13   H     H_    0.045014 0.330214 0.899975 0.169590
H14   H     H_    0.034632 0.679239 0.088118 0.172179
H15   H     H_    0.045652 0.669860 0.901524 0.168790
H16   H     H_    0.033981 0.320514 0.087391 0.167881
H17   H     H_    0.538293 0.824740 0.407672 0.170030
H18   H     H_    0.525035 0.188506 0.578187 0.159824
H19   H     H_    0.539989 0.174454 0.406534 0.168360
H20   H     H_    0.572812 0.843420 0.631300 0.218381
H21   H     H_    0.967917 0.405448 0.888429 0.229237
H22   H     H_    0.934428 0.619565 0.075786 0.196322
H23   H     H_    0.952778 0.604174 0.906617 0.206197
H24   H     H_    0.933630 0.380127 0.075049 0.206142
H25   H     H_    0.437458 0.883965 0.419524 0.214781
H26   H     H_    0.417991 0.136215 0.559197 0.179525
H27   H     H_    0.440733 0.113974 0.417562 0.199694
H28   H     H_    0.496391 0.917969 0.644905 0.240527
H29   H     H_    0.336169 0.882486 0.333125 0.185155
H30   H     H_    0.320316 0.133827 0.649868 0.152775
H31   H     H_    0.338303 0.116108 0.332303 0.181950
H32   H     H_    0.387321 0.914712 0.720728 0.146571
H33   H     H_    0.883613 0.414793 0.786815 0.172080
H34   H     H_    0.834686 0.618990 0.164275 0.179258
H35   H     H_    0.852288 0.603325 0.818959 0.146516
H36   H     H_    0.834129 0.380850 0.163808 0.184960
H37   H     H_    0.462667 0.676068 0.092749 0.135511
H38   H     H_    0.474517 0.310547 0.920386 0.127280
H39   H     H_    0.464431 0.322134 0.090458 0.144492
H40   H     H_    0.434792 0.658366 0.878166 0.139722
H41   H     H_    0.947306 0.166681 0.607809 0.143506
H42   H     H_    0.967514 0.818165 0.413470 0.125754
H43   H     H_    0.960149 0.823070 0.593364 0.141603
H44   H     H_    0.967508 0.181644 0.413350 0.123829
H45   H     H_    0.018714 0.090251 0.626320 0.215611
H46   H     H_    0.061725 0.882070 0.418573 0.187261
H47   H     H_    0.043088 0.894544 0.598983 0.196575
H48   H     H_    0.061884 0.117751 0.418532 0.188183
H49   H     H_    0.553540 0.609561 0.092266 0.201796
H50   H     H_    0.582828 0.360075 0.939656 0.185531
H51   H     H_    0.555905 0.388151 0.088736 0.198808
H52   H     H_    0.479671 0.576927 0.836308 0.187234
H53   H     H_    0.124725 0.157636 0.811240 0.162268
H54   H     H_    0.150833 0.828224 0.215464 0.155371
H55   H     H_    0.135903 0.837023 0.797931 0.149557
H56   H     H_    0.151142 0.171927 0.215616 0.155452
H57   H     H_    0.648322 0.669740 0.289072 0.160924
H58   H     H_    0.669478 0.309443 0.733537 0.164853
H59   H     H_    0.648463 0.330170 0.288187 0.160674
H60   H     H_    0.601231 0.649858 0.666512 0.180503
H61   H     H_    0.282083 0.048823 0.749521 0.146695
H62   H     H_    0.276467 0.954173 0.748491 0.157517
H63   H     H_    0.711852 0.547333 0.749884 0.138086
H64   H     H_    0.700939 0.452792 0.748197 0.195988
C153  C     C_R   0.290100 0.053205 0.130794 -0.100370
C154  C     C_R   0.289931 0.946147 0.130111 -0.100524
C155  C     C_R   0.800476 0.553379 0.373692 -0.092392
C156  C     C_R   0.800035 0.446405 0.373777 -0.094554
C157  C     C_R   0.313878 0.026093 0.192295 -0.015991
C158  C     C_R   0.313829 0.972743 0.191940 -0.018283
C159  C     C_R   0.826264 0.526523 0.312892 -0.027214
C160  C     C_R   0.826040 0.473153 0.312933 -0.027408
C161  C     C_R   0.269113 0.972815 0.065754 0.053394
C162  C     C_R   0.269227 0.027058 0.066127 0.050129
C163  C     C_R   0.775260 0.472840 0.436959 0.058243
C164  C     C_R   0.775469 0.527042 0.436886 0.056038
C165  C     C_R   0.252871 0.946621 0.999877 -0.127266
C166  C     C_R   0.253573 0.053804 0.000544 -0.122494
C167  C     C_R   0.751174 0.446330 0.500207 -0.129437
C168  C     C_R   0.752309 0.553646 0.500297 -0.129117
C169  C     C_R   0.253680 0.973560 0.932485 0.072420
C170  C     C_R   0.255300 0.027762 0.932859 0.080420
C171  C     C_R   0.734906 0.472930 0.565752 0.073581
C172  C     C_R   0.737441 0.527109 0.566177 0.098132
C173  C     C_R   0.258584 0.947572 0.864779 -0.109545
C174  C     C_R   0.264083 0.054561 0.865784 -0.107979
C175  C     C_R   0.719418 0.446599 0.632006 -0.160858
C176  C     C_R   0.728501 0.553490 0.633448 -0.106457
C177  C     C_R   0.270818 0.974603 0.799764 -0.021423
C178  C     C_R   0.273648 0.027947 0.800236 -0.019938
C179  C     C_R   0.711504 0.473382 0.697739 -0.036507
C180  C     C_R   0.717548 0.526624 0.698688 -0.078350
H65   H     H_    0.291185 0.094692 0.133428 0.154019
H66   H     H_    0.290734 0.904647 0.132351 0.154764
H67   H     H_    0.801237 0.594862 0.370827 0.159865
H68   H     H_    0.800260 0.404925 0.370864 0.159675
H69   H     H_    0.332209 0.046546 0.240519 0.158562
H70   H     H_    0.332093 0.951880 0.239903 0.158594
H71   H     H_    0.846041 0.547233 0.265395 0.156378
H72   H     H_    0.845609 0.452361 0.265452 0.156761
N1    N     N_R   0.334915 0.449006 0.115004 0.263966
O53   O     O_R   0.355442 0.461759 0.180999 -0.231979
O54   O     O_R   0.374371 0.415235 0.080412 -0.437399
N2    N     N_R   0.137839 0.548898 0.903034 0.244577
O55   O     O_R   0.072057 0.537520 0.881995 -0.318383
O56   O     O_R   0.176401 0.577362 0.859305 -0.335515
N3    N     N_R   0.344082 0.549726 0.096308 0.217668
O57   O     O_R   0.356408 0.587531 0.141535 -0.306331
O58   O     O_R   0.400430 0.529599 0.063946 -0.390478
N4    N     N_R   0.165070 0.450105 0.892729 0.243365
O59   O     O_R   0.127029 0.409816 0.875074 -0.346462
O60   O     O_R   0.201425 0.472210 0.840178 -0.344492
N5    N     N_R   0.819733 0.949453 0.624599 0.268969
O61   O     O_R   0.831059 0.961454 0.693093 -0.227986
O62   O     O_R   0.865634 0.917888 0.594089 -0.425064
N6    N     N_R   0.646961 0.049052 0.391449 0.248790
O63   O     O_R   0.582823 0.039153 0.364504 -0.294470
O64   O     O_R   0.691283 0.075288 0.350518 -0.328897
N7    N     N_R   0.829919 0.049482 0.608212 0.218432
O65   O     O_R   0.836686 0.084432 0.658983 -0.291683
O66   O     O_R   0.889764 0.030888 0.580766 -0.406123
N8    N     N_R   0.674624 0.950152 0.383695 0.245374
O67   O     O_R   0.635136 0.911746 0.360843 -0.304198
O68   O     O_R   0.717660 0.971455 0.335850 -0.349924
N9    N     N_R   0.207725 0.449727 0.138994 0.239459
O69   O     O_R   0.143892 0.470484 0.144995 -0.274283
O70   O     O_R   0.224130 0.414126 0.186637 -0.254807
N10   N     N_R   0.107306 0.552229 0.026863 0.233055
O71   O     O_R   0.063995 0.525618 0.068274 -0.252734
O72   O     O_R   0.092865 0.601100 0.020771 -0.443285
N11   N     N_R   0.225288 0.550723 0.148061 0.255464
O73   O     O_R   0.170608 0.582122 0.143059 -0.281253
O74   O     O_R   0.246972 0.538711 0.214010 -0.243604
N12   N     N_R   0.104960 0.442664 0.007140 0.242384
O75   O     O_R   0.111656 0.400652 0.045270 -0.410269
O76   O     O_R   0.040346 0.452753 0.981490 -0.337133
N13   N     N_R   0.690561 0.948844 0.632644 0.230448
O77   O     O_R   0.626426 0.969524 0.631940 -0.318758
O78   O     O_R   0.701465 0.912363 0.680520 -0.276898
N14   N     N_R   0.603771 0.052311 0.511535 0.235403
O79   O     O_R   0.556358 0.025648 0.547972 -0.265193
O80   O     O_R   0.590106 0.101242 0.504306 -0.430878
N15   N     N_R   0.705138 0.050602 0.643510 0.257314
O81   O     O_R   0.656211 0.085720 0.632102 -0.290646
O82   O     O_R   0.716341 0.037143 0.711523 -0.242883
N16   N     N_R   0.603470 0.942536 0.491169 0.241686
O83   O     O_R   0.606922 0.899265 0.526681 -0.452863
O84   O     O_R   0.541780 0.952842 0.459001 -0.310234
N17   N     N_R   0.111136 0.071549 0.736599 0.203098
O85   O     O_R   0.130041 0.041529 0.682843 -0.317714
O86   O     O_R   0.115234 0.054788 0.803731 -0.337206
N18   N     N_R   0.163912 0.900939 0.317084 0.194831
O87   O     O_R   0.180971 0.923861 0.378179 -0.348097
O88   O     O_R   0.187851 0.919607 0.255549 -0.421364
N19   N     N_R   0.134152 0.916569 0.708274 0.191011
O89   O     O_R   0.165465 0.937379 0.651552 -0.354577
O90   O     O_R   0.125485 0.943396 0.767763 -0.313565
N20   N     N_R   0.164364 0.099132 0.317281 0.195150
O91   O     O_R   0.181465 0.076198 0.378424 -0.354657
O92   O     O_R   0.188487 0.080543 0.255801 -0.421609
N21   N     N_R   0.657726 0.592951 0.193131 0.207120
O93   O     O_R   0.669187 0.565277 0.134786 -0.333944
O94   O     O_R   0.688712 0.579618 0.254401 -0.412253
N22   N     N_R   0.699156 0.367143 0.850772 0.195862
O95   O     O_R   0.704594 0.397117 0.907681 -0.367121
O96   O     O_R   0.754225 0.363258 0.806498 -0.451439
N23   N     N_R   0.659197 0.405695 0.190138 0.207388
O97   O     O_R   0.671830 0.432222 0.130905 -0.320684
O98   O     O_R   0.689259 0.420018 0.251380 -0.412442
N24   N     N_R   0.555775 0.559055 0.712943 0.197080
O99   O     O_R   0.550030 0.517322 0.751989 -0.390292
O100  O     O_R   0.565336 0.555013 0.642417 -0.358854
O101  O     O_3   0.321512 0.820049 0.219027 -0.811580
H73   H     H_    0.284227 0.844825 0.235983 0.336742
O102  O     O_3   0.315946 0.184984 0.775578 -0.807080
H74   H     H_    0.276837 0.162115 0.757163 0.313361
O103  O     O_3   0.321924 0.179738 0.219529 -0.812834
H75   H     H_    0.284926 0.154784 0.236529 0.337187
O104  O     O_3   0.338907 0.833129 0.793392 -0.799781
H76   H     H_    0.306022 0.859662 0.772831 0.313749
O105  O     O_3   0.856650 0.345835 0.683852 -0.767173
H77   H     H_    0.835725 0.380945 0.685162 0.335667
O106  O     O_3   0.821485 0.679535 0.280629 -0.812197
H78   H     H_    0.784236 0.654747 0.263679 0.338945
O107  O     O_3   0.829675 0.670520 0.711708 -0.805721
H79   H     H_    0.795251 0.643064 0.726364 0.311014
O108  O     O_3   0.821378 0.320501 0.280559 -0.811327
H80   H     H_    0.784036 0.345256 0.263567 0.339590

loop_
_geom_bond_atom_site_label_1
_geom_bond_atom_site_label_2
_geom_bond_distance
_ccdc_geom_bond_type
C52   C64   1.385222 A    
C28   N4    1.501702 S    
N13   O77   1.295609 A    
H10   C36   1.099970 S    
N15   O82   1.303649 A    
C159  C160  1.388190 A    
C56   C60   1.382435 A    
C91   C99   1.413963 A    
C45   H17   1.082185 S    
C169  C170  1.410205 A    
C53   C57   1.384553 A    
O26   C7    1.273783 A    
C174  C178  1.392128 A    
C90   C98   1.413723 A    
C27   N3    1.503583 S    
C162  C166  1.411572 A    
O30   C11   1.278424 A    
C143  N23   1.436752 S    
C158  H70   1.081418 S    
N18   O87   1.301533 A    
C74   C90   1.424612 A    
C166  C170  1.407903 A    
C89   C97   1.413859 A    
C147  H55   1.082546 S    
Zn12  O26   1.931113 S    
C78   C94   1.423753 A    
C75   C87   1.417847 A    
N2    O55   1.302751 A    
C67   C75   1.432298 A    
C126  C134  1.388641 A    
C63   C71   1.407667 A    
C30   C40   1.628134 S    
C131  H51   1.082862 S    
O11   C7    1.284126 A    
C135  C139  1.390306 A    
C123  H39   1.082138 S    
O34   C15   1.278523 A    
C12   C116  1.458109 S    
N4    O59   1.300846 A    
H61   C178  1.082694 S    
C67   O103  1.381457 S    
Zn1   O44   1.959548 S    
C135  H47   1.083282 S    
N8    O67   1.303754 A    
N24   O100  1.301425 A    
C46   C86   1.415268 A    
N5    O61   1.303359 A    
Zn5   O48   1.959548 S    
C110  C150  1.417354 A    
H8    C33   1.108026 S    
C5    C95   1.449488 S    
C55   C59   1.385021 A    
C86   C118  1.415678 A    
Zn7   O46   1.958756 S    
C6    C96   1.451068 S    
C138  N18   1.433659 S    
O16   C12   1.283253 A    
C43   C83   1.415203 A    
C171  C172  1.410065 A    
C66   C74   1.434442 A    
C169  C173  1.410099 A    
Zn16  O4    1.958762 S    
C131  C143  1.395850 A    
Zn12  O4    1.960476 S    
Zn1   O13   1.937801 S    
C20   C167  1.448584 S    
C26   C28   1.635293 S    
Zn4   O16   1.938537 S    
O41   C21   1.266970 A    
C42   H14   1.080629 S    
N21   O93   1.301549 A    
N23   O97   1.301564 A    
C46   H18   1.082069 S    
C80   C84   1.418575 A    
C51   C63   1.385301 A    
C95   C103  1.409598 A    
C109  C117  1.413212 A    
C96   C104  1.412560 A    
C101  C105  1.408390 A    
C145  H53   1.081476 S    
C88   C120  1.418593 A    
C47   C55   1.386739 A    
N6    O63   1.302911 A    
N22   O96   1.298786 A    
N19   O89   1.301051 A    
C14   C118  1.457712 S    
C18   C165  1.454115 S    
O101  H73   0.990214 S    
C170  C174  1.415813 A    
C151  H59   1.081775 S    
Zn10  O22   1.931113 S    
C152  H60   1.077875 S    
O107  H79   0.991139 S    
O25   C8    1.277578 A    
Zn13  O29   1.932907 S    
Zn10  O2    1.960476 S    
C26   N2    1.492804 S    
C154  H66   1.080281 S    
C149  H57   1.081743 S    
N10   O71   1.297331 A    
O29   C12   1.278602 A    
Zn15  O33   1.932907 S    
C44   H16   1.081058 S    
C99   C111  1.408494 A    
C46   C54   1.386944 A    
C111  C151  1.417565 A    
N1    O53   1.303339 A    
O37   C17   1.268684 A    
O48   C23   1.284274 A    
N20   O91   1.301523 A    
C138  C146  1.403911 A    
C25   N1    1.498280 S    
C78   C82   1.418367 A    
C130  C142  1.395784 A    
C103  C127  1.417974 A    
C101  C125  1.418276 A    
N11   O73   1.297795 A    
Zn16  O35   1.932727 S    
C94   C102  1.412496 A    
O105  H77   0.991005 S    
C56   H28   1.082383 S    
Zn7   O10   1.938493 S    
C150  H58   1.081898 S    
O33   C16   1.277042 A    
H5    C33   1.102308 S    
C148  H56   1.081923 S    
C102  C106  1.408683 A    
O40   C20   1.274165 A    
H1    C173  1.078547 S    
C76   C88   1.413994 A    
C35   C36   1.532157 S    
C153  C157  1.393452 A    
C11   C115  1.457968 S    
C44   C52   1.387050 A    
C155  H67   1.080312 S    
C136  H48   1.082949 S    
C9    C113  1.458277 S    
C52   H24   1.082911 S    
Zn6   O11   1.937757 S    
Zn5   O17   1.937801 S    
C31   N15   1.496942 S    
C112  C120  1.421883 A    
C105  C145  1.416246 A    
C25   C27   1.610357 S    
C63   H35   1.083206 S    
C161  C165  1.412585 A    
C123  C131  1.390176 A    
C25   C37   1.620362 S    
C121  C129  1.390125 A    
N14   O79   1.297038 A    
H64   C179  1.081367 S    
Zn8   O3    1.948757 S    
C55   H27   1.082771 S    
C28   C37   1.626666 S    
C134  C138  1.394210 A    
O38   C18   1.271884 A    
C76   C92   1.418520 A    
C36   C40   1.566808 S    
O5    C1    1.279232 A    
C102  C126  1.417144 A    
C71   C79   1.432420 A    
O32   C9    1.274751 A    
C29   C39   1.620681 S    
C45   C85   1.415345 A    
C161  C162  1.410953 A    
C107  C147  1.414638 A    
C130  H50   1.082841 S    
Zn15  O51   1.959875 S    
C157  C158  1.387704 A    
C81   C113  1.413555 A    
Zn11  O28   1.931882 S    
C32   C39   1.632381 S    
Zn12  O40   1.959833 S    
C33   C37   1.565903 S    
Zn2   O43   1.959548 S    
C99   C123  1.416742 A    
C35   C39   1.564358 S    
C10   C114  1.458279 S    
C66   O102  1.382815 S    
C23   C39   1.501465 S    
C73   C89   1.423854 A    
H62   C177  1.080199 S    
C70   O106  1.381661 S    
O8    C4    1.278779 A    
C132  C144  1.392872 A    
C73   C85   1.418186 A    
C106  C114  1.413450 A    
C136  C140  1.394135 A    
C21   C37   1.501273 S    
N23   O98   1.299876 A    
O50   C18   1.283551 A    
C84   C116  1.415170 A    
C140  N20   1.433693 S    
C68   C76   1.428822 A    
Zn1   O1    1.947167 S    
C62   H34   1.083150 S    
Zn13  O1    1.960175 S    
Zn2   O14   1.938444 S    
C8    C94   1.450490 S    
C24   C40   1.506466 S    
C64   C72   1.407606 A    
O103  H75   0.990163 S    
C50   H22   1.082924 S    
C125  H41   1.081731 S    
C58   C66   1.407504 A    
C173  C177  1.395471 A    
C54   H26   1.082705 S    
C97   C121  1.416722 A    
O39   C19   1.271592 A    
O36   C13   1.278075 A    
C50   C62   1.385207 A    
C121  H37   1.082185 S    
C125  C133  1.387805 A    
C172  C176  1.414831 A    
O13   C9    1.286643 A    
C142  C150  1.405420 A    
Zn1   O8    1.938400 S    
N2    O56   1.298465 A    
N12   O75   1.300125 A    
Zn2   O7    1.937757 S    
C165  C169  1.413341 A    
Zn3   O6    1.938493 S    
O18   C14   1.279737 A    
O31   C10   1.277842 A    
O6    C2    1.277609 A    
C176  C180  1.393193 A    
C53   H25   1.082101 S    
N17   O86   1.300316 A    
C47   H19   1.081541 S    
C142  N22   1.437656 S    
C129  C141  1.395719 A    
C60   H32   1.080332 S    
Zn14  O30   1.932135 S    
Zn15  O3    1.960175 S    
C64   H36   1.083139 S    
Zn11  O3    1.959063 S    
N4    O60   1.301728 A    
C19   C168  1.449329 S    
C156  C160  1.393355 A    
C57   C65   1.407136 A    
Zn16  O34   1.932135 S    
C48   C56   1.386575 A    
C13   C117  1.455674 S    
C98   C110  1.408467 A    
N8    O68   1.301388 A    
C49   C61   1.380720 A    
C132  H52   1.082971 S    
C22   C38   1.504892 S    
C140  C148  1.403823 A    
Zn8   O20   1.938537 S    
C2    C92   1.449912 S    
N16   O83   1.299258 A    
C144  N24   1.435458 S    
C29   N5    1.499763 S    
C27   N11   1.497029 S    
O19   C15   1.281541 A    
C153  C162  1.413967 A    
N15   O81   1.298005 A    
C3    C89   1.451476 S    
H11   C36   1.108233 S    
C72   O108  1.381581 S    
N9    O70   1.303786 A    
C92   C100  1.412269 A    
C93   C101  1.412769 A    
N13   O78   1.303701 A    
Zn8   O9    1.937006 S    
C32   N8    1.503085 S    
C30   N14   1.489302 S    
C143  C151  1.404010 A    
N5    O62   1.302084 A    
H2    C174  1.081829 S    
C154  C158  1.393528 A    
O7    C3    1.278710 A    
H3    C175  1.081925 S    
N6    O64   1.298660 A    
C163  C164  1.409843 A    
C134  H46   1.083000 S    
C58   H30   1.083183 S    
O44   C21   1.284977 A    
Zn9   O24   1.931882 S    
C29   N13   1.496422 S    
Zn6   O18   1.938444 S    
Zn10  O23   1.932657 S    
C109  C149  1.417574 A    
H7    C34   1.108512 S    
C103  C107  1.408190 A    
N7    O65   1.303512 A    
C83   C115  1.415368 A    
N10   O72   1.303050 A    
Zn15  O36   1.931366 S    
C30   N6    1.493388 S    
O15   C11   1.283102 A    
O42   C22   1.281691 A    
C43   H15   1.081923 S    
Zn4   O1    1.948757 S    
C41   H13   1.081860 S    
Zn9   O37   1.960541 S    
N20   O92   1.298647 A    
O12   C8    1.279356 A    
C77   C81   1.417888 A    
Zn11  O39   1.960541 S    
C110  C118  1.413258 A    
C33   C34   1.534852 S    
C112  C152  1.421324 A    
C65   O101  1.381521 S    
C70   C78   1.432828 A    
C43   C51   1.387042 A    
O104  H76   0.990325 S    
H63   C180  1.082669 S    
O51   C19   1.281455 A    
C41   C49   1.385970 A    
C100  C124  1.417861 A    
C42   C82   1.414179 A    
C57   H29   1.082733 S    
O102  H74   0.991998 S    
N11   O74   1.303467 A    
N24   O99   1.301759 A    
Zn5   O3    1.947167 S    
C48   H20   1.074463 S    
Zn6   O4    1.947165 S    
C128  H44   1.082218 S    
C61   H33   1.083298 S    
C62   C70   1.407593 A    
C122  H38   1.082220 S    
N3    O57   1.303419 A    
C31   N7    1.503953 S    
C124  H40   1.081200 S    
C49   H21   1.078513 S    
C175  C179  1.393720 A    
C108  C148  1.416598 A    
O28   C5    1.276489 A    
Zn3   O42   1.958756 S    
C164  C168  1.413002 A    
C157  H69   1.081365 S    
Zn7   O4    1.948758 S    
O21   C4    1.278538 A    
C141  C149  1.403868 A    
N21   O94   1.299724 A    
C74   C86   1.419341 A    
C159  H71   1.082227 S    
C146  H54   1.081895 S    
C139  C147  1.398884 A    
C160  H72   1.082241 S    
C167  C171  1.412791 A    
C168  C172  1.411143 A    
C77   C93   1.425352 A    
C44   C84   1.414554 A    
Zn6   O47   1.959548 S    
C179  C180  1.389524 A    
C72   C80   1.432688 A    
C133  H45   1.082947 S    
C7    C93   1.449060 S    
C26   C38   1.625978 S    
Zn14  O2    1.958762 S    
O106  H78   0.990335 S    
N22   O95   1.301700 A    
C60   C68   1.405017 A    
N14   O80   1.303658 A    
C71   O107  1.381983 S    
C61   C69   1.405574 A    
Zn13  O49   1.959875 S    
C177  C178  1.388569 A    
C16   C120  1.459917 S    
C126  H42   1.082258 S    
C68   O104  1.379914 S    
C59   C67   1.407751 A    
H4    C176  1.080885 S    
H6    C34   1.100902 S    
C111  C119  1.413196 A    
C79   C83   1.419447 A    
Zn12  O27   1.932657 S    
C85   C117  1.414675 A    
C144  C152  1.403381 A    
C141  N21   1.436759 S    
C155  C164  1.416385 A    
Zn3   O2    1.948758 S    
C156  C163  1.416700 A    
C31   C40   1.646375 S    
N18   O88   1.298655 A    
N1    O54   1.302127 A    
C69   O105  1.380960 S    
O47   C24   1.275509 A    
O108  H80   0.990176 S    
Zn16  O52   1.960583 S    
O9    C5    1.281539 A    
C163  C167  1.413969 A    
Zn8   O45   1.958755 S    
C65   C73   1.432499 A    
O27   C6    1.278683 A    
C129  H49   1.082829 S    
C41   C81   1.412835 A    
C128  C136  1.388675 A    
C79   C95   1.424452 A    
C80   C96   1.423955 A    
C124  C132  1.387447 A    
C122  C130  1.388885 A    
C127  C135  1.386269 A    
C29   C31   1.610267 S    
C139  N19   1.422939 S    
N19   O90   1.299420 A    
C27   C38   1.646357 S    
C97   C109  1.408493 A    
O24   C1    1.279750 A    
C25   N9    1.496446 S    
C100  C112  1.408399 A    
C133  C137  1.391739 A    
C171  C175  1.416602 A    
C104  C108  1.408738 A    
C154  C161  1.414317 A    
O46   C24   1.280131 A    
O43   C22   1.273112 A    
C4    C90   1.451001 S    
Zn4   O41   1.958755 S    
Zn3   O15   1.937050 S    
C32   N16   1.485120 S    
Zn5   O12   1.938400 S    
C17   C166  1.447298 S    
C106  C146  1.416491 A    
C82   C114  1.415158 A    
Zn9   O21   1.932477 S    
Zn14  O50   1.960583 S    
O35   C14   1.279993 A    
C34   C38   1.567962 S    
Zn9   O1    1.959063 S    
N7    O66   1.301788 A    
C153  H65   1.080438 S    
N12   O76   1.302646 A    
C98   C122  1.416957 A    
O52   C20   1.278671 A    
C155  C159  1.393367 A    
C156  H68   1.080283 S    
C15   C119  1.455473 S    
N17   O85   1.300443 A    
C45   C53   1.386956 A    
O22   C3    1.280031 A    
C87   C119  1.414407 A    
C107  C115  1.412642 A    
Zn7   O19   1.937050 S    
C59   H31   1.082667 S    
C105  C113  1.412767 A    
Zn2   O2    1.947165 S    
C28   N12   1.486456 S    
C54   C58   1.385327 A    
Zn13  O32   1.931366 S    
O49   C17   1.283190 A    
Zn14  O31   1.932727 S    
C137  N17   1.427746 S    
C30   C32   1.638005 S    
C51   H23   1.082760 S    
Zn4   O5    1.937006 S    
N3    O58   1.302029 A    
C127  H43   1.082096 S    
O20   C16   1.287244 A    
C26   N10   1.488164 S    
O10   C6    1.280308 A    
O23   C2    1.280732 A    
Zn11  O25   1.932477 S    
C1    C91   1.451696 S    
Zn10  O38   1.959833 S    
N16   O84   1.303834 A    
H9    C35   1.101359 S    
O14   C10   1.282360 A    
C75   C91   1.424189 A    
C108  C116  1.413407 A    
C47   C87   1.415277 A    
C137  C145  1.398558 A    
C48   C88   1.415891 A    
C104  C128  1.417063 A    
C69   C77   1.435413 A    
N9    O69   1.296079 A    
O17   C13   1.281937 A    
C42   C50   1.387066 A    
H12   C35   1.107983 S    
O45   C23   1.267909 A    
