data_mof_unit_25030.cif
_audit_creation_date              2012-12-10T16:49:26-0500
_audit_creation_method            fapswitch 2.2
_symmetry_space_group_name_H-M    P1
_symmetry_Int_Tables_number       1
_space_group_crystal_system       triclinic
_cell_length_a                    7.745847
_cell_length_b                    8.594154
_cell_length_c                    12.874448
_cell_angle_alpha                 89.908635
_cell_angle_beta                  88.00477
_cell_angle_gamma                 93.160357
_cell_volume                      855.211614117

loop_
_atom_site_label
_atom_site_type_symbol
_atom_type_description
_atom_site_fract_x
_atom_site_fract_y
_atom_site_fract_z
_atom_type_partial_charge
C1    C     C_R   0.455833 0.205424 0.497176 0.952679
C2    C     C_R   0.544166 0.794576 0.502823 0.952676
C3    C     C_R   0.465769 0.501909 0.699855 0.892726
C4    C     C_R   0.534231 0.498091 0.300145 0.892729
C5    C     C_R   0.554488 0.496676 0.188989 -0.044658
C6    C     C_R   0.445512 0.503324 0.811011 -0.044658
C7    C     C_R   0.276082 0.546476 0.967105 -0.209350
C8    C     C_R   0.723918 0.453525 0.032895 -0.209350
C9    C     C_R   0.288247 0.538746 0.859778 -0.174736
C10   C     C_R   0.711753 0.461254 0.140222 -0.174732
C11   C     C_R   0.589368 0.472815 0.868842 -0.254068
C12   C     C_R   0.410631 0.527186 0.131158 -0.254067
C13   C     C_R   0.578851 0.481268 0.975290 0.179934
C14   C     C_R   0.421148 0.518732 0.024710 0.179934
C15   C     C_2   0.433568 0.044410 0.513413 -0.000676
C16   C     C_2   0.566431 0.955590 0.486582 -0.000676
H1    H     H_    0.289026 0.556246 0.168670 0.166914
H2    H     H_    0.710973 0.443754 0.831330 0.166914
H3    H     H_    0.823613 0.437706 0.184738 0.172969
H4    H     H_    0.176387 0.562293 0.815262 0.172968
H5    H     H_    0.154608 0.574898 0.004872 0.143194
H6    H     H_    0.845392 0.425102 0.995128 0.143194
H7    H     H_    0.998156 0.615993 0.421919 0.213226
H8    H     H_    0.001844 0.384007 0.578081 0.213225
N1    N     N_2   0.054030 0.541640 0.471970 -0.151057
N2    N     N_2   0.945970 0.458360 0.528030 -0.151058
O1    O     O_R   0.609680 0.261530 0.506880 -0.587210
O2    O     O_R   0.390320 0.738470 0.493120 -0.587207
O3    O     O_R   0.323330 0.288220 0.488910 -0.595422
O4    O     O_R   0.676670 0.711780 0.511090 -0.595423
O5    O     O_R   0.619510 0.488830 0.661140 -0.630490
O6    O     O_R   0.380490 0.511170 0.338860 -0.630490
O7    O     O_R   0.333160 0.515520 0.643180 -0.622827
O8    O     O_R   0.666840 0.484480 0.356820 -0.622827
Zn1   Zn    Zn3+2 0.691200 0.482180 0.511990 1.012291
Zn2   Zn    Zn3+2 0.308800 0.517820 0.488010 1.012292
Br1   Br    Br    0.231968 0.979557 0.600258 -0.463444
Br2   Br    Br    0.768025 0.020443 0.399728 -0.463443

loop_
_geom_bond_atom_site_label_1
_geom_bond_atom_site_label_2
_ccdc_geom_bond_type
C12   H1    S    
C8    H6    S    
C11   H2    S    
C8    C13   A    
C1    C15   S    
C2    C16   S    
C9    H4    S    
C10   H3    S    
C2    O4    A    
C3    C6    S    
C6    C9    A    
C1    O3    A    
C5    C10   A    
C13   C14   A    
C3    O5    A    
C11   C13   A    
O3    Zn2   S    
C4    O6    A    
O4    Zn1   S    
O6    Zn2   S    
C12   C14   A    
C4    O8    A    
H7    N1    S    
O5    Zn1   S    
C3    O7    A    
N1    Zn2   S    
C15   C16   D    
C7    C9    A    
N2    Zn1   S    
O7    Zn2   S    
O2    Zn2   S    
C5    C12   A    
C8    C10   A    
O8    Zn1   S    
C6    C11   A    
C1    O1    A    
C15   Br1   S    
C2    O2    A    
O1    Zn1   S    
N1    N2    D    
C7    H5    S    
C7    C14   A    
H8    N2    S    
C16   Br2   S    
C4    C5    S    
