data_mof_unit_15021.cif
_audit_creation_date              2012-12-10T16:38:05-0500
_audit_creation_method            fapswitch 2.2
_symmetry_space_group_name_H-M    P1
_symmetry_Int_Tables_number       1
_space_group_crystal_system       triclinic
_cell_length_a                    28.096638
_cell_length_b                    18.362835
_cell_length_c                    17.044562
_cell_angle_alpha                 90.000126
_cell_angle_beta                  60.863756
_cell_angle_gamma                 89.999606
_cell_volume                      7681.13050834

loop_
_atom_site_label
_atom_site_type_symbol
_atom_type_description
_atom_site_fract_x
_atom_site_fract_y
_atom_site_fract_z
_atom_type_partial_charge
C1    C     C_R   0.705846 0.277091 0.673374 0.907327
C2    C     C_R   0.082841 0.500001 0.548473 0.065863
C3    C     C_R   0.192764 0.211437 0.905920 0.078876
C4    C     C_R   0.611355 0.311399 0.046871 -0.187742
C5    C     C_R   0.388634 0.688609 0.953122 -0.187759
C6    C     C_R   0.388609 0.311464 0.953119 -0.187742
C7    C     C_R   0.611364 0.688595 0.046874 -0.187739
C8    C     C_R   0.111373 0.811400 0.046877 -0.187763
C9    C     C_R   0.888602 0.188509 0.953112 -0.187721
C10   C     C_R   0.888616 0.811460 0.953109 -0.187737
C11   C     C_R   0.111371 0.188588 0.046879 -0.187749
C12   C     C_R   0.638070 0.289468 0.093599 -0.208015
C13   C     C_R   0.417190 0.999998 0.451390 0.065891
C14   C     C_R   0.361921 0.710572 0.906397 -0.208012
C15   C     C_R   0.361880 0.289556 0.906402 -0.208048
C16   C     C_R   0.638079 0.710545 0.093601 -0.208017
C17   C     C_R   0.138088 0.789443 0.093599 -0.208023
C18   C     C_R   0.861877 0.210410 0.906377 -0.208001
C19   C     C_R   0.861892 0.789556 0.906376 -0.207984
C20   C     C_R   0.138088 0.210534 0.093604 -0.208036
C21   C     C_R   0.775519 0.274947 0.764856 -0.182094
C22   C     C_R   0.224482 0.725081 0.235138 -0.182148
C23   C     C_R   0.224482 0.274890 0.235143 -0.182138
C24   C     C_R   0.582879 0.000001 0.548331 0.065846
C25   C     C_R   0.775516 0.725071 0.764861 -0.182126
C26   C     C_R   0.275523 0.774922 0.764855 -0.182153
C27   C     C_R   0.724486 0.225180 0.235143 -0.182183
C28   C     C_R   0.724481 0.774868 0.235146 -0.182146
C29   C     C_R   0.275509 0.225106 0.764870 -0.182148
C30   C     C_R   0.804197 0.258296 0.809966 -0.215144
C31   C     C_R   0.195811 0.741734 0.190024 -0.215181
C32   C     C_R   0.195808 0.258221 0.190038 -0.215153
C33   C     C_R   0.804190 0.741726 0.809972 -0.215186
C34   C     C_R   0.304197 0.758269 0.809965 -0.215150
C35   C     C_R   0.076798 0.368570 0.559780 -0.248426
C36   C     C_R   0.695814 0.241888 0.190049 -0.215125
C37   C     C_R   0.695807 0.758179 0.190047 -0.215105
C38   C     C_R   0.304177 0.241768 0.809985 -0.215211
C39   C     C_R   0.071003 0.103903 0.937280 0.900820
C40   C     C_R   0.928996 0.896096 0.062720 0.900781
C41   C     C_R   0.928993 0.103900 0.062723 0.900803
C42   C     C_R   0.071001 0.896095 0.937281 0.900794
C43   C     C_R   0.571001 0.603903 0.937280 0.900798
C44   C     C_R   0.428997 0.396097 0.062720 0.900780
C45   C     C_R   0.428999 0.603904 0.062719 0.900787
C46   C     C_R   0.923213 0.631432 0.440167 -0.248428
C47   C     C_R   0.570998 0.396093 0.937282 0.900798
C48   C     C_R   0.537912 0.132202 0.531212 0.107649
C49   C     C_R   0.462183 0.867796 0.468426 0.107716
C50   C     C_R   0.462186 0.132201 0.468419 0.107713
C51   C     C_R   0.537907 0.867799 0.531226 0.107638
C52   C     C_R   0.037867 0.632203 0.531384 0.107680
C53   C     C_R   0.962156 0.367795 0.468538 0.107684
C54   C     C_R   0.962158 0.632202 0.468537 0.107666
C55   C     C_R   0.037864 0.367798 0.531384 0.107666
C56   C     C_R   0.518293 0.198238 0.516617 -0.217410
C57   C     C_R   0.923216 0.368567 0.440156 -0.248443
C58   C     C_R   0.481810 0.801760 0.483001 -0.217362
C59   C     C_R   0.481819 0.198238 0.482982 -0.217365
C60   C     C_R   0.518281 0.801762 0.516642 -0.217420
C61   C     C_R   0.018247 0.698240 0.516790 -0.217366
C62   C     C_R   0.981776 0.301759 0.483131 -0.217368
C63   C     C_R   0.981784 0.698240 0.483122 -0.217381
C64   C     C_R   0.018239 0.301761 0.516798 -0.217384
C65   C     C_R   0.480474 0.066071 0.485350 0.031780
C66   C     C_R   0.519630 0.933929 0.514278 0.031800
C67   C     C_R   0.519633 0.066071 0.514270 0.031800
C68   C     C_R   0.076795 0.631430 0.559791 -0.248428
C69   C     C_R   0.480471 0.933927 0.485356 0.031778
C70   C     C_R   0.980440 0.566071 0.485480 0.031781
C71   C     C_R   0.019589 0.433928 0.514427 0.031783
C72   C     C_R   0.019592 0.566072 0.514424 0.031777
C73   C     C_R   0.980438 0.433927 0.485483 0.031779
C74   C     C_R   0.960191 0.499999 0.472166 -0.053953
C75   C     C_R   0.039835 0.500000 0.527748 -0.053950
C76   C     C_R   0.460219 0.999998 0.472054 -0.053966
C77   C     C_R   0.539878 0.000000 0.527594 -0.053947
C78   C     C_R   0.894922 0.433492 0.443291 0.055764
C79   C     C_R   0.576835 0.868570 0.559630 -0.248443
C80   C     C_R   0.105086 0.566506 0.556666 0.055770
C81   C     C_R   0.105088 0.433495 0.556660 0.055772
C82   C     C_R   0.894921 0.566506 0.443296 0.055766
C83   C     C_R   0.394932 0.933492 0.443234 0.055753
C84   C     C_R   0.605120 0.066507 0.556534 0.055789
C85   C     C_R   0.605119 0.933494 0.556537 0.055787
C86   C     C_R   0.394931 0.066505 0.443236 0.055753
C87   C     C_R   0.844185 0.434639 0.442613 -0.114259
C88   C     C_R   0.155816 0.565360 0.557372 -0.114255
C89   C     C_R   0.155817 0.434640 0.557369 -0.114254
C90   C     C_R   0.423227 0.131430 0.440083 -0.248445
C91   C     C_R   0.844184 0.565361 0.442617 -0.114257
C92   C     C_R   0.344185 0.934638 0.442590 -0.114267
C93   C     C_R   0.655831 0.065360 0.557300 -0.114223
C94   C     C_R   0.655831 0.934641 0.557302 -0.114224
C95   C     C_R   0.344185 0.065361 0.442592 -0.114268
C96   C     C_R   0.821545 0.500000 0.437564 -0.303267
C97   C     C_R   0.178452 0.500000 0.562434 -0.303275
C98   C     C_R   0.321540 0.999999 0.437556 -0.303241
C99   C     C_R   0.678456 0.000000 0.562390 -0.303355
C100  C     C_R   0.423228 0.868567 0.440080 -0.248447
C101  C     C_R   0.294154 0.722908 0.326624 0.907289
C102  C     C_R   0.576837 0.131432 0.559622 -0.248436
C103  C     C_R   0.721475 0.269390 0.953182 0.017877
C104  C     C_R   0.278515 0.730617 0.046818 0.017915
C105  C     C_R   0.278506 0.269392 0.046824 0.017913
C106  C     C_R   0.721481 0.730617 0.953180 0.017900
C107  C     C_R   0.221492 0.769396 0.953177 0.017909
C108  C     C_R   0.778505 0.230625 0.046818 0.017868
C109  C     C_R   0.778509 0.769383 0.046817 0.017863
C110  C     C_R   0.221479 0.230627 0.953187 0.017926
C111  C     C_R   0.777872 0.252020 0.904480 0.049250
C112  C     C_R   0.294156 0.277085 0.326622 0.907286
C113  C     C_R   0.222121 0.747967 0.095511 0.049246
C114  C     C_R   0.222116 0.252015 0.095521 0.049257
C115  C     C_R   0.777874 0.747985 0.904482 0.049248
C116  C     C_R   0.277887 0.752045 0.904482 0.049250
C117  C     C_R   0.722115 0.248035 0.095522 0.049293
C118  C     C_R   0.722116 0.751998 0.095521 0.049277
C119  C     C_R   0.277865 0.248005 0.904495 0.049250
C120  C     C_R   0.806346 0.231346 0.951437 0.048337
C121  C     C_R   0.193641 0.768613 0.048551 0.048327
C122  C     C_R   0.193634 0.231380 0.048560 0.048322
C123  C     C_R   0.705846 0.722910 0.673375 0.907318
C124  C     C_R   0.806353 0.768649 0.951437 0.048342
C125  C     C_R   0.306367 0.731401 0.951443 0.048320
C126  C     C_R   0.693627 0.268647 0.048560 0.048340
C127  C     C_R   0.693632 0.731374 0.048558 0.048329
C128  C     C_R   0.306343 0.268660 0.951453 0.048328
C129  C     C_R   0.638431 0.313422 0.952717 0.077044
C130  C     C_R   0.361557 0.686573 0.047280 0.077040
C131  C     C_R   0.361551 0.313441 0.047277 0.077041
C132  C     C_R   0.638439 0.686571 0.952718 0.077036
C133  C     C_R   0.138446 0.813432 0.952720 0.077047
C134  C     C_R   0.205847 0.777092 0.673375 0.907308
C135  C     C_R   0.861546 0.186554 0.047274 0.077009
C136  C     C_R   0.861554 0.813434 0.047271 0.077023
C137  C     C_R   0.138441 0.186571 0.952723 0.077027
C138  C     C_R   0.613361 0.340492 0.902956 -0.140690
C139  C     C_R   0.386629 0.659500 0.097042 -0.140673
C140  C     C_R   0.386628 0.340500 0.097038 -0.140658
C141  C     C_R   0.613369 0.659499 0.902955 -0.140673
C142  C     C_R   0.113371 0.840500 0.902959 -0.140675
C143  C     C_R   0.886622 0.159496 0.097039 -0.140652
C144  C     C_R   0.886628 0.840497 0.097037 -0.140663
C145  C     C_R   0.794156 0.222915 0.326622 0.907294
C146  C     C_R   0.113370 0.159500 0.902958 -0.140671
C147  C     C_R   0.635196 0.324168 0.813457 -0.302360
C148  C     C_R   0.364792 0.675821 0.186544 -0.302401
C149  C     C_R   0.364797 0.324167 0.186535 -0.302415
C150  C     C_R   0.635204 0.675822 0.813455 -0.302383
C151  C     C_R   0.135207 0.824176 0.813458 -0.302395
C152  C     C_R   0.864792 0.175829 0.186535 -0.302437
C153  C     C_R   0.864796 0.824167 0.186535 -0.302411
C154  C     C_R   0.135206 0.175824 0.813458 -0.302400
C155  C     C_R   0.686836 0.295847 0.767028 -0.119010
C156  C     C_R   0.794155 0.777087 0.326623 0.907286
C157  C     C_R   0.313157 0.704148 0.232972 -0.118993
C158  C     C_R   0.313161 0.295839 0.232966 -0.118977
C159  C     C_R   0.686839 0.704151 0.767028 -0.119010
C160  C     C_R   0.186844 0.795853 0.767028 -0.118996
C161  C     C_R   0.813159 0.204164 0.232965 -0.118963
C162  C     C_R   0.813160 0.795840 0.232966 -0.118974
C163  C     C_R   0.186838 0.204157 0.767032 -0.119000
C164  C     C_R   0.718736 0.285519 0.811283 0.067501
C165  C     C_R   0.281257 0.714482 0.188716 0.067541
C166  C     C_R   0.281259 0.285504 0.188714 0.067529
C167  C     C_R   0.205845 0.222912 0.673377 0.907309
C168  C     C_R   0.718738 0.714484 0.811284 0.067524
C169  C     C_R   0.218746 0.785524 0.811281 0.067535
C170  C     C_R   0.781259 0.214513 0.188711 0.067551
C171  C     C_R   0.781259 0.785500 0.188713 0.067540
C172  C     C_R   0.218736 0.214498 0.811289 0.067543
C173  C     C_R   0.691020 0.129386 0.535449 0.906957
C174  C     C_R   0.308985 0.870610 0.464519 0.906905
C175  C     C_R   0.308985 0.129390 0.464520 0.906905
C176  C     C_R   0.691020 0.870614 0.535450 0.906944
C177  C     C_R   0.191016 0.629388 0.535470 0.906905
C178  C     C_R   0.917174 0.499999 0.451467 0.065868
C179  C     C_R   0.808985 0.370611 0.464526 0.906896
C180  C     C_R   0.808984 0.629389 0.464528 0.906905
C181  C     C_R   0.191016 0.370612 0.535468 0.906914
C182  C     C_R   0.692759 0.288569 0.905915 0.078867
C183  C     C_R   0.307230 0.711428 0.094085 0.078873
C184  C     C_R   0.307228 0.288571 0.094084 0.078857
C185  C     C_R   0.692765 0.711430 0.905914 0.078871
C186  C     C_R   0.192774 0.788581 0.905913 0.078871
C187  C     C_R   0.807225 0.211436 0.094079 0.078851
C188  C     C_R   0.807230 0.788566 0.094078 0.078848
H1    H     H_    0.032294 0.250200 0.528895 0.135323
H2    H     H_    0.217230 0.500000 0.561811 0.196184
H3    H     H_    0.282750 1.000000 0.438223 0.196201
H4    H     H_    0.717218 0.000000 0.561818 0.196186
H5    H     H_    0.613060 0.338130 0.778208 0.190005
H6    H     H_    0.386927 0.661857 0.221792 0.190004
H7    H     H_    0.386934 0.338128 0.221782 0.189996
H8    H     H_    0.613069 0.661857 0.778206 0.190008
H9    H     H_    0.113071 0.838137 0.778211 0.190002
H10   H     H_    0.886927 0.161865 0.221782 0.189998
H11   H     H_    0.886931 0.838131 0.221783 0.189998
H12   H     H_    0.967725 0.749801 0.471034 0.135322
H13   H     H_    0.113072 0.161856 0.778208 0.190007
H14   H     H_    0.568510 0.324584 0.085825 0.156037
H15   H     H_    0.431474 0.675413 0.914170 0.156054
H16   H     H_    0.431446 0.324682 0.914144 0.156104
H17   H     H_    0.568522 0.675403 0.085833 0.156049
H18   H     H_    0.068534 0.824601 0.085833 0.156065
H19   H     H_    0.931436 0.175275 0.914139 0.156133
H20   H     H_    0.931451 0.824687 0.914141 0.156109
H21   H     H_    0.068532 0.175386 0.085839 0.156072
H22   H     H_    0.613825 0.290835 0.165637 0.137246
H23   H     H_    0.967714 0.250197 0.471046 0.135319
H24   H     H_    0.386160 0.709219 0.834352 0.137245
H25   H     H_    0.386087 0.291034 0.834356 0.137250
H26   H     H_    0.613839 0.709185 0.165643 0.137243
H27   H     H_    0.113854 0.790804 0.165644 0.137250
H28   H     H_    0.886075 0.208879 0.834314 0.137215
H29   H     H_    0.886100 0.791060 0.834315 0.137214
H30   H     H_    0.113859 0.209148 0.165646 0.137253
H31   H     H_    0.799518 0.282668 0.693179 0.179526
H32   H     H_    0.200482 0.717388 0.306818 0.179561
H33   H     H_    0.200481 0.282578 0.306823 0.179579
H34   H     H_    0.032305 0.749802 0.528884 0.135318
H35   H     H_    0.799515 0.717361 0.693184 0.179545
H36   H     H_    0.299521 0.782608 0.693173 0.179564
H37   H     H_    0.700483 0.217524 0.306826 0.179626
H38   H     H_    0.700479 0.782545 0.306829 0.179588
H39   H     H_    0.299511 0.217409 0.693193 0.179570
H40   H     H_    0.847530 0.251964 0.768119 0.141242
H41   H     H_    0.152495 0.748134 0.231876 0.141259
H42   H     H_    0.152490 0.251791 0.231904 0.141227
H43   H     H_    0.847514 0.748079 0.768125 0.141265
H44   H     H_    0.347514 0.751852 0.768104 0.141233
H45   H     H_    0.532339 0.750201 0.528730 0.135321
H46   H     H_    0.652505 0.248419 0.231947 0.141197
H47   H     H_    0.652491 0.751699 0.231931 0.141199
H48   H     H_    0.347495 0.248152 0.768138 0.141261
H49   H     H_    0.084191 0.317715 0.583669 0.178534
H50   H     H_    0.915810 0.682292 0.416296 0.178529
H51   H     H_    0.915815 0.317713 0.416278 0.178528
H52   H     H_    0.084187 0.682283 0.583687 0.178526
H53   H     H_    0.584216 0.817712 0.583525 0.178577
H54   H     H_    0.415813 0.182285 0.416223 0.178527
H55   H     H_    0.415816 0.817713 0.416216 0.178523
H56   H     H_    0.467757 0.249798 0.470901 0.135322
H57   H     H_    0.584216 0.182290 0.583517 0.178577
H58   H     H_    0.467745 0.750199 0.470925 0.135322
H59   H     H_    0.532354 0.249800 0.528696 0.135314
H60   H     H_    0.782761 0.500000 0.438207 0.196193
O1    O     O_R   0.746490 0.236330 0.638080 -0.639472
O2    O     O_R   0.325830 0.813840 0.483730 -0.651780
O3    O     O_R   0.325830 0.186160 0.483730 -0.651780
O4    O     O_R   0.674170 0.813840 0.516270 -0.651836
O5    O     O_R   0.174170 0.686160 0.516270 -0.651787
O6    O     O_R   0.825830 0.313840 0.483730 -0.651786
O7    O     O_R   0.825830 0.686160 0.483730 -0.651793
O8    O     O_R   0.174170 0.313840 0.516270 -0.651791
O9    O     O_R   0.739960 0.127620 0.525000 -0.622981
O10   O     O_R   0.260040 0.872380 0.475000 -0.623000
O11   O     O_R   0.260040 0.127620 0.475000 -0.622999
O12   O     O_R   0.253510 0.763670 0.361920 -0.639499
O13   O     O_R   0.739960 0.872380 0.525000 -0.622980
O14   O     O_R   0.239960 0.627620 0.525000 -0.622986
O15   O     O_R   0.760040 0.372380 0.475000 -0.622994
O16   O     O_R   0.760040 0.627620 0.475000 -0.622994
O17   O     O_R   0.239960 0.372380 0.525000 -0.622984
O18   O     O_R   0.680700 0.294870 0.629350 -0.631321
O19   O     O_R   0.319300 0.705130 0.370650 -0.631338
O20   O     O_R   0.319300 0.294870 0.370650 -0.631333
O21   O     O_R   0.680700 0.705130 0.629350 -0.631318
O22   O     O_R   0.180700 0.794870 0.629350 -0.631326
O23   O     O_R   0.253510 0.236330 0.361920 -0.639516
O24   O     O_R   0.819300 0.205130 0.370650 -0.631324
O25   O     O_R   0.819300 0.794870 0.370650 -0.631326
O26   O     O_R   0.180700 0.205130 0.629350 -0.631325
O27   O     O_R   0.062020 0.072840 0.007170 -0.615658
O28   O     O_R   0.937980 0.927160 0.992830 -0.615688
O29   O     O_R   0.937980 0.072840 0.992830 -0.615709
O30   O     O_R   0.062020 0.927160 0.007170 -0.615653
O31   O     O_R   0.562020 0.572840 0.007170 -0.615651
O32   O     O_R   0.437980 0.427160 0.992830 -0.615687
O33   O     O_R   0.437980 0.572840 0.992830 -0.615649
O34   O     O_R   0.746490 0.763670 0.638080 -0.639482
O35   O     O_R   0.562020 0.427160 0.007170 -0.615640
O36   O     O_R   0.947860 0.073950 0.109290 -0.618802
O37   O     O_R   0.052140 0.926050 0.890710 -0.618808
O38   O     O_R   0.052140 0.073950 0.890710 -0.618813
O39   O     O_R   0.947860 0.926050 0.109290 -0.618802
O40   O     O_R   0.447860 0.573950 0.109290 -0.618814
O41   O     O_R   0.552140 0.426050 0.890710 -0.618815
O42   O     O_R   0.552140 0.573950 0.890710 -0.618815
O43   O     O_R   0.447860 0.426050 0.109290 -0.618809
O44   O     O_R   0.246490 0.736330 0.638080 -0.639498
O45   O     O_R   0.753510 0.263670 0.361920 -0.639562
O46   O     O_R   0.753510 0.736330 0.361920 -0.639532
O47   O     O_R   0.246490 0.263670 0.638080 -0.639501
O48   O     O_R   0.674170 0.186160 0.516270 -0.651836
Zn1   Zn    Zn3+2 0.792340 0.208750 0.507670 0.930321
Zn2   Zn    Zn3+2 0.494040 0.500000 0.919480 0.930880
Zn3   Zn    Zn3+2 0.005960 0.000000 0.080520 0.930904
Zn4   Zn    Zn3+2 0.994040 0.000000 0.919480 0.930841
Zn5   Zn    Zn3+2 0.207660 0.791250 0.492330 0.930299
Zn6   Zn    Zn3+2 0.207660 0.208750 0.492330 0.930289
Zn7   Zn    Zn3+2 0.792340 0.791250 0.507670 0.930312
Zn8   Zn    Zn3+2 0.292340 0.708750 0.507670 0.930304
Zn9   Zn    Zn3+2 0.707660 0.291250 0.492330 0.930250
Zn10  Zn    Zn3+2 0.707660 0.708750 0.492330 0.930267
Zn11  Zn    Zn3+2 0.292340 0.291250 0.507670 0.930305
Zn12  Zn    Zn3+2 0.505960 0.500000 0.080520 0.930899

loop_
_geom_bond_atom_site_label_1
_geom_bond_atom_site_label_2
_ccdc_geom_bond_type
O32   Zn2   S    
C108  C120  A    
O17   Zn11  S    
O5    Zn5   S    
C88   C177  S    
O13   Zn7   S    
O14   Zn8   S    
C50   C59   A    
C41   C143  S    
C52   C61   A    
C180  O16   A    
C12   C126  A    
C54   C63   A    
C40   O28   A    
C58   C60   A    
C43   O42   A    
C45   C139  S    
O44   Zn8   S    
C61   C63   A    
C103  C126  A    
C95   C175  S    
C62   C64   A    
C131  C140  A    
C91   C96   A    
C179  O6    A    
C179  O15   A    
C50   C90   A    
C162  C171  A    
C170  C187  A    
C70   C74   A    
C19   H29   S    
C4    C12   A    
C147  C155  A    
C24   C85   A    
C112  O20   A    
O8    Zn6   S    
C88   C97   A    
C119  C128  A    
C39   O38   A    
C49   C69   A    
O26   Zn6   S    
O27   Zn3   S    
C109  C118  A    
C173  O48   A    
C32   H42   S    
C11   C20   A    
C150  C159  A    
C165  C183  A    
C30   H40   S    
C137  C146  A    
C17   C121  A    
C166  C184  A    
O15   Zn9   S    
C86   C90   A    
C71   C73   A    
C106  C127  A    
C82   C91   A    
C51   C66   A    
C89   C181  S    
C142  C151  A    
C173  O9    A    
C52   C72   A    
C131  C184  A    
C105  C114  A    
C54   C70   A    
C82   C178  A    
C36   C117  A    
C7    C132  A    
C112  C158  S    
C38   C119  A    
C5    C130  A    
C83   C100  A    
C26   H36   S    
C47   O41   A    
C79   C85   A    
C154  H13   S    
C66   C77   A    
O11   Zn6   S    
C57   C78   A    
C18   H28   S    
C60   H45   S    
O33   Zn2   S    
C176  O4    A    
O46   Zn10  S    
C14   H24   S    
O36   Zn3   S    
C8    C17   A    
C56   C59   A    
C106  C115  A    
C80   C88   A    
O6    Zn1   S    
C145  C161  S    
O2    Zn8   S    
C31   H41   S    
C93   C173  S    
C84   C93   A    
C79   H53   S    
C105  C184  A    
O7    Zn7   S    
C86   C95   A    
C24   C77   A    
C104  C183  A    
C43   O31   A    
O3    Zn11  S    
O43   Zn12  S    
C2    C81   A    
C55   C71   A    
C2    C75   A    
C78   C87   A    
C134  C160  S    
C84   C102  A    
C67   C77   A    
C15   H25   S    
C133  C142  A    
C45   O40   A    
C123  C159  S    
C130  C183  A    
C99   H4    S    
C1    O1    A    
C3    C110  A    
C36   H46   S    
C69   C76   A    
C85   C94   A    
C10   H20   S    
C61   H34   S    
O40   Zn12  S    
C46   C82   A    
C29   C38   A    
C149  C158  A    
C20   C122  A    
C152  C161  A    
C135  C143  A    
C48   C67   A    
C136  C188  A    
C72   C75   A    
C112  O23   A    
C135  C187  A    
C180  O7    A    
C141  C150  A    
C37   H47   S    
O22   Zn5   S    
C25   C168  A    
C139  C148  A    
C104  C125  A    
C157  C165  A    
C27   H37   S    
C92   C174  S    
C59   H56   S    
C181  O8    A    
C175  O3    A    
C91   C180  S    
C16   H26   S    
C57   H51   S    
C47   O35   A    
C9    C135  A    
C116  C125  A    
C90   H54   S    
O37   Zn4   S    
C118  C127  A    
O20   Zn11  S    
O35   Zn12  S    
C117  C126  A    
C151  H9    S    
C132  C141  A    
C108  C117  A    
C98   H3    S    
C110  C119  A    
C5    H15   S    
C134  O22   A    
C149  H7    S    
C44   O32   A    
C28   C37   A    
C47   C138  S    
C148  C157  A    
C16   C127  A    
C51   C79   A    
C107  C116  A    
C41   O29   A    
C104  C113  A    
C9    C18   A    
C113  C121  A    
C21   H31   S    
C51   C60   A    
C33   H43   S    
C140  C149  A    
C31   C113  A    
C25   C33   A    
O47   Zn11  S    
C129  C182  A    
C44   O43   A    
C73   C74   A    
O42   Zn2   S    
C7    H17   S    
C41   O36   A    
C64   H1    S    
C9    H19   S    
C107  C186  A    
C65   C76   A    
O39   Zn3   S    
C171  C188  A    
C145  O24   A    
C134  O44   A    
C169  C186  A    
C38   H48   S    
C42   O30   A    
C3    C172  A    
C39   O27   A    
O48   Zn9   S    
C63   H12   S    
C103  C111  A    
C1    O18   A    
C23   H33   S    
C65   C67   A    
C35   H49   S    
C160  C169  A    
C3    C137  A    
C93   C99   A    
C81   C89   A    
C123  O21   A    
C8    C133  A    
C101  C157  S    
C44   C140  S    
C21   C164  A    
O19   Zn8   S    
C102  H57   S    
C130  C139  A    
C167  O26   A    
O28   Zn4   S    
O12   Zn5   S    
C56   H59   S    
C33   C115  A    
C58   H58   S    
C53   C57   A    
C132  C185  A    
C177  O14   A    
C174  O10   A    
O29   Zn4   S    
C4    H14   S    
O30   Zn3   S    
C10   C19   A    
C48   C102  A    
C46   C54   A    
C8    H18   S    
C27   C170  A    
C5    C14   A    
O34   Zn7   S    
C181  O17   A    
O9    Zn1   S    
C7    C16   A    
C15   C128  A    
C68   H52   S    
C43   C141  S    
C107  C121  A    
O16   Zn10  S    
C158  C166  A    
C22   H32   S    
C115  C124  A    
C78   C178  A    
C20   H30   S    
C34   H44   S    
C106  C185  A    
C6    C131  A    
C123  O34   A    
C4    C129  A    
C27   C36   A    
C21   C30   A    
C13   C83   A    
C40   O39   A    
O4    Zn10  S    
C156  O46   A    
C153  C162  A    
C23   C32   A    
C11   C137  A    
C12   H22   S    
C136  C144  A    
C110  C122  A    
O31   Zn12  S    
C39   C146  S    
C42   O37   A    
C164  C182  A    
O21   Zn10  S    
C176  O13   A    
O23   Zn6   S    
O18   Zn9   S    
C96   H60   S    
C94   C176  S    
C68   C80   A    
O1    Zn1   S    
C74   C178  A    
C103  C182  A    
C108  C187  A    
C35   C81   A    
C95   C98   A    
C92   C98   A    
C6    H16   S    
C83   C92   A    
C14   C125  A    
O41   Zn2   S    
C10   C136  A    
C66   C69   A    
C34   C116  A    
C101  O12   A    
C159  C168  A    
C144  C153  A    
C1    C155  S    
C6    C15   A    
C22   C165  A    
C26   C34   A    
C129  C138  A    
C26   C169  A    
C146  C154  A    
C13   C86   A    
C42   C142  S    
C62   H23   S    
C25   H35   S    
C52   C68   A    
C101  O19   A    
C156  C162  S    
O38   Zn4   S    
C50   C65   A    
C109  C188  A    
C167  O47   A    
C19   C124  A    
C45   O33   A    
C22   C31   A    
C37   C118  A    
C35   C55   A    
C154  C163  A    
C28   H38   S    
C174  O2    A    
C49   C58   A    
C89   C97   A    
C111  C120  A    
C163  C167  S    
C163  C172  A    
C23   C166  A    
O45   Zn9   S    
C53   C62   A    
C28   C171  A    
C13   C76   A    
C138  C147  A    
C87   C96   A    
C156  O25   A    
C152  H10   S    
C150  H8    S    
C100  H55   S    
C133  C186  A    
C161  C170  A    
C97   H2    S    
C40   C144  S    
C29   H39   S    
C18   C120  A    
C148  H6    S    
C48   C56   A    
C143  C152  A    
C168  C185  A    
C105  C128  A    
O10   Zn5   S    
C53   C73   A    
O25   Zn7   S    
C109  C124  A    
C153  H11   S    
C55   C64   A    
C155  C164  A    
C177  O5    A    
C30   C111  A    
C151  C160  A    
C24   C84   A    
C145  O45   A    
C11   H21   S    
C49   C100  A    
C71   C75   A    
C94   C99   A    
C147  H5    S    
C46   H50   S    
C29   C172  A    
C2    C80   A    
C87   C179  S    
C114  C122  A    
C70   C72   A    
C32   C114  A    
C17   H27   S    
O24   Zn1   S    
C175  O11   A    
