data_mof_unit_28595.cif
_audit_creation_date              2012-12-10T17:10:26-0500
_audit_creation_method            fapswitch 2.2
_symmetry_space_group_name_H-M    P1
_symmetry_Int_Tables_number       1
_space_group_crystal_system       triclinic
_cell_length_a                    10.755676
_cell_length_b                    13.053078
_cell_length_c                    11.668721
_cell_angle_alpha                 99.943861
_cell_angle_beta                  94.463197
_cell_angle_gamma                 91.271405
_cell_volume                      1607.6636278

loop_
_atom_site_label
_atom_site_type_symbol
_atom_type_description
_atom_site_fract_x
_atom_site_fract_y
_atom_site_fract_z
_atom_type_partial_charge
C1    C     C_R   0.502334 0.299449 0.478751 0.875819
C2    C     C_R   0.498453 0.700566 0.521292 0.855936
C3    C     C_R   0.500776 0.813648 0.533111 -0.128754
C4    C     C_R   0.501429 0.186330 0.467046 -0.112222
C5    C     C_R   0.411210 0.022186 0.364487 -0.145069
C6    C     C_R   0.592651 0.977442 0.635146 -0.138225
C7    C     C_R   0.431698 0.127836 0.371219 -0.157593
C8    C     C_R   0.572237 0.871677 0.628165 -0.151788
C9    C     C_R   0.559634 0.137345 0.554945 -0.068619
C10   C     C_R   0.442131 0.862986 0.445802 -0.063940
C11   C     C_R   0.539232 0.029068 0.548232 0.074566
C12   C     C_R   0.463565 0.970961 0.452108 0.084099
C13   C     C_R   0.435425 0.371834 0.020447 -0.126411
C14   C     C_R   0.562071 0.628690 0.979560 -0.143693
C15   C     C_R   0.436125 0.388271 0.142733 0.066867
C16   C     C_R   0.559406 0.612846 0.857255 0.080396
C17   C     C_R   0.519838 0.559386 0.158359 0.025784
C18   C     C_R   0.481694 0.440048 0.841730 0.043798
C19   C     C_R   0.521044 0.547719 0.035078 -0.016935
C20   C     C_R   0.479006 0.452068 0.965001 -0.003665
C21   C     C_R   0.261861 0.485094 0.498105 0.857239
C22   C     C_R   0.738557 0.513708 0.501637 0.851438
C23   C     C_R   0.125130 0.455782 0.705533 -0.092248
C24   C     C_R   0.875715 0.539270 0.292722 -0.096744
C25   C     C_R   0.077867 0.489002 0.812839 -0.173658
C26   C     C_R   0.923846 0.507510 0.185514 -0.158634
C27   C     C_R   0.979643 0.556736 0.820231 -0.155256
C28   C     C_R   0.023356 0.441134 0.177818 -0.167907
C29   C     C_R   0.920241 0.584090 0.718548 -0.038037
C30   C     C_R   0.083159 0.413814 0.279142 0.032532
C31   C     C_R   0.952429 0.531868 0.607871 -0.009804
C32   C     C_R   0.049051 0.463830 0.390294 0.032430
C33   C     C_R   0.068355 0.484098 0.602896 0.087188
C34   C     C_R   0.932285 0.510507 0.395257 0.072958
C35   C     C_R   0.876276 0.527915 0.502439 -0.232348
C36   C     C_R   0.124575 0.467027 0.496053 -0.160691
Cu1   Cu    Cu3+1 0.509250 0.507730 0.615930 0.981460
Cu2   Cu    Cu3+1 0.490750 0.492270 0.384070 0.985214
H1    H     H_    0.050392 0.408299 0.092047 0.177050
H2    H     H_    0.953915 0.591225 0.905969 0.167431
H3    H     H_    0.204752 0.406397 0.702996 0.147879
H4    H     H_    0.796139 0.588655 0.295210 0.145642
H5    H     H_    0.122689 0.467707 0.891277 0.146867
H6    H     H_    0.879140 0.529312 0.107301 0.148167
H7    H     H_    0.616685 0.834401 0.695827 0.207607
H8    H     H_    0.388465 0.164665 0.302755 0.172976
H9    H     H_    0.352283 0.982070 0.290412 0.181179
H10   H     H_    0.652546 0.017189 0.708709 0.189122
H11   H     H_    0.447348 0.368312 0.786657 0.151540
H12   H     H_    0.555594 0.630658 0.213511 0.153601
H13   H     H_    0.583264 0.677242 0.815652 0.172884
H14   H     H_    0.406920 0.325385 0.184507 0.147948
N1    N     N_R   0.523180 0.519350 0.790130 -0.204562
N2    N     N_R   0.476820 0.480650 0.209870 -0.197560
O1    O     O_R   0.506570 0.354460 0.582000 -0.590898
O2    O     O_R   0.493430 0.645540 0.418000 -0.588583
O3    O     O_R   0.490940 0.341410 0.386200 -0.594118
O4    O     O_R   0.509060 0.658590 0.613800 -0.599655
O5    O     O_R   0.327470 0.506520 0.597900 -0.594549
O6    O     O_R   0.672530 0.493480 0.402100 -0.585951
O7    O     O_R   0.311840 0.493460 0.402100 -0.562536
O8    O     O_R   0.688160 0.506540 0.597900 -0.564580
C37   C     C_1   0.391423 0.271703 0.954989 0.267398
N3    N     N_1   0.356161 0.191496 0.902551 -0.229206
C38   C     C_1   0.604267 0.729381 0.044839 0.283732
N4    N     N_1   0.638144 0.810029 0.097086 -0.213739
C39   C     C_2   0.844764 0.679548 0.731798 0.856547
O9    O     O_2   0.805605 0.712513 0.826005 -0.596748
O10   O     O_R   0.826152 0.738671 0.643026 -0.760844
H15   H     H_    0.884736 0.723157 0.579087 0.300801
C40   C     C_2   0.159135 0.319064 0.265349 0.823247
O11   O     O_2   0.197092 0.282326 0.350510 -0.628163
O12   O     O_R   0.178124 0.266349 0.153427 -0.784312
H16   H     H_    0.224529 0.199741 0.154596 0.328664
C41   C     C_2   0.356244 0.801984 0.350991 0.842241
O13   O     O_2   0.264276 0.756168 0.375598 -0.582768
O14   O     O_R   0.382868 0.794450 0.234523 -0.773460
H17   H     H_    0.318857 0.749247 0.178524 0.334255
C42   C     C_2   0.644137 0.199363 0.650279 0.841493
O15   O     O_2   0.622490 0.203463 0.752289 -0.603079
O16   O     O_R   0.745459 0.256505 0.622156 -0.742556
H18   H     H_    0.794334 0.297803 0.693742 0.344117

loop_
_geom_bond_atom_site_label_1
_geom_bond_atom_site_label_2
_ccdc_geom_bond_type
C27   C29   A    
C24   H4    S    
O12   H16   S    
C19   C20   A    
C16   H13   S    
C25   H5    S    
C30   C40   S    
C26   H6    S    
C21   C36   S    
O14   H17   S    
C22   C35   S    
C5    H9    S    
C6    H10   S    
C32   C36   A    
O16   H18   S    
C24   C26   A    
C21   O5    A    
C22   O6    A    
C33   C36   A    
C34   C35   A    
C9    C42   S    
C16   N1    A    
C18   N1    A    
C29   C39   S    
C8    H7    S    
C23   C33   A    
C13   C37   S    
C31   C33   A    
C21   O7    A    
Cu1   O4    S    
Cu2   O7    S    
Cu1   N1    S    
C4    C7    A    
Cu1   O8    S    
C5    C7    A    
C39   O9    D    
C15   N2    A    
C5    C12   A    
C3    C8    A    
C6    C11   A    
C42   O16   S    
C6    C8    A    
C28   H1    S    
C24   C34   A    
C37   N3    T    
C39   O10   S    
C32   C34   A    
C41   O13   D    
C7    H8    S    
Cu1   Cu2   S    
C1    O3    A    
C22   O8    A    
Cu2   O3    S    
C41   O14   S    
C10   C41   S    
Cu2   N2    S    
C27   H2    S    
C15   H14   S    
C9    C11   A    
Cu1   O5    S    
C10   C12   A    
Cu2   O6    S    
C13   C15   A    
C14   C16   A    
C40   O12   S    
C13   C20   A    
C14   C19   A    
C17   H12   S    
C11   C12   A    
C2    O4    A    
C25   C27   A    
C26   C28   A    
C23   H3    S    
C1    C4    S    
C28   C30   A    
C2    C3    S    
C1    O1    A    
C40   O11   D    
C29   C31   A    
C3    C10   A    
C2    O2    A    
C30   C32   A    
C31   C35   A    
C17   C19   A    
C14   C38   S    
C18   C20   A    
C23   C25   A    
O10   H15   S    
C42   O15   D    
Cu1   O1    S    
Cu2   O2    S    
C38   N4    T    
C4    C9    A    
C17   N2    A    
C18   H11   S    
