data_mof_unit_19393.cif
_audit_creation_date              2012-12-10T18:50:51-0500
_audit_creation_method            fapswitch 2.2
_symmetry_space_group_name_H-M    P1
_symmetry_Int_Tables_number       1
_space_group_crystal_system       triclinic
_cell_length_a                    10.586989
_cell_length_b                    9.984422
_cell_length_c                    15.732746
_cell_angle_alpha                 89.986538
_cell_angle_beta                  91.290605
_cell_angle_gamma                 90.007096
_cell_volume                      1662.6074377

loop_
_atom_site_label
_atom_site_type_symbol
_atom_type_description
_atom_site_fract_x
_atom_site_fract_y
_atom_site_fract_z
_atom_type_partial_charge
Br1   Br    Br    0.257592 0.642749 0.893706 -0.397934
Br2   Br    Br    0.276530 0.323994 0.887185 -0.440714
Br3   Br    Br    0.482553 0.203587 0.110042 -0.522048
Br4   Br    Br    0.479757 0.799146 0.106383 -0.523583
Br5   Br    Br    0.850603 0.505044 0.684755 -0.545424
Br6   Br    Br    0.838655 0.495529 0.315482 -0.499856
C1    C     C_R   0.260965 0.500001 0.499987 0.857872
C2    C     C_R   0.932171 0.498156 0.422016 0.265135
C3    C     C_R   0.871633 0.500050 0.500134 -0.252753
C4    C     C_R   0.128469 0.500035 0.500078 -0.199504
C5    C     C_R   0.565447 0.071020 0.561300 0.143955
C6    C     C_R   0.565456 0.928961 0.561296 0.143564
C7    C     C_R   0.498319 0.500024 0.338759 0.919931
C8    C     C_R   0.434546 0.928991 0.438654 0.152555
C9    C     C_R   0.434546 0.071012 0.438656 0.152677
C10   C     C_R   0.739144 0.500010 0.500127 1.004452
C11   C     C_R   0.499604 0.499981 0.661229 0.919250
C12   C     C_3   0.647083 0.505368 0.950509 0.100741
C13   C     C_3   0.421028 0.630845 0.049826 0.211895
C14   C     C_3   0.424635 0.368871 0.049223 0.222909
C15   C     C_3   0.439006 0.362789 0.948762 0.281839
C16   C     C_3   0.427610 0.631808 0.948636 0.307823
C17   C     C_1   0.499997 0.499951 0.749767 -0.132950
C18   C     C_3   0.496936 0.500964 0.083098 -0.039159
C19   C     C_3   0.503234 0.500489 0.916875 -0.011291
C20   C     C_3   0.643419 0.502734 0.052590 0.175956
C21   C     C_1   0.501064 0.500088 0.824956 0.013887
C22   C     C_1   0.495908 0.500475 0.174967 0.005617
C23   C     C_1   0.496453 0.500154 0.250169 -0.120264
C24   C     C_R   0.067701 0.501955 0.578404 0.058533
C25   C     C_R   0.062444 0.498338 0.421805 0.052903
C26   C     C_R   0.937352 0.502105 0.578258 0.241042
H1    H     H_    0.311603 0.786751 0.394814 0.222210
H2    H     H_    0.469095 0.158056 0.939843 0.264053
H3    H     H_    0.501474 0.754697 0.853505 0.203489
H4    H     H_    0.564713 0.788676 0.951133 0.237016
H5    H     H_    0.702828 0.627062 0.153904 0.254609
H6    H     H_    0.694995 0.709071 0.059266 0.240559
H7    H     H_    0.691966 0.296046 0.054018 0.263800
H8    H     H_    0.703218 0.372609 0.150681 0.254882
H9    H     H_    0.806611 0.625487 0.938972 0.245468
H10   H     H_    0.712317 0.626916 0.852661 0.222067
H11   H     H_    0.722427 0.393121 0.851454 0.226572
H12   H     H_    0.432016 0.826262 0.327821 0.246473
H13   H     H_    0.813834 0.396461 0.939105 0.243515
H14   H     H_    0.194934 0.588639 0.659543 0.212498
H15   H     H_    0.194914 0.418779 0.661061 0.214718
H16   H     H_    0.183975 0.581988 0.339172 0.178415
H17   H     H_    0.184128 0.412183 0.340325 0.180077
H18   H     H_    0.688244 0.213454 0.605341 0.250900
H19   H     H_    0.567745 0.173640 0.672184 0.216133
H20   H     H_    0.688303 0.786555 0.605286 0.252345
H21   H     H_    0.567860 0.826263 0.672185 0.214095
H22   H     H_    0.311542 0.213161 0.394912 0.221656
H23   H     H_    0.431906 0.173862 0.327850 0.247909
H24   H     H_    0.243273 0.716797 0.059552 0.268674
H25   H     H_    0.283569 0.621817 0.142062 0.201457
H26   H     H_    0.247525 0.280527 0.055074 0.264827
H27   H     H_    0.280690 0.380618 0.135995 0.204107
H28   H     H_    0.529337 0.244249 0.860810 0.206200
N1    N     N_R   0.499970 0.857200 0.499980 -0.150783
N2    N     N_3   0.713836 0.385062 0.085308 -0.390028
N3    N     N_3   0.711605 0.626374 0.919093 -0.488153
N4    N     N_3   0.719644 0.390200 0.917802 -0.426174
N5    N     N_3   0.137193 0.503678 0.657874 -0.341478
N6    N     N_3   0.126503 0.497065 0.342278 -0.392400
N7    N     N_3   0.632738 0.136744 0.629197 -0.413816
N8    N     N_3   0.632806 0.863215 0.629169 -0.413859
N9    N     N_R   0.499970 0.142800 0.499980 -0.150630
N10   N     N_3   0.367123 0.863306 0.370821 -0.407501
N11   N     N_3   0.367058 0.136702 0.370854 -0.407162
N12   N     N_3   0.288053 0.626636 0.075791 -0.368646
N13   N     N_3   0.289685 0.372508 0.070123 -0.366439
N14   N     N_3   0.517527 0.246679 0.926613 -0.412421
N15   N     N_3   0.483343 0.758307 0.918477 -0.390315
N16   N     N_3   0.714395 0.617877 0.088420 -0.394820
O1    O     O_R   0.316750 0.614620 0.499990 -0.630286
O2    O     O_R   0.316750 0.385380 0.499990 -0.629505
O3    O     O_R   0.499990 0.614720 0.377140 -0.625194
O4    O     O_R   0.499990 0.385280 0.377140 -0.623270
O5    O     O_R   0.683220 0.614710 0.500000 -0.608401
O6    O     O_R   0.683220 0.385290 0.500000 -0.608270
O7    O     O_R   0.499980 0.614620 0.622860 -0.633638
O8    O     O_R   0.499980 0.385380 0.622860 -0.630997
Zn1   Zn    Zn3+2 0.499980 0.653120 0.500000 0.948174
Zn2   Zn    Zn3+2 0.499980 0.346880 0.500000 0.950235

loop_
_geom_bond_atom_site_label_1
_geom_bond_atom_site_label_2
_ccdc_geom_bond_type
C25   N6    S    
C7    O3    A    
C1    C4    S    
C12   C20   S    
H6    N16   S    
C6    N8    S    
H3    N15   S    
C11   C17   S    
C7    C23   S    
C22   C23   T    
C3    C10   S    
O8    Zn2   S    
C12   N3    S    
H8    N2    S    
H21   N8    S    
O4    Zn2   S    
C3    C26   A    
Br4   C13   S    
C4    C25   A    
H22   N11   S    
C14   C18   S    
C2    C3    A    
H24   N12   S    
C16   C19   S    
C20   N16   S    
H12   N10   S    
C17   C21   T    
H18   N7    S    
H27   N13   S    
H20   N8    S    
C1    O1    A    
Br5   C26   S    
O2    Zn2   S    
C7    O4    A    
O1    Zn1   S    
Br1   C16   S    
C8    N10   S    
C13   N12   S    
C12   C19   S    
C16   N15   S    
C5    N7    S    
H11   N4    S    
C9    N9    A    
H17   N6    S    
C13   C16   S    
H14   N5    S    
Br6   C2    S    
O6    Zn2   S    
C8    N1    A    
C15   N14   S    
C11   O7    A    
H4    N15   S    
C4    C24   A    
Br2   C15   S    
C10   O6    A    
Br3   C14   S    
H19   N7    S    
N1    Zn1   S    
H1    N10   S    
H2    N14   S    
C1    O2    A    
O7    Zn1   S    
H5    N16   S    
H9    N3    S    
O3    Zn1   S    
H7    N2    S    
C15   C19   S    
C2    C25   A    
C18   C22   S    
C18   C20   S    
C5    C6    A    
C5    N9    A    
C19   C21   S    
C9    N11   S    
H13   N4    S    
C11   O8    A    
C13   C18   S    
C20   N2    S    
C24   C26   A    
C6    N1    A    
C12   N4    S    
H28   N14   S    
C10   O5    A    
C14   N13   S    
H25   N12   S    
H23   N11   S    
C24   N5    S    
C14   C15   S    
C8    C9    A    
H16   N6    S    
H10   N3    S    
H15   N5    S    
O5    Zn1   S    
N9    Zn2   S    
H26   N13   S    
