data_mof_unit_34293.cif
_audit_creation_date              2012-12-11T15:47:09-0500
_audit_creation_method            fapswitch 2.2
_symmetry_space_group_name_H-M    P1
_symmetry_Int_Tables_number       1
_space_group_crystal_system       triclinic
_cell_length_a                    20.178176
_cell_length_b                    7.246514
_cell_length_c                    13.543619
_cell_angle_alpha                 90.215342
_cell_angle_beta                  102.881294
_cell_angle_gamma                 89.838534
_cell_volume                      1930.51191721

loop_
_atom_site_label
_atom_site_type_symbol
_atom_type_description
_atom_site_fract_x
_atom_site_fract_y
_atom_site_fract_z
_atom_type_partial_charge
O1    O     O_R   0.449560 0.506810 0.599700 -0.533985
O2    O     O_R   0.550440 0.006810 0.400300 -0.531220
O3    O     O_R   0.587960 0.180060 0.595760 -0.543621
O4    O     O_R   0.412040 0.680060 0.404240 -0.543589
C1    C     C_R   0.614250 0.345483 0.619825 0.687126
C2    C     C_R   0.385722 0.845311 0.380284 0.683213
O5    O     O_R   0.452380 0.177430 0.611700 -0.539662
O6    O     O_R   0.547620 0.677430 0.388300 -0.540568
O7    O     O_R   0.413900 0.001890 0.416350 -0.539470
O8    O     O_R   0.586100 0.501890 0.583650 -0.538831
C3    C     C_R   0.436240 0.346484 0.637795 0.684874
C4    C     C_R   0.563771 0.845624 0.362251 0.682084
O9    O     O_3   0.487530 0.337490 0.435890 -0.383093
O10   O     O_3   0.512470 0.837490 0.564110 -0.384595
V1    V     V_3+5 0.502310 0.064660 0.511890 1.383479
V2    V     V_3+5 0.497690 0.564660 0.488110 1.382211
C5    C     C_R   0.611785 0.936839 0.115165 -0.152268
C6    C     C_R   0.385676 0.478580 0.878263 -0.134580
H1    H     H_    0.518039 0.913742 0.162537 0.109152
H2    H     H_    0.479745 0.457322 0.831736 0.113712
H3    H     H_    0.585547 0.974241 0.039169 0.147449
H4    H     H_    0.410579 0.536360 0.950871 0.151703
C7    C     C_R   0.603893 0.856593 0.284826 -0.019518
C8    C     C_R   0.396151 0.361220 0.715322 -0.023853
C9    C     C_R   0.931898 0.808118 0.316308 0.200510
C10   C     C_R   0.069465 0.280975 0.687231 0.202649
C11   C     C_R   0.894690 0.783301 0.390731 -0.157037
C12   C     C_R   0.107310 0.245295 0.614540 -0.154846
C13   C     C_R   0.824339 0.804530 0.368040 -0.184447
C14   C     C_R   0.177087 0.276412 0.635740 -0.185630
C15   C     C_R   0.788303 0.854086 0.269569 0.075212
C16   C     C_R   0.211745 0.348133 0.730552 0.076629
C17   C     C_R   0.826287 0.885011 0.194401 -0.017562
C18   C     C_R   0.172812 0.392456 0.803145 -0.010769
C19   C     C_R   0.715901 0.871591 0.243048 0.035472
C20   C     C_R   0.283743 0.375213 0.756023 0.030291
C21   C     C_R   0.683235 0.924652 0.142614 0.120965
C22   C     C_R   0.314791 0.453155 0.852025 0.141700
C23   C     C_R   0.722118 0.965209 0.071099 0.182933
C24   C     C_R   0.274682 0.506782 0.919809 0.168920
C25   C     C_R   0.792467 0.941193 0.096843 -0.230554
C26   C     C_R   0.205091 0.472622 0.896081 -0.251026
C27   C     C_R   0.674570 0.839295 0.313191 -0.196675
C28   C     C_R   0.326113 0.329729 0.688816 -0.199434
C29   C     C_R   0.572690 0.902319 0.185533 -0.197345
C30   C     C_R   0.425706 0.433057 0.810472 -0.207644
C31   C     C_R   0.897766 0.858329 0.217848 -0.077665
C32   C     C_R   0.102149 0.353896 0.781978 -0.082856
H5    H     H_    0.695445 0.804188 0.391132 0.093157
H6    H     H_    0.306338 0.275461 0.613944 0.096436
H7    H     H_    0.799948 0.780774 0.429841 0.118260
H8    H     H_    0.202154 0.242636 0.575715 0.118690
H9    H     H_    0.920223 0.745150 0.467025 0.118953
H10   H     H_    0.082828 0.189909 0.541092 0.118138
H11   H     H_    0.820743 0.969576 0.039480 0.120392
H12   H     H_    0.176557 0.512267 0.951638 0.133569
C33   C     C_R   0.227301 0.011901 0.186827 -0.177313
C34   C     C_R   0.773508 0.514285 0.811057 -0.169787
H13   H     H_    0.209451 0.131018 0.140178 0.117838
H14   H     H_    0.791578 0.634613 0.856869 0.120172
C35   C     C_R   0.293904 0.011773 0.247179 0.084916
C36   C     C_R   0.706972 0.514632 0.750720 0.078700
C37   C     C_R   0.317502 0.854446 0.308567 -0.057174
C38   C     C_R   0.682708 0.355177 0.691007 -0.061637
C39   C     C_R   0.274110 0.700293 0.301552 -0.186102
C40   C     C_R   0.725774 0.199613 0.698959 -0.186200
H15   H     H_    0.290355 0.577688 0.345984 0.124512
H16   H     H_    0.709185 0.075733 0.655570 0.124387
C41   C     C_R   0.208803 0.701860 0.238876 -0.165682
C42   C     C_R   0.791138 0.201116 0.761454 -0.173960
H17   H     H_    0.177023 0.580955 0.236312 0.132957
H18   H     H_    0.822586 0.078893 0.764965 0.133168
C43   C     C_R   0.184252 0.858915 0.182243 -0.062031
C44   C     C_R   0.816042 0.359384 0.817062 -0.061087
O11   O     O_R   0.913920 0.203370 0.916260 -0.538362
O12   O     O_R   0.086080 0.703370 0.083740 -0.539463
O13   O     O_R   0.047620 0.535540 0.888290 -0.548160
O14   O     O_R   0.952380 0.035540 0.111710 -0.547445
C45   C     C_R   0.063558 0.367552 0.861895 0.720412
C46   C     C_R   0.936665 0.868334 0.138333 0.722217
O15   O     O_R   0.912040 0.532780 0.904220 -0.547143
O16   O     O_R   0.087960 0.032780 0.095780 -0.546548
O17   O     O_R   0.949550 0.708160 0.099720 -0.526833
O18   O     O_R   0.050450 0.208160 0.900280 -0.524589
C47   C     C_R   0.885502 0.364763 0.883317 0.690425
C48   C     C_R   0.114605 0.864705 0.116461 0.689092
O19   O     O_3   0.012480 0.375300 0.064060 -0.377847
O20   O     O_3   0.987520 0.875300 0.935940 -0.377033
V3    V     V_3+5 0.997690 0.648180 0.988110 1.426767
V4    V     V_3+5 0.002310 0.148180 0.011890 1.429631
C49   C     C_3   0.338248 0.176994 0.237484 -0.357922
C50   C     C_3   0.393534 0.123829 0.180996 -0.290162
C51   C     C_3   0.437844 0.288418 0.168022 -0.733798
H19   H     H_    0.465751 0.340499 0.242711 0.250563
H20   H     H_    0.475428 0.245883 0.123615 0.206805
H21   H     H_    0.406371 0.401458 0.126995 0.236408
H22   H     H_    0.426458 0.014423 0.223140 0.179595
H23   H     H_    0.369248 0.068698 0.104806 0.195814
H24   H     H_    0.307013 0.288697 0.194079 0.153983
H25   H     H_    0.360022 0.239801 0.312284 0.199469
C52   C     C_3   0.663139 0.681944 0.760014 -0.355011
C53   C     C_3   0.611648 0.635642 0.824123 -0.280960
C54   C     C_3   0.559769 0.790246 0.822306 -0.703528
H26   H     H_    0.521476 0.787976 0.749696 0.244416
H27   H     H_    0.532815 0.769542 0.884468 0.196038
H28   H     H_    0.584670 0.927403 0.831993 0.241948
H29   H     H_    0.584254 0.506592 0.796103 0.163927
H30   H     H_    0.639487 0.612414 0.903738 0.200880
H31   H     H_    0.695186 0.797382 0.798126 0.165383
H32   H     H_    0.638595 0.738913 0.685126 0.201752
N1    N     N_3   0.690032 0.032942 0.972220 -0.697122
H33   H     H_    0.725264 0.045781 0.926583 0.232293
H34   H     H_    0.672366 0.166299 0.981411 0.222992
N2    N     N_3   0.304188 0.600243 0.012698 -0.703504
H35   H     H_    0.291375 0.527659 0.072260 0.229004
H36   H     H_    0.281742 0.730829 0.010731 0.238759
N3    N     N_3   0.004360 0.780886 0.339681 -0.676223
H37   H     H_    0.021236 0.735536 0.414299 0.227187
H38   H     H_    0.026937 0.909433 0.335359 0.210544
N4    N     N_3   0.997849 0.241389 0.666078 -0.671825
H39   H     H_    0.982183 0.180275 0.594621 0.226132
H40   H     H_    0.972065 0.367327 0.663072 0.209832

loop_
_geom_bond_atom_site_label_1
_geom_bond_atom_site_label_2
_ccdc_geom_bond_type
C34   C36   A    
C40   H16   S    
C37   C39   A    
C52   C53   S    
C7    C29   A    
C11   C13   A    
N1    H33   S    
O1    C3    A    
O2    C4    A    
C2    O7    A    
N2    H35   S    
C50   H23   S    
C23   C25   A    
O14   V4    S    
O5    C3    A    
C4    C7    S    
O13   V3    S    
C51   H19   S    
C16   C20   A    
C32   C45   S    
C19   C21   A    
C10   N4    S    
N3    H38   S    
C45   O18   A    
O14   C46   A    
C33   H13   S    
C52   H31   S    
C3    C8    S    
C7    C27   A    
C35   C37   A    
O6    V2    S    
C33   C43   A    
C41   H17   S    
C25   H11   S    
C36   C38   A    
O11   V4    S    
C26   H12   S    
O19   V4    S    
O11   C47   A    
C24   N2    S    
N1    H34   S    
C39   H15   S    
C18   C26   A    
C42   C44   A    
C15   C17   A    
C41   C43   A    
C49   H25   S    
C14   C16   A    
C19   C27   A    
C9    C31   A    
C10   C32   A    
O12   V3    S    
C36   C52   S    
O15   V3    S    
C23   N1    S    
C51   H20   S    
O18   V4    S    
C31   C46   S    
C46   O17   A    
C6    C30   A    
N4    H40   S    
C50   H22   S    
O13   C45   A    
O17   V3    S    
O4    C2    A    
C49   C50   S    
C12   H10   S    
C27   H5    S    
C52   H32   S    
O16   C48   A    
C5    H3    S    
C1    C38   S    
C38   C40   A    
C2    C37   S    
O4    V2    S    
O6    C4    A    
H1    C29   S    
C53   H29   S    
C54   H27   S    
O1    V2    S    
C5    C21   A    
C53   H30   S    
O2    V1    S    
C51   H21   S    
C17   C31   A    
C15   C19   A    
C20   C28   A    
C18   C32   A    
O12   C48   A    
O3    V1    S    
N4    H39   S    
C34   C44   A    
C13   H7    S    
C28   H6    S    
C39   C41   A    
C14   H8    S    
C6    H4    S    
C5    C29   A    
C24   C26   A    
O3    C1    A    
C9    N3    S    
N2    H36   S    
C11   H9    S    
C33   C35   A    
C9    C11   A    
C10   C12   A    
O16   V4    S    
C8    C30   A    
C20   C22   A    
C6    C22   A    
C17   C25   A    
C12   C14   A    
C13   C15   A    
O8    V2    S    
N3    H37   S    
C22   C24   A    
C40   C42   A    
C8    C28   A    
O5    V1    S    
C50   C51   S    
C54   H28   S    
C44   C47   S    
O7    V1    S    
C53   C54   S    
O15   C47   A    
C43   C48   S    
C1    O8    A    
O20   V3    S    
C21   C23   A    
O9    V2    S    
C54   H26   S    
O10   V1    S    
C42   H18   S    
C49   H24   S    
C34   H14   S    
H2    C30   S    
C35   C49   S    
C16   C18   A    
