data_mof_unit_45019.cif
_audit_creation_date              2012-12-10T17:49:44-0500
_audit_creation_method            fapswitch 2.2
_symmetry_space_group_name_H-M    P1
_symmetry_Int_Tables_number       1
_space_group_crystal_system       triclinic
_cell_length_a                    10.500451
_cell_length_b                    10.711781
_cell_length_c                    9.9088
_cell_angle_alpha                 90.303866
_cell_angle_beta                  89.53989
_cell_angle_gamma                 91.632599
_cell_volume                      1114.02457056

loop_
_atom_site_label
_atom_site_type_symbol
_atom_type_description
_atom_site_fract_x
_atom_site_fract_y
_atom_site_fract_z
_atom_type_partial_charge
C1    C     C_R   0.510886 0.260601 0.500288 0.857095
C2    C     C_R   0.528854 0.062702 0.626589 0.072488
C3    C     C_R   0.521601 0.127239 0.502540 -0.100101
C4    C     C_R   0.257545 0.499479 0.500591 0.852159
C5    C     C_R   0.500438 0.062877 0.381580 -0.217662
C6    C     C_R   0.483630 0.935875 0.382786 -0.218372
C7    C     C_R   0.477566 0.872930 0.505747 -0.118589
C8    C     C_R   0.334746 0.334673 0.140434 -0.180408
C9    C     C_R   0.254319 0.251174 0.070991 0.109359
C10   C     C_R   0.254157 0.252430 0.930481 -0.240566
C11   C     C_R   0.334182 0.335395 0.860410 -0.177011
C12   C     C_3   0.961315 0.499391 0.370725 -0.149772
C13   C     C_R   0.418296 0.418819 0.927946 0.147313
C14   C     C_R   0.418370 0.418738 0.072422 0.080702
C15   C     C_R   0.578799 0.577665 0.071489 0.157108
C16   C     C_R   0.489079 0.739484 0.501312 0.888935
C17   C     C_R   0.578296 0.577499 0.927868 -0.185585
C18   C     C_R   0.742481 0.500259 0.499420 0.889887
C19   C     C_3   0.039641 0.499404 0.630004 -0.197293
C20   C     C_3   0.954165 0.396555 0.563459 -0.212842
C21   C     C_3   0.877399 0.499316 0.498110 0.009409
C22   C     C_3   0.961684 0.599663 0.562388 0.132907
C23   C     C_3   0.040406 0.396440 0.436035 -0.167804
C24   C     C_3   0.046682 0.602767 0.436313 -0.181196
C25   C     C_3   0.122742 0.499606 0.501900 0.005689
C26   C     C_R   0.576668 0.117101 0.747156 -0.242577
C27   C     C_R   0.552324 0.060915 0.872537 0.159061
C28   C     C_R   0.480488 0.948766 0.877584 0.140532
C29   C     C_R   0.447095 0.888083 0.756550 -0.249915
C30   C     C_R   0.483371 0.939402 0.629970 0.078050
H1    H     H_    0.389108 0.803286 0.762788 0.168906
H2    H     H_    0.634034 0.202549 0.744850 0.166231
H3    H     H_    0.911950 0.312729 0.614097 0.138993
H4    H     H_    0.378118 0.953036 0.050154 0.169862
H5    H     H_    0.400705 0.807836 0.992667 0.175971
H6    H     H_    0.756869 0.641071 0.112167 0.153421
H7    H     H_    0.645436 0.751695 0.113684 0.188619
H8    H     H_    0.230869 0.105487 0.197300 0.170720
H9    H     H_    0.117390 0.111213 0.079588 0.183685
H10   H     H_    0.993125 0.762578 0.663632 0.173926
H11   H     H_    0.863641 0.680595 0.715648 0.185709
H12   H     H_    0.475553 0.887121 0.287103 0.186717
H13   H     H_    0.078132 0.312876 0.384340 0.153456
H14   H     H_    0.496220 0.110428 0.285709 0.172314
H15   H     H_    0.654657 0.197363 0.973748 0.174620
H16   H     H_    0.517936 0.150287 0.047486 0.185149
H17   H     H_    0.329325 0.330130 0.247478 0.213422
H18   H     H_    0.191827 0.189043 0.874532 0.145698
H19   H     H_    0.327300 0.331172 0.753452 0.217183
H20   H     H_    0.641926 0.640750 0.873184 0.155718
H21   H     H_    0.074858 0.501204 0.735393 0.149757
H22   H     H_    0.088443 0.687369 0.386794 0.132352
H23   H     H_    0.925807 0.498696 0.265468 0.149748
N1    N     N_R   0.498800 0.498800 0.142780 -0.113785
N2    N     N_R   0.498760 0.498720 0.857170 -0.127060
N3    N     N_3   0.445557 0.895422 0.005758 -0.472658
N4    N     N_3   0.663937 0.660371 0.142761 -0.390250
N5    N     N_3   0.172595 0.166310 0.145513 -0.474832
N6    N     N_3   0.914014 0.710348 0.629728 -0.461733
N7    N     N_3   0.597399 0.118358 0.995127 -0.448692
O1    O     O_R   0.500000 0.316780 0.614690 -0.646550
O2    O     O_R   0.499990 0.316750 0.385360 -0.645312
O3    O     O_R   0.313960 0.499980 0.614650 -0.648397
O4    O     O_R   0.313940 0.499960 0.385310 -0.637664
O5    O     O_R   0.500010 0.683250 0.614640 -0.623221
O6    O     O_R   0.500000 0.683220 0.385310 -0.598014
O7    O     O_R   0.686060 0.500040 0.614690 -0.626687
O8    O     O_R   0.686040 0.500020 0.385350 -0.603000
Zn1   Zn    Zn3+2 0.500010 0.500020 0.653130 0.917760
Zn2   Zn    Zn3+2 0.499990 0.499980 0.346870 0.946920

loop_
_geom_bond_atom_site_label_1
_geom_bond_atom_site_label_2
_ccdc_geom_bond_type
C17   H20   S    
C24   H22   S    
H15   N7    S    
H4    N3    S    
C6    C7    A    
C11   H19   S    
O4    Zn2   S    
C18   C21   S    
C11   C13   A    
C9    C10   A    
C17   N2    A    
C19   C20   S    
N1    Zn2   S    
C20   C23   S    
C2    C30   A    
C13   N2    A    
C1    O2    A    
C3    C5    A    
C2    C3    A    
C28   N3    S    
C8    H17   S    
O3    Zn1   S    
C2    C26   A    
C7    C30   A    
O6    Zn2   S    
C21   C22   S    
C24   C25   S    
C26   H2    S    
C15   N4    S    
C12   C23   S    
O2    Zn2   S    
C26   C27   A    
N2    Zn1   S    
O5    Zn1   S    
C20   H3    S    
C12   C21   S    
C4    O3    A    
C28   C29   A    
C14   N1    A    
C5    H14   S    
C4    C25   S    
C27   N7    S    
C23   C25   S    
C10   H18   S    
C5    C6    A    
C19   C25   S    
H7    N4    S    
C22   C24   S    
H5    N3    S    
C16   O6    A    
C10   C11   A    
O7    Zn1   S    
C29   C30   A    
C15   N1    A    
C19   H21   S    
C27   C28   A    
C19   C22   S    
C23   H13   S    
C20   C21   S    
H11   N6    S    
C4    O4    A    
C29   H1    S    
H6    N4    S    
C6    H12   S    
O1    Zn1   S    
C22   N6    S    
H10   N6    S    
O8    Zn2   S    
C12   C24   S    
C9    N5    S    
C8    C14   A    
C16   O5    A    
C13   C14   A    
H16   N7    S    
C18   O7    A    
C15   C17   A    
H9    N5    S    
C18   O8    A    
H8    N5    S    
C7    C16   S    
C12   H23   S    
C8    C9    A    
C1    C3    S    
C1    O1    A    
