data_mof_unit_45224.cif
_audit_creation_date              2012-12-10T18:50:02-0500
_audit_creation_method            fapswitch 2.2
_symmetry_space_group_name_H-M    P1
_symmetry_Int_Tables_number       1
_space_group_crystal_system       triclinic
_cell_length_a                    10.70114
_cell_length_b                    9.918177
_cell_length_c                    10.720531
_cell_angle_alpha                 90.230204
_cell_angle_beta                  91.181396
_cell_angle_gamma                 90.024829
_cell_volume                      1137.58093912

loop_
_atom_site_label
_atom_site_type_symbol
_atom_type_description
_atom_site_fract_x
_atom_site_fract_y
_atom_site_fract_z
_atom_type_partial_charge
C1    C     C_R   0.259958 0.499982 0.498896 0.892664
C2    C     C_3   0.620495 0.395964 0.930674 0.746686
C3    C     C_R   0.063770 0.383203 0.531741 -0.229266
C4    C     C_R   0.062532 0.615800 0.459956 -0.151796
C5    C     C_R   0.935978 0.382532 0.529947 -0.205809
C6    C     C_R   0.934569 0.615959 0.459684 -0.152227
C7    C     C_R   0.871849 0.499425 0.495123 0.016478
C8    C     C_R   0.127035 0.499650 0.496436 -0.015589
C9    C     C_R   0.605707 0.071719 0.530191 -0.154897
C10   C     C_R   0.604877 0.928687 0.533088 -0.224946
C11   C     C_R   0.396127 0.927504 0.461721 0.503688
C12   C     C_R   0.392811 0.071725 0.470363 0.506797
C13   C     C_R   0.504594 0.499684 0.258049 1.003699
C14   C     C_R   0.739576 0.499975 0.497340 0.841955
C15   C     C_R   0.509568 0.500220 0.741954 0.945272
C16   C     C_3   0.566243 0.636501 0.074166 -0.121458
C17   C     C_3   0.376088 0.494223 0.064697 -0.150823
C18   C     C_3   0.551501 0.644644 0.930738 0.300337
C19   C     C_3   0.383110 0.460003 0.925308 0.336212
C20   C     C_3   0.592488 0.373815 0.073122 0.230418
C21   C     C_3   0.511931 0.498237 0.121952 -0.265998
C22   C     C_3   0.516803 0.500011 0.879234 -0.259125
H1    H     H_    0.509641 0.719884 0.113239 0.181783
H2    H     H_    0.335594 0.597280 0.072889 0.214319
H3    H     H_    0.641963 0.676035 0.890750 0.131452
H4    H     H_    0.372643 0.348703 0.913089 0.136789
H5    H     H_    0.112467 0.293939 0.563665 0.201658
H6    H     H_    0.109982 0.706125 0.431725 0.209016
H7    H     H_    0.887841 0.292100 0.558836 0.149683
H8    H     H_    0.885085 0.706528 0.431526 0.173567
H9    H     H_    0.690705 0.125192 0.555023 0.163953
H10   H     H_    0.689060 0.875504 0.560880 0.170423
N1    N     N_R   0.499970 0.857200 0.499970 -0.130705
N2    N     N_R   0.499970 0.142800 0.499970 -0.122863
O1    O     O_R   0.316750 0.614620 0.499990 -0.565923
O2    O     O_R   0.316750 0.385380 0.499990 -0.564750
O3    O     O_R   0.499970 0.614670 0.314790 -0.637234
O4    O     O_R   0.499970 0.385330 0.314790 -0.558036
O5    O     O_R   0.683220 0.614710 0.500010 -0.641824
O6    O     O_R   0.683220 0.385290 0.500010 -0.632540
O7    O     O_R   0.500010 0.614660 0.685200 -0.571345
O8    O     O_R   0.500010 0.385340 0.685200 -0.593583
Zn1   Zn    Zn3+2 0.499980 0.653120 0.500000 1.001472
Zn2   Zn    Zn3+2 0.499980 0.346880 0.500000 1.028209
I1    I     I_    0.749897 0.699420 0.139095 -0.327610
I2    I     I_    0.227879 0.389668 0.156252 -0.389008
O9    O     O_3   0.292207 0.857826 0.419543 -0.621847
C23   C     C_3   0.304143 0.826053 0.291168 -0.284274
H11   H     H_    0.291418 0.716194 0.277592 0.210092
H12   H     H_    0.394084 0.857358 0.249021 0.156093
H13   H     H_    0.226985 0.873733 0.236832 0.164450
O10   O     O_3   0.279756 0.139425 0.472685 -0.608895
C24   C     C_3   0.205894 0.117614 0.364231 -0.206764
H14   H     H_    0.144892 0.206273 0.349956 0.213636
H15   H     H_    0.140632 0.032395 0.377975 0.193633
H16   H     H_    0.262291 0.105339 0.278886 0.181104
O11   O     O_3   0.454884 0.737687 0.898427 -0.543515
C25   C     C_3   0.503615 0.868705 0.884174 -0.218775
H17   H     H_    0.564691 0.873760 0.801705 0.154338
H18   H     H_    0.555717 0.901815 0.969586 0.166987
H19   H     H_    0.424869 0.939689 0.868329 0.215545
O12   O     O_3   0.288902 0.534317 0.859771 -0.533631
C26   C     C_3   0.192805 0.448953 0.814526 -0.256160
H20   H     H_    0.145045 0.396932 0.891535 0.195784
H21   H     H_    0.229919 0.373696 0.747828 0.154040
H22   H     H_    0.121952 0.511545 0.765076 0.189902
I3    I     I_    0.764187 0.339485 0.183110 -0.238106
I4    I     I_    0.499383 0.179324 0.103900 -0.402446
O13   O     O_3   0.743118 0.453851 0.923374 -0.606857
C27   C     C_3   0.788793 0.467488 0.801193 -0.309092
H23   H     H_    0.775861 0.572112 0.767566 0.145535
H24   H     H_    0.746570 0.396818 0.732586 0.176889
H25   H     H_    0.890707 0.447336 0.804241 0.192333
O14   O     O_3   0.610496 0.270045 0.864660 -0.625400
C28   C     C_3   0.716045 0.183704 0.876868 -0.200909
H26   H     H_    0.791970 0.220421 0.939850 0.215913
H27   H     H_    0.755765 0.166319 0.783478 0.136977
H28   H     H_    0.685753 0.084404 0.911600 0.174244

loop_
_geom_bond_atom_site_label_1
_geom_bond_atom_site_label_2
_ccdc_geom_bond_type
C26   H21   S    
C16   C21   S    
C1    C8    S    
C20   I3    S    
C11   O9    S    
C4    C8    A    
C24   H14   S    
C19   O12   S    
C25   H18   S    
C19   H4    S    
C4    H6    S    
C14   O5    A    
C15   C22   S    
C2    C22   S    
C27   H23   S    
C7    C14   S    
C2    O13   S    
O1    Zn1   S    
C9    C10   A    
C13   O3    A    
C2    O14   S    
C25   H19   S    
C23   H12   S    
C26   H22   S    
O7    Zn1   S    
C18   H3    S    
O8    Zn2   S    
C12   O10   S    
C5    H7    S    
C23   H13   S    
C17   H2    S    
O14   C28   S    
C2    C20   S    
N1    Zn1   S    
C11   N1    A    
C19   C22   S    
N2    Zn2   S    
C17   I2    S    
C15   O7    A    
C4    C6    A    
C3    C8    A    
C5    C7    A    
O5    Zn1   S    
C25   H17   S    
C17   C21   S    
O3    Zn1   S    
C28   H26   S    
O4    Zn2   S    
O12   C26   S    
C18   O11   S    
O9    C23   S    
C27   H25   S    
C13   C21   S    
C28   H27   S    
C13   O4    A    
C23   H11   S    
C6    H8    S    
C16   H1    S    
C9    N2    A    
O2    Zn2   S    
C24   H15   S    
C12   N2    A    
O10   C24   S    
C1    O1    A    
C24   H16   S    
C18   C22   S    
C20   I4    S    
C15   O8    A    
C3    C5    A    
C16   I1    S    
C11   C12   A    
C6    C7    A    
C3    H5    S    
O11   C25   S    
C17   C19   S    
C10   N1    A    
O13   C27   S    
C28   H28   S    
C9    H9    S    
C14   O6    A    
C26   H20   S    
C10   H10   S    
O6    Zn2   S    
C20   C21   S    
C16   C18   S    
C27   H24   S    
C1    O2    A    
