data_mof_unit_36093.cif
_audit_creation_date              2012-12-10T20:00:04-0500
_audit_creation_method            fapswitch 2.2
_symmetry_space_group_name_H-M    P1
_symmetry_Int_Tables_number       1
_space_group_crystal_system       triclinic
_cell_length_a                    15.070334
_cell_length_b                    14.379726
_cell_length_c                    8.963718
_cell_angle_alpha                 90.155079
_cell_angle_beta                  96.409354
_cell_angle_gamma                 90.168349
_cell_volume                      1930.34434545

loop_
_atom_site_label
_atom_site_type_symbol
_atom_type_description
_atom_site_fract_x
_atom_site_fract_y
_atom_site_fract_z
_atom_type_partial_charge
C1    C     C_R   0.327380 0.499947 0.499753 0.906944
C2    C     C_R   0.440298 0.894566 0.400109 -0.296379
C3    C     C_R   0.499676 0.499924 0.218829 0.906086
C4    C     C_R   0.500133 0.500079 0.781143 0.926094
C5    C     C_R   0.497723 0.052662 0.501426 0.039056
C6    C     C_R   0.497872 0.946706 0.501317 0.053073
C7    C     C_1   0.499861 0.499952 0.065321 -0.098301
C8    C     C_1   0.499991 0.500193 0.934678 -0.098066
C9    C     C_R   0.090196 0.580969 0.420153 -0.231816
C10   C     C_R   0.892795 0.429364 0.369927 -0.136348
C11   C     C_R   0.910718 0.574402 0.507457 -0.226397
C12   C     C_R   0.671698 0.500075 0.493542 0.894416
C13   C     C_R   0.089004 0.415493 0.467308 -0.220693
C14   C     C_R   0.181883 0.583868 0.454464 0.081915
C15   C     C_R   0.802624 0.427603 0.388691 0.050837
C16   C     C_R   0.820781 0.576165 0.523200 0.073193
C17   C     C_R   0.181644 0.415258 0.493409 0.082126
C18   C     C_R   0.229486 0.499879 0.485181 -0.042655
C19   C     C_R   0.766053 0.500471 0.470264 -0.073503
C20   C     C_R   0.043404 0.498085 0.431522 0.094606
C21   C     C_R   0.947150 0.501312 0.432345 0.070205
C22   C     C_R   0.453871 0.201859 0.383091 0.477321
C23   C     C_R   0.554709 0.798048 0.606335 0.477275
C24   C     C_R   0.545009 0.202227 0.617645 0.472689
C25   C     C_R   0.444930 0.796693 0.393220 0.482227
C26   C     C_R   0.458049 0.103895 0.379995 -0.289212
C27   C     C_R   0.556571 0.895948 0.601457 -0.285369
C28   C     C_R   0.538202 0.104476 0.622405 -0.283710
H1    H     H_    0.054973 0.645363 0.392578 0.147203
H2    H     H_    0.678918 0.628166 0.868864 0.358982
H3    H     H_    0.697594 0.367406 0.839982 0.364351
H4    H     H_    0.317243 0.626425 0.136591 0.360947
H5    H     H_    0.200529 0.710081 0.552456 0.185439
H6    H     H_    0.205817 0.709663 0.365720 0.240977
H7    H     H_    0.694929 0.379950 0.252511 0.203588
H8    H     H_    0.728928 0.309809 0.402225 0.247687
H9    H     H_    0.797940 0.714267 0.531690 0.206592
H10   H     H_    0.822261 0.663110 0.700863 0.218447
H11   H     H_    0.201892 0.305025 0.632672 0.192487
H12   H     H_    0.920693 0.373687 0.308261 0.160644
H13   H     H_    0.208766 0.280899 0.449560 0.234675
H14   H     H_    0.952404 0.629956 0.558657 0.144513
H15   H     H_    0.052743 0.351545 0.481758 0.148988
H16   H     H_    0.430121 0.068141 0.279800 0.214226
H17   H     H_    0.603532 0.932080 0.680698 0.210007
H18   H     H_    0.565226 0.069345 0.723249 0.213161
H19   H     H_    0.392821 0.929763 0.321343 0.208583
H20   H     H_    0.309588 0.368528 0.151468 0.362386
N1    N     N_R   0.500000 0.252470 0.500000 -0.212467
N2    N     N_R   0.500000 0.747530 0.500000 -0.209633
N3    N     N_3   0.224763 0.673194 0.464911 -0.372729
N4    N     N_3   0.750089 0.352698 0.319116 -0.421162
N5    N     N_3   0.786432 0.655214 0.594689 -0.351313
N6    N     N_3   0.225930 0.329502 0.534989 -0.388564
O1    O     O_R   0.369060 0.579480 0.500010 -0.564505
O2    O     O_2   0.327848 0.178954 0.148877 -0.303694
O3    O     O_3   0.331701 0.344810 0.252428 -0.546211
O4    O     O_2   0.694952 0.813147 0.817349 -0.317391
O5    O     O_2   0.554781 0.756059 0.892396 -0.233306
O6    O     O_3   0.654007 0.642748 0.764590 -0.538278
O7    O     O_2   0.548958 0.279982 0.887988 -0.245768
O8    O     O_2   0.672263 0.178120 0.849223 -0.291510
O9    O     O_3   0.674487 0.341854 0.740341 -0.542630
O10   O     O_2   0.322285 0.814611 0.151808 -0.315242
O11   O     O_2   0.460426 0.734198 0.119509 -0.233857
O12   O     O_R   0.630940 0.420520 0.499990 -0.597572
O13   O     O_3   0.338274 0.645877 0.240687 -0.554875
O14   O     O_R   0.630940 0.579480 0.499990 -0.557280
O15   O     O_R   0.369060 0.420520 0.500010 -0.556716
O16   O     O_R   0.500000 0.579460 0.285340 -0.553499
O17   O     O_R   0.500000 0.420540 0.714660 -0.557719
O18   O     O_R   0.500000 0.579460 0.714660 -0.556376
O19   O     O_R   0.500000 0.420540 0.285340 -0.567488
O20   O     O_2   0.456478 0.274578 0.112050 -0.242812
S1    S     S_3+6 0.391876 0.250563 0.221207 0.054491
S2    S     S_3+6 0.615704 0.751534 0.771524 0.054938
S3    S     S_3+6 0.610625 0.251154 0.776748 0.060252
S4    S     S_3+6 0.390471 0.747615 0.223856 0.050886
Zn1   Zn    Zn3+2 0.500000 0.606140 0.500000 1.098256
Zn2   Zn    Zn3+2 0.500000 0.393860 0.500000 1.084278

loop_
_geom_bond_atom_site_label_1
_geom_bond_atom_site_label_2
_ccdc_geom_bond_type
C14   C18   A    
O8    S3    D    
C4    O18   A    
C23   S2    S    
C4    C8    S    
N2    Zn1   S    
C26   H16   S    
H20   O3    S    
C15   C19   A    
C12   O14   A    
C28   H18   S    
C1    C18   S    
O18   Zn1   S    
C3    C7    S    
C10   C15   A    
C5    C6    S    
H11   N6    S    
C11   H14   S    
C10   H12   S    
C25   N2    A    
C16   N5    S    
C14   N3    S    
O7    S3    D    
H2    O6    S    
C23   C27   A    
H8    N4    S    
C9    H1    S    
H9    N5    S    
C27   H17   S    
O14   Zn1   S    
O2    S1    D    
C2    C6    A    
O13   S4    S    
C22   S1    S    
O17   Zn2   S    
C10   C21   A    
O20   S1    D    
O4    S2    D    
C25   S4    S    
H3    O9    S    
C7    C8    T    
C3    O16   A    
C23   N2    A    
C12   O12   A    
C11   C21   A    
C1    O15   A    
C9    C14   A    
C5    C28   A    
O1    Zn1   S    
C11   C16   A    
C9    C20   A    
C6    C27   A    
C17   C18   A    
H6    N3    S    
C15   N4    S    
H4    O13   S    
C22   N1    A    
C13   H15   S    
O9    S3    S    
C24   N1    A    
O11   S4    D    
C13   C20   A    
O16   Zn1   S    
O10   S4    D    
C24   C28   A    
C2    H19   S    
H5    N3    S    
O12   Zn2   S    
N1    Zn2   S    
C13   C17   A    
O3    S1    S    
C1    O1    A    
H10   N5    S    
C16   C19   A    
C17   N6    S    
C12   C19   S    
O19   Zn2   S    
O6    S2    S    
C2    C25   A    
C3    O19   A    
H13   N6    S    
C5    C26   A    
C24   S3    S    
C20   C21   S    
C22   C26   A    
H7    N4    S    
O15   Zn2   S    
O5    S2    D    
C4    O17   A    
