data_mof_unit_37618.cif
_audit_creation_date              2012-12-10T18:57:49-0500
_audit_creation_method            fapswitch 2.2
_symmetry_space_group_name_H-M    P1
_symmetry_Int_Tables_number       1
_space_group_crystal_system       triclinic
_cell_length_a                    10.70467
_cell_length_b                    9.893298
_cell_length_c                    8.894428
_cell_angle_alpha                 89.968991
_cell_angle_beta                  90.828208
_cell_angle_gamma                 90.964586
_cell_volume                      941.72794459

loop_
_atom_site_label
_atom_site_type_symbol
_atom_type_description
_atom_site_fract_x
_atom_site_fract_y
_atom_site_fract_z
_atom_type_partial_charge
C1    C     C_R   0.259993 0.498731 0.502978 1.013710
C2    C     C_R   0.066458 0.597700 0.588881 0.364812
C3    C     C_R   0.871522 0.502369 0.500413 -0.418963
C4    C     C_R   0.127040 0.495951 0.508659 -0.424196
C5    C     C_R   0.564158 0.073652 0.608704 0.101901
C6    C     C_R   0.437517 0.926391 0.389898 0.076290
C7    C     C_R   0.439667 0.071124 0.388068 0.091046
C8    C     C_R   0.564623 0.928862 0.608315 0.094702
C9    C     C_3   0.098898 0.170993 0.465190 -0.233833
C10   C     C_3   0.861569 0.611952 0.830483 -0.287226
C11   C     C_3   0.855887 0.376563 0.177080 -0.263959
C12   C     C_R   0.739464 0.500994 0.499866 0.993831
C13   C     C_3   0.124842 0.819554 0.614144 -0.209226
C14   C     C_R   0.500143 0.500022 0.218804 0.920231
C15   C     C_R   0.500535 0.499990 0.781206 0.922825
C16   C     C_1   0.500652 0.500037 0.065452 -0.201307
C17   C     C_1   0.500803 0.499983 0.934568 -0.198442
C18   C     C_R   0.059675 0.393176 0.432170 0.370561
C19   C     C_R   0.937044 0.592967 0.594766 0.374949
C20   C     C_R   0.932287 0.406329 0.413794 0.362492
H1    H     H_    0.148925 0.186022 0.574613 0.149594
H2    H     H_    0.140408 0.819705 0.490616 0.132358
H3    H     H_    0.033058 0.864438 0.639057 0.180665
H4    H     H_    0.198247 0.885690 0.665991 0.162330
H5    H     H_    0.727749 0.124819 0.712660 0.159610
H6    H     H_    0.601560 0.120680 0.826481 0.157535
H7    H     H_    0.276776 0.877731 0.278406 0.146373
H8    H     H_    0.406706 0.877812 0.171266 0.170318
H9    H     H_    0.292401 0.110836 0.248735 0.188807
H10   H     H_    0.433662 0.119736 0.167830 0.161750
H11   H     H_    0.727150 0.888141 0.716155 0.201928
H12   H     H_    0.998063 0.149271 0.484831 0.173759
H13   H     H_    0.598917 0.880751 0.825841 0.154458
H14   H     H_    0.136518 0.079462 0.411993 0.142627
H15   H     H_    0.954082 0.591347 0.883566 0.177179
H16   H     H_    0.810612 0.679184 0.907273 0.180567
H17   H     H_    0.805720 0.516498 0.819002 0.131564
H18   H     H_    0.803591 0.472805 0.180916 0.120803
H19   H     H_    0.802516 0.306083 0.102342 0.181112
H20   H     H_    0.949356 0.394022 0.126625 0.164798
N1    N     N_R   0.500000 0.857200 0.500000 -0.079966
N2    N     N_R   0.500000 0.142800 0.500000 -0.079556
N3    N     N_3   0.633366 0.148838 0.720251 -0.397919
N4    N     N_3   0.370809 0.851395 0.276102 -0.390284
N5    N     N_3   0.384710 0.143219 0.264978 -0.363773
N6    N     N_3   0.633667 0.856522 0.720188 -0.366699
O1    O     O_R   0.316770 0.614620 0.499990 -0.584514
O2    O     O_3   0.874912 0.677873 0.690791 -0.583506
O3    O     O_3   0.866534 0.317312 0.320832 -0.558705
O4    O     O_3   0.134425 0.688999 0.677121 -0.573954
O5    O     O_R   0.683230 0.385380 0.500010 -0.575387
O6    O     O_R   0.683230 0.614620 0.500010 -0.582174
O7    O     O_R   0.316770 0.385380 0.499990 -0.584253
O8    O     O_R   0.500010 0.614640 0.285340 -0.611582
O9    O     O_R   0.499990 0.385360 0.714660 -0.617406
O10   O     O_R   0.499990 0.614640 0.714660 -0.587935
O11   O     O_R   0.500010 0.385360 0.285340 -0.588724
O12   O     O_3   0.117947 0.283431 0.369211 -0.560213
Zn1   Zn    Zn3+2 0.500000 0.653120 0.500000 0.998489
Zn2   Zn    Zn3+2 0.500000 0.346880 0.500000 0.999725

loop_
_geom_bond_atom_site_label_1
_geom_bond_atom_site_label_2
_ccdc_geom_bond_type
H6    N3    S    
C11   H18   S    
C2    C4    A    
C5    N2    A    
C3    C19   A    
C6    C7    A    
C11   O3    S    
O6    Zn1   S    
C5    C8    A    
H10   N5    S    
O10   Zn1   S    
C1    C4    S    
C4    C18   A    
C15   O10   A    
H5    N3    S    
C5    N3    S    
C3    C20   A    
C6    N4    S    
O9    Zn2   S    
C11   H19   S    
H13   N6    S    
C9    H1    S    
C20   O3    S    
C10   H17   S    
C7    N5    S    
C14   O8    A    
O7    Zn2   S    
C18   O12   S    
C13   H2    S    
C18   C20   A    
O8    Zn1   S    
C10   O2    S    
C9    H14   S    
C13   H4    S    
C10   H15   S    
C14   C16   S    
O1    Zn1   S    
C11   H20   S    
C12   O5    A    
C8    N1    A    
C13   H3    S    
C9    O12   S    
C7    N2    A    
N2    Zn2   S    
C15   C17   S    
C14   O11   A    
C1    O7    A    
C19   O2    S    
C1    O1    A    
O11   Zn2   S    
C10   H16   S    
O5    Zn2   S    
C2    O4    S    
C9    H12   S    
C12   O6    A    
C2    C19   A    
C3    C12   S    
H7    N4    S    
H8    N4    S    
C8    N6    S    
C13   O4    S    
N1    Zn1   S    
H9    N5    S    
C16   C17   T    
C6    N1    A    
H11   N6    S    
C15   O9    A    
