data_mof_unit_59694.cif
_audit_creation_date              2013-03-05T16:42:13-0500
_audit_creation_method            fapswitch 2.2
_symmetry_space_group_name_H-M    P1
_symmetry_Int_Tables_number       1
_space_group_crystal_system       triclinic
_cell_length_a                    14.943372
_cell_length_b                    10.640558
_cell_length_c                    9.927791
_cell_angle_alpha                 89.63001
_cell_angle_beta                  88.377142
_cell_angle_gamma                 90.347963
_cell_volume                      1577.87953735

loop_
_atom_site_label
_atom_site_type_symbol
_atom_site_description
_atom_site_fract_x
_atom_site_fract_y
_atom_site_fract_z
_atom_type_partial_charge
O1    O     O_R   0.500010 0.316790 0.614690 -0.597533
O2    O     O_R   0.500000 0.316760 0.385350 -0.622473
C1    C     C_R   0.495889 0.260033 0.500566 0.925227
O3    O     O_R   0.367850 0.499990 0.614680 -0.629021
O4    O     O_R   0.367840 0.499950 0.385340 -0.626598
C2    C     C_R   0.327118 0.500946 0.501641 0.875168
Zn1   Zn    Zn3+2 0.500010 0.500020 0.653130 0.975298
Zn2   Zn    Zn3+2 0.499990 0.499980 0.346870 0.940377
O5    O     O_R   0.500000 0.683240 0.614650 -0.621599
O6    O     O_R   0.499990 0.683210 0.385310 -0.643930
O7    O     O_R   0.632160 0.500050 0.614660 -0.584133
O8    O     O_R   0.632150 0.500010 0.385320 -0.636383
C3    C     C_R   0.495728 0.739840 0.499939 0.853369
C4    C     C_R   0.673076 0.497848 0.498578 0.946923
C5    C     C_R   0.816962 0.570669 0.408398 -0.330963
C6    C     C_R   0.768999 0.491797 0.496844 -0.179924
C7    C     C_R   0.812248 0.413313 0.588828 0.279202
C8    C     C_R   0.905562 0.417043 0.593667 -0.009713
C9    C     C_R   0.953916 0.497011 0.502994 0.012400
C10   C     C_R   0.909315 0.573022 0.409495 0.140627
C11   C     C_R   0.951770 0.341440 0.684963 -0.152390
C12   C     C_R   0.044514 0.346479 0.688039 -0.235011
C13   C     C_R   0.092300 0.425095 0.598380 0.128759
C14   C     C_R   0.047127 0.500176 0.504668 0.082572
C15   C     C_R   0.095374 0.577528 0.411640 0.119702
C16   C     C_R   0.050482 0.652588 0.319541 -0.218272
C17   C     C_R   0.957579 0.650828 0.318936 -0.189493
C18   C     C_R   0.184878 0.428373 0.599026 -0.267556
C19   C     C_R   0.231745 0.503015 0.505006 -0.056506
C20   C     C_R   0.187957 0.577438 0.411769 -0.265672
H1    H     H_    0.782369 0.632771 0.341068 0.162130
H2    H     H_    0.916946 0.277998 0.754319 0.197997
H3    H     H_    0.078926 0.287910 0.759508 0.149177
H4    H     H_    0.220657 0.370139 0.669353 0.143299
H5    H     H_    0.226106 0.635544 0.340289 0.144755
H6    H     H_    0.087177 0.712301 0.248143 0.147821
H7    H     H_    0.923485 0.709425 0.247151 0.145850
C21   C     C_R   0.469855 0.062850 0.623367 0.101785
C22   C     C_R   0.477675 0.128705 0.501764 -0.092295
C23   C     C_R   0.464066 0.065504 0.380223 -0.216945
H8    H     H_    0.461074 0.115061 0.284801 0.172770
C24   C     C_R   0.463416 0.935541 0.379980 -0.234078
H9    H     H_    0.458978 0.887344 0.284784 0.161376
C25   C     C_R   0.477485 0.870785 0.500887 -0.086913
C26   C     C_R   0.470282 0.934668 0.622776 0.137500
C27   C     C_3   0.524090 0.926610 0.747188 -0.488911
C28   C     C_3   0.523096 0.069179 0.748531 -0.427954
H10   H     H_    0.485568 0.883376 0.833204 0.203227
H11   H     H_    0.591938 0.886977 0.727961 0.212841
H12   H     H_    0.483620 0.108255 0.834970 0.193914
H13   H     H_    0.590405 0.111762 0.731650 0.271755
C29   C     C_R   0.435340 0.436279 0.074413 0.182986
N1    N     N_R   0.499390 0.499140 0.142800 -0.122922
C30   C     C_R   0.569365 0.553230 0.064305 0.128383
C31   C     C_R   0.567147 0.553798 0.921624 -0.099382
H14   H     H_    0.619339 0.599477 0.860983 0.158997
N2    N     N_R   0.499390 0.499180 0.857150 -0.122839
C32   C     C_R   0.435659 0.435705 0.932381 0.200345
C33   C     C_3   0.337316 0.457909 0.930404 -0.508853
C34   C     C_3   0.337087 0.459583 0.083284 -0.488538
H15   H     H_    0.320372 0.550226 0.884913 0.220844
H16   H     H_    0.300588 0.376066 0.889640 0.195038
H17   H     H_    0.320598 0.553229 0.126064 0.211943
H18   H     H_    0.299672 0.379305 0.130431 0.207481
C35   C     C_3   0.653224 0.612933 0.118813 -0.364599
C36   C     C_3   0.637086 0.743058 0.181646 -0.304990
C37   C     C_3   0.702526 0.842717 0.126007 -0.913505
H19   H     H_    0.772544 0.814847 0.145403 0.258666
H20   H     H_    0.694246 0.855141 0.015849 0.270840
H21   H     H_    0.689013 0.933876 0.176267 0.270763
H22   H     H_    0.568257 0.775681 0.161717 0.228521
H23   H     H_    0.646001 0.737288 0.291887 0.237131
H24   H     H_    0.688820 0.546974 0.182867 0.217306
H25   H     H_    0.704324 0.624242 0.035743 0.185592
N3    N     N_R   0.761394 0.326621 0.672083 0.198471
O9    O     O_R   0.715975 0.237150 0.616614 -0.439486
O10   O     O_R   0.754654 0.343090 0.801717 -0.419751

loop_
_geom_bond_atom_site_label_1
_geom_bond_atom_site_label_2
_geom_bond_distance
_ccdc_geom_bond_type
C31   H14   1.082586 S    
C8    C11   1.406496 A    
C9    C10   1.411346 A    
C30   C35   1.516550 S    
N1    C30   1.404522 A    
C29   N1    1.363566 A    
Zn1   O7    2.000710 S    
C27   H11   1.112432 S    
C16   C17   1.388479 A    
C20   H5    1.085348 S    
C34   H17   1.111991 S    
C18   C19   1.392555 A    
O4    C2    1.289951 A    
O7    C4    1.289616 A    
C5    C6    1.391602 A    
C35   H24   1.094466 S    
C8    C9    1.415014 A    
O5    C3    1.288196 A    
C21   C26   1.364025 A    
C29   C34   1.490755 S    
C27   C28   1.517321 S    
C36   H23   1.107621 S    
C6    C7    1.406832 A    
C13   C14   1.411389 A    
C23   C24   1.382869 A    
C36   C37   1.528123 S    
C18   H4    1.084831 S    
C33   C34   1.517879 S    
C11   C12   1.387841 A    
C24   C25   1.401842 A    
O3    Zn1   2.022055 S    
C28   H12   1.111847 S    
C5    C10   1.380482 A    
C11   H2    1.081685 S    
C27   H10   1.111804 S    
C33   H15   1.112099 S    
C37   H19   1.110948 S    
C14   C15   1.412613 A    
O3    C2    1.291744 A    
C22   C23   1.404382 A    
C28   H13   1.108613 S    
C15   C16   1.398486 A    
C26   C27   1.495056 S    
C35   H25   1.113390 S    
C37   H20   1.111209 S    
N3    O9    1.300139 A    
C19   C20   1.393986 A    
C36   H22   1.110179 S    
Zn2   O8    2.022054 S    
C7    C8    1.396932 A    
C13   C18   1.383848 A    
N3    O10   1.301136 A    
C21   C28   1.495993 S    
C29   C32   1.409987 A    
C16   H6    1.083852 S    
C23   H8    1.083387 S    
O8    C4    1.295227 A    
C31   N2    1.344252 A    
C4    C6    1.434876 S    
C24   H9    1.081666 S    
C25   C26   1.393586 A    
C15   C20   1.383542 A    
Zn1   O5    1.984218 S    
C12   H3    1.084018 S    
C30   C31   1.417806 A    
C33   H16   1.111174 S    
O1    Zn1   1.989084 S    
O2    Zn2   1.984218 S    
O6    C3    1.291296 A    
Zn2   N1    2.026315 S    
O4    Zn2   2.000710 S    
C5    H1    1.081079 S    
C10   C17   1.400096 A    
C34   H18   1.111556 S    
C37   H21   1.110655 S    
O2    C1    1.289630 A    
C32   C33   1.490521 S    
N2    C32   1.366157 A    
C21   C22   1.393639 A    
C17   H7    1.083942 S    
C9    C14   1.393662 A    
C1    C22   1.421948 S    
C2    C19   1.424954 S    
Zn2   O6    1.989086 S    
C35   C36   1.539833 S    
C7    N3    1.434449 S    
C12   C13   1.396105 A    
O1    C1    1.290171 A    
Zn1   N2    2.025189 S    
C3    C25   1.421409 S    
