data_mof_unit_62159.cif
_audit_creation_date              2013-03-05T16:03:21-0500
_audit_creation_method            fapswitch 2.2
_symmetry_space_group_name_H-M    P1
_symmetry_Int_Tables_number       1
_space_group_crystal_system       triclinic
_cell_length_a                    27.853985
_cell_length_b                    11.728371
_cell_length_c                    10.455559
_cell_angle_alpha                 90.000693
_cell_angle_beta                  90.00002
_cell_angle_gamma                 89.999965
_cell_volume                      3415.64156481

loop_
_atom_site_label
_atom_site_type_symbol
_atom_site_description
_atom_site_fract_x
_atom_site_fract_y
_atom_site_fract_z
_atom_type_partial_charge
O1    O     O_R   0.500000 0.337200 0.605810 -0.570537
O2    O     O_R   0.500000 0.662800 0.394190 -0.570537
O3    O     O_R   0.500000 0.662800 0.605810 -0.570759
O4    O     O_R   0.500000 0.337200 0.394190 -0.570759
C1    C     C_R   0.500000 0.283289 0.499999 0.813692
C2    C     C_R   0.500000 0.716711 0.500000 0.813693
O5    O     O_R   0.430260 0.500000 0.605800 -0.524012
O6    O     O_R   0.569740 0.500000 0.394200 -0.524111
O7    O     O_R   0.569740 0.500000 0.605800 -0.524111
O8    O     O_R   0.430260 0.500000 0.394200 -0.524012
C3    C     C_R   0.407012 0.500000 0.500000 0.893294
C4    C     C_R   0.592986 0.500000 0.500000 0.893520
Cu1   Cu    Cu3+1 0.500000 0.500000 0.625300 1.088976
Cu2   Cu    Cu3+1 0.500000 0.500000 0.374700 1.088976
C5    C     C_R   0.177278 0.400126 0.521961 0.656347
C6    C     C_R   0.822714 0.599738 0.522713 0.656383
C7    C     C_R   0.177278 0.599871 0.478039 0.656349
C8    C     C_R   0.822714 0.400260 0.477287 0.656382
O9    O     O_2   0.202542 0.303749 0.542786 -0.414871
O10   O     O_2   0.797450 0.695988 0.544266 -0.414891
O11   O     O_2   0.202542 0.696248 0.457214 -0.414871
O12   O     O_2   0.797450 0.304010 0.455734 -0.414891
N1    N     N_R   0.201146 0.499999 0.500000 -0.474244
N2    N     N_R   0.798845 0.499999 0.500000 -0.474260
C9    C     C_R   0.277966 0.516401 0.614881 -0.119415
C10   C     C_R   0.722026 0.482876 0.614752 -0.119400
C11   C     C_R   0.277966 0.483597 0.385119 -0.119415
C12   C     C_R   0.722026 0.517122 0.385249 -0.119400
C13   C     C_R   0.328187 0.516449 0.614898 0.512051
C14   C     C_R   0.671804 0.482828 0.614765 0.511992
C15   C     C_R   0.328187 0.483550 0.385102 0.512051
C16   C     C_R   0.671804 0.517171 0.385235 0.511991
C17   C     C_R   0.252735 0.499999 0.500000 0.064912
C18   C     C_R   0.747257 0.499999 0.500000 0.064945
C19   C     C_R   0.101397 0.499999 0.500000 -0.217354
C20   C     C_R   0.898594 0.499999 0.500001 -0.217386
C21   C     C_R   0.126792 0.397792 0.522415 -0.212179
C22   C     C_R   0.873199 0.602070 0.523184 -0.212064
C23   C     C_R   0.126792 0.602205 0.477586 -0.212179
C24   C     C_R   0.873200 0.397928 0.476817 -0.212065
C25   C     C_R   0.101105 0.297143 0.547717 0.603508
C26   C     C_R   0.898886 0.702566 0.549240 0.603553
C27   C     C_R   0.101105 0.702855 0.452284 0.603508
C28   C     C_R   0.898887 0.297432 0.450760 0.603554
C29   C     C_R   0.353842 0.500000 0.500000 -0.309447
C30   C     C_R   0.646152 0.499999 0.500000 -0.309360
C31   C     C_R   0.974782 0.395629 0.489674 -0.080653
C32   C     C_R   0.025210 0.604429 0.490458 -0.080775
C33   C     C_R   0.974782 0.604370 0.510327 -0.080654
C34   C     C_R   0.025210 0.395569 0.509544 -0.080775
C35   C     C_R   0.949467 0.499999 0.500001 -0.062626
C36   C     C_R   0.050524 0.499999 0.500001 -0.062637
C37   C     C_R   0.948859 0.296543 0.455394 0.616585
C38   C     C_R   0.051133 0.703716 0.456923 0.616631
C39   C     C_R   0.948859 0.703455 0.544607 0.616585
C40   C     C_R   0.051132 0.296282 0.543079 0.616632
C41   C     C_1   0.500000 0.161931 0.499999 -0.121487
C42   C     C_1   0.500000 0.838069 0.500001 -0.121487
C43   C     C_1   0.500000 0.059722 0.499999 0.042217
C44   C     C_1   0.500000 0.940278 0.500001 0.042217
N3    N     N_1   0.500000 0.500000 0.186410 -0.114456
N4    N     N_1   0.500000 0.500000 0.813590 -0.114456
C45   C     C_1   0.500000 0.500000 0.072025 0.182325
C46   C     C_1   0.500000 0.500000 0.927975 0.182325
F1    F     F_    0.351732 0.466356 0.272815 -0.612269
F2    F     F_    0.648253 0.535117 0.273101 -0.612352
F3    F     F_    0.351732 0.533643 0.727184 -0.612269
F4    F     F_    0.648253 0.464881 0.726899 -0.612352
C47   C     C_1   0.252390 0.466421 0.266521 0.450386
N5    N     N_1   0.231848 0.452684 0.171548 -0.189909
C48   C     C_1   0.747599 0.535043 0.266784 0.450397
N6    N     N_1   0.768138 0.549378 0.171914 -0.189834
C49   C     C_1   0.252390 0.533575 0.733480 0.450386
N7    N     N_1   0.231848 0.547310 0.828452 -0.189909
C50   C     C_1   0.747599 0.464954 0.733217 0.450397
N8    N     N_1   0.768138 0.450618 0.828086 -0.189834
F5    F     F_    0.123980 0.198909 0.579703 -0.505808
F6    F     F_    0.876011 0.800608 0.581963 -0.506154
F7    F     F_    0.123980 0.801089 0.420298 -0.505808
F8    F     F_    0.876011 0.199391 0.418037 -0.506155
F9    F     F_    0.971409 0.201388 0.412392 -0.502099
F10   F     F_    0.028583 0.799125 0.414635 -0.501686
F11   F     F_    0.971409 0.798611 0.587609 -0.502098
F12   F     F_    0.028582 0.200873 0.585367 -0.501688

loop_
_geom_bond_atom_site_label_1
_geom_bond_atom_site_label_2
_geom_bond_distance
_ccdc_geom_bond_type
O5    Cu1   1.953207 S    
C49   N7    1.157304 T    
C2    C42   1.423328 S    
C19   C23   1.411446 A    
O3    C2    1.274245 A    
C11   C17   1.404873 A    
C5    O9    1.349179 S    
C7    N1    1.366301 A    
C8    N2    1.366296 A    
C19   C21   1.411447 A    
C22   C26   1.405482 A    
C25   F5    1.358391 S    
C41   C43   1.198744 T    
C27   F7    1.358391 S    
C37   F9    1.357265 S    
C7    C23   1.406511 A    
N3    C45   1.195959 T    
O7    Cu1   1.953204 S    
C5    C21   1.406508 A    
C20   C24   1.411449 A    
N4    C46   1.195959 T    
C13   F3    1.359810 S    
C28   C37   1.392815 A    
C10   C18   1.404911 A    
Cu1   N4    1.968678 S    
N1    C17   1.436940 S    
C34   C36   1.416772 A    
C34   C40   1.414325 A    
C24   C28   1.405480 A    
O3    Cu1   1.920225 S    
C6    O10   1.349178 S    
C31   C37   1.414327 A    
C5    N1    1.366302 A    
C12   C18   1.404909 A    
C43   C44   1.400892 S    
C6    N2    1.366297 A    
Cu1   Cu2   2.620163 S    
C21   C25   1.405481 A    
O2    C2    1.274240 A    
C40   F12   1.357267 S    
C31   C34   1.419890 A    
C9    C13   1.398866 A    
C11   C15   1.398866 A    
C28   F8    1.358388 S    
C4    C30   1.480885 S    
O8    Cu2   1.953207 S    
C31   C35   1.416777 A    
C33   C35   1.416777 A    
C33   C39   1.414326 A    
Cu2   N3    1.968677 S    
C7    O11   1.349176 S    
C13   C29   1.411041 A    
C32   C38   1.414325 A    
C50   N8    1.157349 T    
C25   C40   1.392814 A    
C26   C39   1.392815 A    
C27   C38   1.392812 A    
O5    C3    1.281796 A    
C12   C16   1.398863 A    
O6    C4    1.281772 A    
C10   C50   1.444218 S    
C20   C35   1.417021 A    
C32   C33   1.419892 A    
C26   F6    1.358390 S    
O1    C1    1.274240 A    
C3    C29   1.480988 S    
C12   C48   1.444218 S    
O1    Cu1   1.920220 S    
C39   F11   1.357264 S    
C38   F10   1.357270 S    
C16   F2    1.359856 S    
C15   F1    1.359811 S    
O6    Cu2   1.953204 S    
C8    O12   1.349180 S    
C16   C30   1.411000 A    
C14   C30   1.410999 A    
O4    C1    1.274245 A    
C11   C47   1.444198 S    
C23   C27   1.405481 A    
C10   C14   1.398863 A    
C1    C41   1.423328 S    
C20   C22   1.411448 A    
C48   N6    1.157348 T    
C9    C49   1.444199 S    
O4    Cu2   1.920225 S    
C47   N5    1.157304 T    
O2    Cu2   1.920220 S    
O7    C4    1.281773 A    
N2    C18   1.436934 S    
O8    C3    1.281794 A    
C45   C46   1.506122 S    
C32   C36   1.416772 A    
C8    C24   1.406502 A    
C15   C29   1.411040 A    
C9    C17   1.404873 A    
C19   C36   1.417024 A    
C42   C44   1.198744 T    
C14   F4    1.359855 S    
C6    C22   1.406502 A    
