data_mof_unit_39491.cif
_audit_creation_date              2012-12-10T18:21:25-0500
_audit_creation_method            fapswitch 2.2
_symmetry_space_group_name_H-M    P1
_symmetry_Int_Tables_number       1
_space_group_crystal_system       triclinic
_cell_length_a                    15.006646
_cell_length_b                    13.995816
_cell_length_c                    10.690951
_cell_angle_alpha                 89.5981
_cell_angle_beta                  89.884497
_cell_angle_gamma                 89.967058
_cell_volume                      2245.36302147

loop_
_atom_site_label
_atom_site_type_symbol
_atom_type_description
_atom_site_fract_x
_atom_site_fract_y
_atom_site_fract_z
_atom_type_partial_charge
C1    C     C_R   0.326468 0.500019 0.499842 0.910238
C2    C     C_R   0.046398 0.325564 0.502581 -0.214949
C3    C     C_R   0.092752 0.412312 0.499492 0.117775
C4    C     C_R   0.499377 0.500792 0.257804 0.875232
C5    C     C_R   0.046367 0.499973 0.495225 0.062416
C6    C     C_R   0.092667 0.587657 0.491920 0.116331
C7    C     C_R   0.046212 0.674373 0.487600 -0.210015
C8    C     C_R   0.953627 0.674365 0.487349 -0.207966
C9    C     C_R   0.184891 0.412995 0.501048 -0.255095
C10   C     C_R   0.230616 0.500031 0.498329 -0.071394
C11   C     C_R   0.184820 0.587033 0.493446 -0.240178
C12   C     C_3   0.579993 0.441195 0.931027 -0.383123
C13   C     C_R   0.562371 0.797380 0.430537 -0.037249
C14   C     C_R   0.563130 0.203238 0.431888 -0.046969
C15   C     C_R   0.438357 0.798259 0.568606 -0.070208
C16   C     C_R   0.437090 0.201033 0.566189 -0.083616
C17   C     C_R   0.437335 0.898728 0.569001 0.037285
C18   C     C_R   0.436726 0.100578 0.567824 0.038408
C19   C     C_R   0.673555 0.499986 0.499362 0.896912
C20   C     C_R   0.501560 0.949350 0.498160 0.068751
C21   C     C_R   0.501510 0.050612 0.498045 0.071480
C22   C     C_R   0.565352 0.898582 0.427754 -0.058078
C23   C     C_R   0.815116 0.586993 0.492618 -0.254466
C24   C     C_R   0.565710 0.102042 0.428375 -0.059502
C25   C     C_R   0.373579 0.949307 0.638382 -0.205743
C26   C     C_R   0.373133 0.049385 0.637540 -0.210648
C27   C     C_R   0.630054 0.051322 0.357807 -0.041355
C28   C     C_R   0.629711 0.949941 0.357201 -0.038109
C29   C     C_R   0.501666 0.499912 0.742494 0.889381
C30   C     C_3   0.508540 0.608836 0.070619 -0.186388
C31   C     C_3   0.409750 0.456246 0.073388 -0.203677
C32   C     C_3   0.512573 0.606978 0.926409 0.007541
C33   C     C_3   0.409091 0.462186 0.928659 -0.002477
C34   C     C_R   0.769407 0.499971 0.497343 -0.080323
C35   C     C_3   0.577726 0.443137 0.074447 -0.459135
C36   C     C_3   0.497197 0.503529 0.121770 0.003338
C37   C     C_3   0.501533 0.500888 0.878868 0.060847
C38   C     C_1   0.696724 0.102827 0.285625 0.145084
C39   C     C_1   0.695792 0.899075 0.283996 0.143617
C40   C     C_1   0.437846 0.675960 0.111611 0.184620
C41   C     C_1   0.327576 0.497890 0.126985 0.129475
C42   C     C_3   0.675149 0.666159 0.936053 -0.783311
C43   C     C_3   0.423166 0.283025 0.886822 -0.746707
C44   C     C_R   0.815222 0.412932 0.499773 -0.255935
C45   C     C_R   0.907372 0.412278 0.498751 0.117005
C46   C     C_R   0.953666 0.499959 0.494914 0.061097
C47   C     C_R   0.907270 0.587635 0.491409 0.115537
C48   C     C_R   0.953821 0.325544 0.502143 -0.206817
H1    H     H_    0.570607 0.637496 0.111438 0.167370
H2    H     H_    0.389899 0.758147 0.622702 0.126715
H3    H     H_    0.387225 0.240573 0.617701 0.145626
H4    H     H_    0.323891 0.911418 0.693118 0.141706
H5    H     H_    0.323137 0.086797 0.691673 0.138880
H6    H     H_    0.453021 0.646325 0.890018 0.103144
H7    H     H_    0.359750 0.518036 0.900485 0.092396
H8    H     H_    0.641363 0.472770 0.110601 0.170032
H9    H     H_    0.573208 0.368292 0.109931 0.196010
H10   H     H_    0.644411 0.469405 0.895613 0.184402
H11   H     H_    0.578519 0.366493 0.898424 0.190961
H12   H     H_    0.409065 0.380952 0.105878 0.169658
H13   H     H_    0.779186 0.654261 0.490133 0.164223
H14   H     H_    0.779376 0.345669 0.503009 0.164316
H15   H     H_    0.918597 0.257971 0.504910 0.152998
H16   H     H_    0.575212 0.714637 0.817009 0.245721
H17   H     H_    0.728378 0.679766 0.865919 0.245348
H18   H     H_    0.693400 0.601075 0.989203 0.240630
H19   H     H_    0.672466 0.728201 0.000179 0.242735
H20   H     H_    0.308334 0.366611 0.877415 0.224301
H21   H     H_    0.375243 0.223102 0.876615 0.213156
H22   H     H_    0.455632 0.275257 0.979072 0.229086
H23   H     H_    0.081694 0.258005 0.505691 0.148172
H24   H     H_    0.473789 0.274247 0.812508 0.257384
H25   H     H_    0.220801 0.345746 0.504691 0.160163
H26   H     H_    0.220688 0.654290 0.490921 0.163251
H27   H     H_    0.081433 0.741943 0.484861 0.150049
H28   H     H_    0.918324 0.741926 0.484414 0.153847
H29   H     H_    0.609560 0.755412 0.377569 0.139055
H30   H     H_    0.611005 0.245674 0.380110 0.143360
N1    N     N_R   0.500070 0.750030 0.500050 -0.105957
N2    N     N_R   0.500070 0.249970 0.500050 -0.106602
N3    N     N_1   0.749892 0.143945 0.228102 -0.209923
N4    N     N_1   0.748457 0.858448 0.225642 -0.217490
N5    N     N_1   0.383046 0.728678 0.143647 -0.187356
N6    N     N_1   0.263171 0.530072 0.169023 -0.182059
N7    N     N_2   0.590608 0.656000 0.871972 -0.281128
N8    N     N_2   0.376686 0.373632 0.871718 -0.288492
O1    O     O_R   0.367860 0.580280 0.500020 -0.626601
O2    O     O_R   0.367860 0.419720 0.500020 -0.626139
O3    O     O_R   0.500000 0.580270 0.314790 -0.622019
O4    O     O_R   0.500000 0.419730 0.314790 -0.630536
O5    O     O_R   0.632160 0.580270 0.499960 -0.630384
O6    O     O_R   0.632160 0.419730 0.499960 -0.634611
O7    O     O_R   0.500030 0.580270 0.685200 -0.638908
O8    O     O_R   0.500030 0.419730 0.685200 -0.607401
Zn1   Zn    Zn3+2 0.500020 0.607200 0.499990 0.948185
Zn2   Zn    Zn3+2 0.500020 0.392800 0.499990 0.943789

loop_
_geom_bond_atom_site_label_1
_geom_bond_atom_site_label_2
_ccdc_geom_bond_type
C1    O1    A    
C30   C32   S    
O2    Zn2   S    
C33   H7    S    
C43   H24   S    
C18   C21   A    
H20   N8    S    
C35   C36   S    
C18   C26   A    
C24   C27   A    
O6    Zn2   S    
C13   N1    A    
C7    C8    A    
C45   C46   A    
C5    C6    A    
C27   C38   S    
C8    H28   S    
C17   C20   A    
C15   H2    S    
C14   C24   A    
C12   C37   S    
O7    Zn1   S    
C19   O6    A    
C12   H11   S    
C15   N1    A    
O1    Zn1   S    
C42   H17   S    
C16   H3    S    
C14   N2    A    
N2    Zn2   S    
C9    C10   A    
C12   H10   S    
C1    O2    A    
C43   H21   S    
C22   C28   A    
C40   N5    T    
C9    H25   S    
C32   H6    S    
C4    O4    A    
C13   H29   S    
C23   C47   A    
C34   C44   A    
C4    C36   S    
C6    C11   A    
C48   H15   S    
C7    H27   S    
C28   C39   S    
C44   H14   S    
C25   C26   A    
C41   N6    T    
C19   C34   S    
C33   C37   S    
C16   N2    A    
C31   H12   S    
O3    Zn1   S    
C33   N8    S    
N1    Zn1   S    
C3    C9    A    
C23   C34   A    
C31   C33   S    
C30   C40   S    
C42   N7    S    
C32   C37   S    
C12   C35   S    
O8    Zn2   S    
C30   H1    S    
C20   C22   A    
C43   H22   S    
C38   N3    T    
C42   H19   S    
C2    H23   S    
C26   H5    S    
H16   N7    S    
C44   C45   A    
C4    O3    A    
C45   C48   A    
C15   C17   A    
C46   C47   A    
C31   C41   S    
C35   H8    S    
C43   N8    S    
C1    C10   S    
C39   N4    T    
C3    C5    A    
C11   H26   S    
O4    Zn2   S    
C6    C7    A    
C5    C46   A    
C30   C36   S    
C35   H9    S    
C2    C48   A    
C2    C3    A    
C8    C47   A    
C17   C25   A    
C29   O7    A    
C29   O8    A    
C32   N7    S    
C13   C22   A    
C14   H30   S    
C25   H4    S    
C19   O5    A    
C10   C11   A    
O5    Zn1   S    
C23   H13   S    
C20   C21   A    
C16   C18   A    
C21   C24   A    
C29   C37   S    
C27   C28   A    
C42   H18   S    
C31   C36   S    
