data_mof_unit_17264.cif
_audit_creation_date              2012-12-10T17:03:02-0500
_audit_creation_method            fapswitch 2.2
_symmetry_space_group_name_H-M    P1
_symmetry_Int_Tables_number       1
_space_group_crystal_system       triclinic
_cell_length_a                    19.046907
_cell_length_b                    18.339593
_cell_length_c                    18.953702
_cell_angle_alpha                 108.318657
_cell_angle_beta                  110.687827
_cell_angle_gamma                 109.132195
_cell_volume                      5112.19084925

loop_
_atom_site_label
_atom_site_type_symbol
_atom_type_description
_atom_site_fract_x
_atom_site_fract_y
_atom_site_fract_z
_atom_type_partial_charge
C1    C     C_R   0.622160 0.621133 0.503463 0.858064
C2    C     C_R   0.250640 0.191329 0.336539 0.258801
C3    C     C_R   0.870199 0.783107 0.723128 0.370017
C4    C     C_R   0.235837 0.104973 0.292345 0.351601
C5    C     C_R   0.931988 0.791178 0.698065 -0.158490
C6    C     C_R   0.216709 0.047609 0.324869 -0.202059
C7    C     C_R   0.917526 0.792886 0.620610 -0.079343
C8    C     C_R   0.205667 0.071665 0.396403 -0.152587
C9    C     C_R   0.837663 0.783308 0.565474 0.005195
C10   C     C_R   0.215154 0.156858 0.437321 -0.042991
C11   C     C_R   0.769600 0.750333 0.579982 -0.084292
C12   C     C_R   0.373650 0.379170 0.492673 0.961219
C13   C     C_R   0.255072 0.220671 0.417756 -0.038055
C14   C     C_R   0.687633 0.689822 0.505082 -0.042970
C15   C     C_R   0.296381 0.310876 0.480301 0.004776
C16   C     C_R   0.385567 0.506795 0.380914 0.950280
C17   C     C_R   0.618111 0.497528 0.620092 0.851853
C18   C     C_R   0.673168 0.681460 0.424810 -0.045096
C19   C     C_R   0.272335 0.335243 0.541727 -0.175896
C20   C     C_R   0.734560 0.740821 0.418630 -0.070693
C21   C     C_R   0.218239 0.272189 0.551040 -0.015901
C22   C     C_R   0.818387 0.796605 0.491692 -0.197825
C23   C     C_R   0.255384 0.439838 0.244573 -0.110765
C24   C     C_R   0.187591 0.182288 0.497078 -0.060510
C25   C     C_R   0.000127 0.621289 0.118882 0.887975
C26   C     C_R   0.000166 0.378996 0.880921 0.856332
C27   C     C_R   0.118643 0.512173 0.130455 0.864697
C28   C     C_R   0.880475 0.492426 0.872464 0.861226
C29   C     C_R   0.000864 0.122385 0.619081 0.976002
C30   C     C_R   0.996396 0.874948 0.379916 0.849518
C31   C     C_R   0.880887 0.873204 0.495500 0.775554
C32   C     C_R   0.119991 0.116524 0.496532 0.887780
C33   C     C_R   0.977680 0.771375 0.107453 -0.143134
C34   C     C_R   0.769549 0.543480 0.705238 -0.108251
C35   C     C_R   0.056752 0.249760 0.909509 -0.058722
C36   C     C_R   0.916762 0.795926 0.074582 -0.283832
C37   C     C_R   0.085343 0.190313 0.918543 -0.227650
C38   C     C_R   0.863117 0.801602 0.108091 0.466581
C39   C     C_R   0.062222 0.117417 0.845843 0.438932
C40   C     C_R   0.397251 0.678049 0.406415 0.245508
C41   C     C_R   0.586095 0.402009 0.718129 0.259087
C42   C     C_R   0.879619 0.794727 0.184292 -0.119291
C43   C     C_R   0.007770 0.104216 0.765237 -0.101777
C44   C     C_R   0.952175 0.785259 0.225994 -0.122163
C45   C     C_R   0.184617 0.440882 0.193985 -0.193609
C46   C     C_R   0.006847 0.178439 0.757719 -0.111164
C47   C     C_R   0.984926 0.752642 0.176172 0.105691
C48   C     C_R   0.021387 0.248533 0.828743 0.048534
C49   C     C_R   0.007963 0.690205 0.189276 -0.071572
C50   C     C_R   0.998024 0.311060 0.814178 -0.159202
C51   C     C_R   0.024433 0.685740 0.266120 -0.170806
C52   C     C_R   0.969856 0.307748 0.732856 -0.141374
C53   C     C_R   0.036399 0.755664 0.335092 0.412016
C54   C     C_R   0.974861 0.249350 0.668756 0.379691
C55   C     C_R   0.992587 0.802731 0.313631 -0.227126
C56   C     C_R   0.834993 0.539967 0.764172 -0.080130
C57   C     C_R   0.993021 0.183918 0.681897 -0.228404
C58   C     C_R   0.382994 0.745642 0.445579 0.355474
C59   C     C_R   0.556345 0.319036 0.715156 0.381139
C60   C     C_R   0.313424 0.750397 0.394336 -0.144854
C61   C     C_R   0.610955 0.282934 0.727701 -0.222439
C62   C     C_R   0.256763 0.685061 0.307179 -0.114518
C63   C     C_R   0.697150 0.331437 0.750824 -0.091534
C64   C     C_R   0.254979 0.601503 0.279497 -0.013323
C65   C     C_R   0.726304 0.415416 0.754752 -0.032000
C66   C     C_R   0.324754 0.597996 0.336270 -0.071770
C67   C     C_R   0.185950 0.519915 0.204069 -0.003835
C68   C     C_R   0.664473 0.438320 0.718911 -0.089929
C69   C     C_R   0.324097 0.516395 0.317675 -0.032622
C70   C     C_R   0.684963 0.496846 0.686323 0.002163
C71   C     C_2   0.977426 0.785161 0.590108 0.583261
C72   C     C_2   0.204044 0.014555 0.436781 0.517451
C73   C     C_2   0.711226 0.737544 0.333961 0.514782
C74   C     C_2   0.203104 0.304910 0.623657 0.539734
C75   C     C_2   0.025749 0.608541 0.275592 0.537069
C76   C     C_2   0.929724 0.361062 0.711838 0.469128
C77   C     C_2   0.041676 0.782802 0.079237 0.544705
C78   C     C_R   0.813997 0.479218 0.793383 -0.122008
C79   C     C_2   0.061968 0.307575 0.985003 0.459388
C80   C     C_2   0.811489 0.772501 0.206827 0.559569
C81   C     C_2   0.934429 0.014985 0.697912 0.561840
C82   C     C_2   0.214980 0.715258 0.249973 0.493800
C83   C     C_2   0.750979 0.288115 0.757914 0.562575
C84   C     C_R   0.788927 0.767673 0.665321 0.271330
H1    H     H_    0.253669 0.377470 0.228241 0.253602
H2    H     H_    0.901492 0.585133 0.787539 0.214844
H3    H     H_    0.613257 0.628791 0.366804 0.219090
H4    H     H_    0.299586 0.404312 0.586319 0.163909
H5    H     H_    0.955891 0.762806 0.522435 0.075339
H6    H     H_    0.226066 0.041438 0.504830 0.115957
H7    H     H_    0.760693 0.769940 0.322342 0.067814
H8    H     H_    0.212905 0.371521 0.650632 0.078514
H9    H     H_    0.998743 0.586872 0.311743 0.104384
H10   H     H_    0.866582 0.328170 0.654617 0.094430
H11   H     H_    0.023381 0.772860 0.014457 0.102246
H12   H     H_    0.785290 0.586399 0.678344 0.129104
H13   H     H_    0.109472 0.376726 0.019219 0.016846
H14   H     H_    0.724385 0.825037 0.935205 0.405252
H15   H     H_    0.237753 0.147809 0.914388 0.363520
H16   H     H_    0.802756 0.724878 0.229807 -0.018255
H17   H     H_    0.893059 0.002625 0.634073 0.031813
H18   H     H_    0.199880 0.885787 0.571062 0.396061
H19   H     H_    0.000651 0.238849 0.481439 0.388957
H20   H     H_    0.433937 0.752200 0.301455 0.350761
H21   H     H_    0.443106 0.491200 0.734974 0.380626
H22   H     H_    0.581178 0.952793 0.607917 0.406739
H23   H     H_    0.992256 0.797322 0.739702 0.249080
H24   H     H_    0.365274 0.120799 0.650043 0.386221
H25   H     H_    0.210351 0.696848 0.188131 0.118845
H26   H     H_    0.811165 0.316712 0.759260 -0.006391
H27   H     H_    0.643535 0.764151 0.751384 0.378410
H28   H     H_    0.351964 0.283532 0.284867 0.379592
H29   H     H_    0.964344 0.894862 0.956250 0.384033
H30   H     H_    0.186622 0.048346 0.070805 0.422987
H31   H     H_    0.211081 0.983535 0.294541 0.261687
H32   H     H_    0.909881 0.808501 0.021091 0.219766
H33   H     H_    0.120928 0.197809 0.981812 0.212501
H34   H     H_    0.310296 0.810395 0.419522 0.252679
H35   H     H_    0.586985 0.217925 0.722204 0.254982
H36   H     H_    0.129056 0.378233 0.145812 0.214204
O1    O     O_R   0.591640 0.539900 0.448300 -0.640005
O2    O     O_R   0.408390 0.356670 0.448280 -0.650377
O3    O     O_R   0.408410 0.448290 0.356670 -0.602734
O4    O     O_R   0.591590 0.551710 0.643330 -0.511873
O5    O     O_R   0.408380 0.551730 0.460100 -0.623943
O6    O     O_R   0.591620 0.448270 0.539900 -0.635631
O7    O     O_R   0.948260 0.539910 0.091610 -0.606254
O8    O     O_R   0.051740 0.460090 0.908390 -0.557001
O9    O     O_R   0.051720 0.643340 0.091610 -0.616950
O10   O     O_R   0.948280 0.356660 0.908390 -0.597202
O11   O     O_R   0.039880 0.448280 0.091630 -0.547343
O12   O     O_R   0.408360 0.460100 0.551700 -0.595379
O13   O     O_R   0.960120 0.551720 0.908370 -0.597659
O14   O     O_R   0.143330 0.551710 0.091620 -0.675651
O15   O     O_R   0.856670 0.448290 0.908380 -0.627458
O16   O     O_R   0.948270 0.091630 0.539910 -0.546028
O17   O     O_R   0.051730 0.908370 0.460090 -0.556917
O18   O     O_2   0.049929 0.802495 0.639182 -0.482476
O19   O     O_2   0.184177 0.937728 0.395449 -0.494477
O20   O     O_2   0.636024 0.697927 0.275876 -0.471631
O21   O     O_2   0.183402 0.260357 0.656724 -0.524871
O22   O     O_2   0.060320 0.571663 0.247877 -0.576811
O23   O     O_R   0.051700 0.091600 0.643340 -0.599471
O24   O     O_2   0.968228 0.441456 0.754373 -0.525055
O25   O     O_2   0.116807 0.808848 0.129815 -0.472709
O26   O     O_2   0.011056 0.277680 0.006926 -0.489685
O27   O     O_2   0.692324 0.737950 0.021283 -0.212478
O28   O     O_2   0.784563 0.898922 0.110533 -0.214714
O29   O     O_3   0.777064 0.822265 0.965200 -0.482661
O30   O     O_2   0.058960 0.987875 0.882811 -0.177162
O31   O     O_2   0.097233 0.992674 0.773219 -0.265462
O32   O     O_3   0.210541 0.109083 0.934313 -0.500667
O33   O     O_2   0.766942 0.807761 0.202498 -0.463224
O34   O     O_R   0.948300 0.908400 0.356660 -0.632195
O35   O     O_2   0.914387 0.956011 0.715758 -0.515977
O36   O     O_2   0.048862 0.737220 0.473204 -0.344924
O37   O     O_2   0.159195 0.733052 0.438726 -0.257253
O38   O     O_3   0.175395 0.884164 0.514620 -0.477437
O39   O     O_2   0.864254 0.198101 0.505014 -0.270782
O40   O     O_2   0.978648 0.352778 0.591544 -0.264199
O41   O     O_3   0.019043 0.235685 0.535733 -0.551424
O42   O     O_2   0.568915 0.758511 0.479470 -0.186204
O43   O     O_2   0.483660 0.635572 0.330548 -0.345641
O44   O     O_3   0.489091 0.785170 0.357100 -0.444596
O45   O     O_R   0.856660 0.908400 0.448280 -0.611685
O46   O     O_2   0.557961 0.469738 0.845620 -0.214174
O47   O     O_2   0.618599 0.570296 0.798261 -0.226108
O48   O     O_3   0.456333 0.450841 0.700076 -0.529675
O49   O     O_2   0.418286 0.876442 0.589258 -0.243234
O50   O     O_2   0.502255 0.799832 0.605812 -0.244593
O51   O     O_3   0.536200 0.909434 0.546809 -0.445332
O52   O     O_2   0.446451 0.290154 0.773792 -0.200702
O53   O     O_2   0.388633 0.266203 0.625714 -0.301654
O54   O     O_3   0.422493 0.149667 0.655816 -0.539231
O55   O     O_2   0.195687 0.771190 0.276245 -0.487274
O56   O     O_R   0.143340 0.091600 0.551720 -0.601710
O57   O     O_2   0.728409 0.219628 0.761688 -0.529055
O58   O     O_2   0.796344 0.894857 0.791767 -0.165358
O59   O     O_2   0.674639 0.826582 0.647469 -0.201819
O60   O     O_3   0.674112 0.737045 0.729973 -0.473924
O61   O     O_2   0.137118 0.186332 0.201302 -0.177197
O62   O     O_2   0.233366 0.329854 0.330396 -0.368732
O63   O     O_3   0.295204 0.266589 0.238290 -0.490583
O64   O     O_2   0.817263 0.725997 0.819963 -0.242610
O65   O     O_2   0.964747 0.763649 0.852319 -0.363415
O66   O     O_3   0.931721 0.891111 0.900146 -0.395648
O67   O     O_R   0.960090 0.908380 0.551710 -0.628887
O68   O     O_2   0.335621 0.130947 0.222261 -0.270044
O69   O     O_2   0.238589 0.977913 0.174715 -0.238561
O70   O     O_3   0.171958 0.063527 0.116658 -0.445869
O71   O     O_R   0.039910 0.091620 0.448290 -0.583098
O72   O     O_R   0.591610 0.643330 0.551720 -0.527022
S1    S     S_3+6 0.776323 0.815519 0.051488 0.118230
S2    S     S_3+6 0.227869 0.245869 0.276598 0.063703
S3    S     S_3+6 0.895641 0.788306 0.825070 0.072084
S4    S     S_3+6 0.247569 0.068205 0.200592 0.104985
S5    S     S_3+6 0.105716 0.047558 0.856806 0.097062
S6    S     S_3+6 0.105205 0.776845 0.441921 0.077436
S7    S     S_3+6 0.957677 0.260077 0.573589 0.048756
S8    S     S_3+6 0.487914 0.712899 0.394171 0.077296
S9    S     S_3+6 0.556236 0.476496 0.768093 0.107679
S10   S     S_3+6 0.460699 0.834018 0.550834 0.126207
S11   S     S_3+6 0.450606 0.257017 0.692911 0.078178
S12   S     S_3+6 0.732774 0.809107 0.709135 0.154628
Zn1   Zn    Zn3+2 0.500020 0.430940 0.430940 1.045782
Zn2   Zn    Zn3+2 0.499980 0.569060 0.569060 1.159952
Zn3   Zn    Zn3+2 0.930920 0.430950 0.000010 1.118182
Zn4   Zn    Zn3+2 0.069080 0.569050 0.999990 1.075689
Zn5   Zn    Zn3+2 0.930940 0.000030 0.430950 1.142102
Zn6   Zn    Zn3+2 0.069060 0.999970 0.569050 1.125856

loop_
_geom_bond_atom_site_label_1
_geom_bond_atom_site_label_2
_ccdc_geom_bond_type
H15   O32   S    
C63   C65   A    
C34   C56   A    
H30   O70   S    
O58   S12   D    
C61   H35   S    
C28   O15   A    
C27   O11   A    
H22   O51   S    
C14   C18   A    
C44   C55   A    
O1    Zn1   S    
C25   O9    A    
H18   O38   S    
O60   S12   S    
C80   O33   D    
C47   C49   A    
C81   H17   S    
O13   Zn4   S    
C15   C19   A    
C32   O56   A    
C23   C45   A    
C53   S6    S    
C35   C37   A    
C16   O3    A    
C34   H12   S    
C38   C42   A    
O34   Zn5   S    
C26   C50   S    
C7    C71   S    
O12   Zn2   S    
C11   C14   A    
C9    C22   A    
C66   C69   A    
O6    Zn1   S    
C58   C60   A    
C29   O23   A    
O42   S8    D    
O5    Zn2   S    
C33   C36   A    
C56   C78   A    
O48   S9    S    
O3    Zn1   S    
C60   C62   A    
O37   S6    D    
C74   H8    S    
C61   C63   A    
C2    C13   A    
O7    Zn3   S    
C62   C64   A    
O10   Zn3   S    
C76   H10   S    
O49   S10   D    
C56   H2    S    
O45   Zn5   S    
C72   O19   D    
C31   O45   A    
C49   C51   A    
H24   O54   S    
C45   C67   A    
C50   C52   A    
O67   Zn6   S    
C60   H34   S    
O62   S2    D    
C79   O26   D    
C28   C78   S    
C16   O5    A    
C34   C70   A    
O30   S5    D    
C26   O10   A    
C44   C47   A    
O70   S4    S    
O29   S1    S    
C84   S12   S    
C41   C68   A    
O39   S7    D    
C62   C82   S    
O11   Zn3   S    
C17   C70   S    
C30   O17   A    
C40   C66   A    
C80   H16   S    
C27   O14   A    
O2    Zn1   S    
C42   C44   A    
O65   S3    D    
C35   C48   A    
C52   C54   A    
O23   Zn6   S    
C25   C49   S    
C53   C55   A    
C46   C48   A    
H19   O41   S    
C59   C61   A    
C22   C31   S    
C83   O57   D    
C28   O13   A    
C64   C67   A    
O66   S3    S    
C40   C58   A    
C73   H7    S    
C4    C6    A    
C19   H4    S    
C5    C7    A    
O9    Zn4   S    
O41   S7    S    
C39   C43   A    
C40   S8    S    
C52   C76   S    
C23   C69   A    
C77   H11   S    
C3    S3    S    
C54   S7    S    
C32   O71   A    
C63   C83   S    
C2    S2    S    
O46   S9    D    
O63   S2    S    
O52   S11   D    
C2    C4    A    
C24   C32   S    
C75   O22   D    
C72   H6    S    
C17   O4    A    
O14   Zn4   S    
C71   H5    S    
C12   C15   S    
C65   C68   A    
C83   H26   S    
C37   H33   S    
C26   O8    A    
C71   O18   D    
C82   O55   D    
O61   S2    D    
C9    C11   A    
C41   C59   A    
C82   H25   S    
O32   S5    S    
O71   Zn5   S    
C76   O24   D    
C45   H36   S    
C8    C10   A    
C74   O21   D    
C29   C57   S    
O43   S8    D    
C13   C15   A    
C46   C57   A    
H27   O60   S    
C43   C81   S    
C35   C79   S    
C20   C22   A    
C41   S9    S    
C36   H32   S    
C77   O25   D    
O40   S7    D    
C3    C84   A    
C75   H9    S    
O15   Zn3   S    
C5    H23   S    
C7    C9    A    
H28   O63   S    
C65   C78   A    
C12   O12   A    
O4    Zn2   S    
C8    C72   S    
O72   Zn2   S    
C79   H13   S    
O36   S6    D    
C16   C69   S    
C51   C75   S    
C3    C5    A    
C10   C13   A    
H20   O44   S    
C6    C8    A    
H21   O48   S    
C73   O20   D    
C11   C84   A    
O64   S3    D    
C30   C55   S    
C18   H3    S    
C81   O35   D    
C38   S1    S    
O17   Zn6   S    
O53   S11   D    
C10   C24   A    
O51   S10   S    
C36   C38   A    
C25   O7    A    
C37   C39   A    
O69   S4    D    
C33   C77   S    
C33   C47   A    
H29   O66   S    
C21   C74   S    
C48   C50   A    
O54   S11   S    
O38   S6    S    
O56   Zn6   S    
C20   C73   S    
O27   S1    D    
C18   C20   A    
O31   S5    D    
O47   S9    D    
C39   S5    S    
C17   O6    A    
C43   C46   A    
C1    O1    A    
C6    H31   S    
O50   S10   D    
C27   C67   S    
C4    S4    S    
O16   Zn5   S    
C1    O72   A    
C59   S11   S    
O28   S1    D    
C30   O34   A    
C29   O16   A    
C12   O2    A    
O59   S12   D    
O68   S4    D    
C68   C70   A    
C23   H1    S    
C21   C24   A    
C31   O67   A    
C42   C80   S    
C1    C14   S    
O8    Zn4   S    
C51   C53   A    
C54   C57   A    
O44   S8    S    
C58   S10   S    
C64   C66   A    
C19   C21   A    
H14   O29   S    
