data_mof_unit_22311.cif
_audit_creation_date              2012-12-11T14:48:44-0500
_audit_creation_method            fapswitch 2.2
_symmetry_space_group_name_H-M    P1
_symmetry_Int_Tables_number       1
_space_group_crystal_system       triclinic
_cell_length_a                    7.232283
_cell_length_b                    19.069212
_cell_length_c                    19.071825
_cell_angle_alpha                 89.999983
_cell_angle_beta                  86.860576
_cell_angle_gamma                 90.000015
_cell_volume                      2626.32303803

loop_
_atom_site_label
_atom_site_type_symbol
_atom_type_description
_atom_site_fract_x
_atom_site_fract_y
_atom_site_fract_z
_atom_type_partial_charge
O1    O     O_R   0.350610 0.187000 0.656530 -0.528414
O2    O     O_R   0.649390 0.813000 0.343470 -0.528414
O3    O     O_R   0.149390 0.687000 0.343470 -0.528417
O4    O     O_R   0.850610 0.313000 0.656530 -0.528421
O5    O     O_R   0.655920 0.179060 0.799470 -0.533411
O6    O     O_R   0.344080 0.820940 0.200530 -0.533412
O7    O     O_R   0.844080 0.679060 0.200530 -0.533412
O8    O     O_R   0.155920 0.320940 0.799470 -0.533412
O9    O     O_R   0.826150 0.314000 0.799910 -0.538699
O10   O     O_R   0.173850 0.686000 0.200090 -0.538700
O11   O     O_R   0.673850 0.814000 0.200090 -0.538700
O12   O     O_R   0.326150 0.186000 0.799910 -0.538700
C1    C     C_R   0.484866 0.161281 0.822681 0.687603
C2    C     C_R   0.515133 0.838719 0.177319 0.687598
C3    C     C_R   0.015133 0.661281 0.177319 0.687597
C4    C     C_R   0.984867 0.338718 0.822681 0.687603
O13   O     O_R   0.680230 0.178680 0.657050 -0.524062
O14   O     O_R   0.319770 0.821320 0.342950 -0.524057
O15   O     O_R   0.819770 0.678680 0.342950 -0.524052
O16   O     O_R   0.180230 0.321320 0.657050 -0.524051
C5    C     C_R   0.515379 0.162428 0.633966 0.776063
C6    C     C_R   0.484621 0.837572 0.366034 0.776070
C7    C     C_R   0.984621 0.662428 0.366034 0.776073
C8    C     C_R   0.015379 0.337572 0.633966 0.776069
O17   O     O_3   0.504860 0.294770 0.728200 -0.377255
O18   O     O_3   0.495140 0.705230 0.271800 -0.377254
O19   O     O_3   0.995140 0.794770 0.271800 -0.377255
O20   O     O_3   0.004860 0.205230 0.728200 -0.377256
V1    V     V_3+5 0.779710 0.242290 0.728230 1.549958
V2    V     V_3+5 0.220290 0.757710 0.271770 1.549968
V3    V     V_3+5 0.720290 0.742290 0.271770 1.549974
V4    V     V_3+5 0.279710 0.257710 0.728230 1.549971
C9    C     C_1   0.029518 0.608690 0.121322 -0.112394
C10   C     C_1   0.970482 0.391310 0.878678 -0.112393
C11   C     C_1   0.470482 0.108690 0.878678 -0.112393
C12   C     C_1   0.529518 0.891310 0.121322 -0.112394
C13   C     C_2   0.070200 0.511674 0.018975 0.504806
C14   C     C_2   0.929800 0.488326 0.981025 0.504806
C15   C     C_2   0.429800 0.011674 0.981025 0.504806
C16   C     C_2   0.570200 0.988326 0.018975 0.504806
C17   C     C_1   0.956075 0.435274 0.925367 0.082293
C18   C     C_1   0.043925 0.564726 0.074633 0.082293
C19   C     C_1   0.543925 0.935274 0.074632 0.082292
C20   C     C_1   0.456075 0.064726 0.925368 0.082293
C21   C     C_R   0.017150 0.389147 0.575753 -0.211640
C22   C     C_R   0.982850 0.610853 0.424247 -0.211639
C23   C     C_R   0.482851 0.889147 0.424247 -0.211637
C24   C     C_R   0.517150 0.110852 0.575753 -0.211639
C25   C     C_R   0.872937 0.575694 0.541983 0.604603
C26   C     C_R   0.127065 0.424306 0.458017 0.604609
C27   C     C_R   0.627079 0.075691 0.458019 0.604611
C28   C     C_R   0.372927 0.924307 0.541982 0.604602
C29   C     C_R   0.893418 0.627504 0.489896 -0.127581
C30   C     C_R   0.106585 0.372497 0.510104 -0.127586
C31   C     C_R   0.606596 0.127501 0.510107 -0.127591
C32   C     C_R   0.393411 0.872497 0.489895 -0.127583
C33   C     C_R   0.052315 0.542330 0.411744 -0.108186
C34   C     C_R   0.947682 0.457670 0.588256 -0.108184
C35   C     C_R   0.447675 0.042330 0.588255 -0.108183
C36   C     C_R   0.552322 0.957670 0.411745 -0.108186
C37   C     C_R   0.045066 0.491490 0.466961 -0.055649
C38   C     C_R   0.954933 0.508510 0.533039 -0.055651
C39   C     C_R   0.454929 0.991489 0.533038 -0.055652
C40   C     C_R   0.545072 0.008509 0.466962 -0.055648
C41   C     C_2   0.882791 0.475906 0.661282 0.572996
H1    H     H_    0.777744 0.444269 0.689004 0.020183
O21   O     O_2   0.954127 0.524115 0.692148 -0.467904
C42   C     C_2   0.117201 0.524093 0.338718 0.572998
H2    H     H_    0.222242 0.555731 0.310993 0.020177
O22   O     O_2   0.045868 0.475882 0.307854 -0.467902
C43   C     C_2   0.617214 0.975906 0.338719 0.572994
H3    H     H_    0.722251 0.944266 0.310994 0.020179
O23   O     O_2   0.545890 0.024120 0.307855 -0.467900
C44   C     C_2   0.382774 0.024095 0.661281 0.572993
H4    H     H_    0.277728 0.055734 0.689002 0.020186
O24   O     O_2   0.454101 0.975885 0.692148 -0.467903
F1    F     F_    0.756370 0.514397 0.994251 -0.630244
F2    F     F_    0.243630 0.485603 0.005749 -0.630244
F3    F     F_    0.743630 0.014396 0.005748 -0.630244
F4    F     F_    0.256370 0.985604 0.994252 -0.630244
F5    F     F_    0.767260 0.591491 0.600968 -0.659391
F6    F     F_    0.232745 0.408510 0.399033 -0.659389
F7    F     F_    0.732769 0.091486 0.399037 -0.659388
F8    F     F_    0.267241 0.908511 0.600965 -0.659390
C45   C     C_2   0.183309 0.301343 0.493547 0.468943
H5    H     H_    0.285829 0.294426 0.450402 0.145678
O25   O     O_2   0.129518 0.249271 0.525840 -0.538313
C46   C     C_2   0.816699 0.698658 0.506453 0.468938
H6    H     H_    0.714184 0.705576 0.549601 0.145669
O26   O     O_2   0.870488 0.750730 0.474159 -0.538306
C47   C     C_2   0.316689 0.801343 0.506452 0.468946
H7    H     H_    0.214160 0.794427 0.549594 0.145662
O27   O     O_2   0.370494 0.749270 0.474162 -0.538303
C48   C     C_2   0.683329 0.198654 0.493552 0.468963
H8    H     H_    0.785884 0.205567 0.450418 0.145661
O28   O     O_2   0.629505 0.250728 0.525832 -0.538307

loop_
_geom_bond_atom_site_label_1
_geom_bond_atom_site_label_2
_ccdc_geom_bond_type
C34   C38   A    
C24   C31   A    
O1    C5    A    
O13   V1    S    
O3    C7    A    
O15   V3    S    
C45   H5    S    
C26   C30   A    
C44   O24   D    
C8    C21   S    
O20   V1    S    
O9    C4    A    
C1    C11   S    
O10   C3    A    
C2    C12   S    
O4    C8    A    
O11   C2    A    
C47   O27   D    
C25   F5    S    
C13   C18   S    
C28   F8    S    
C4    C10   S    
C23   C36   A    
C32   C47   S    
O16   C8    A    
C42   H2    S    
C41   O21   D    
O2    C6    A    
O14   V2    S    
O5    C1    A    
O4    V1    S    
O9    V1    S    
C5    C24   S    
O17   V4    S    
O7    C3    A    
C6    C23   S    
O11   V3    S    
O18   V3    S    
O8    C4    A    
C7    C22   S    
O12   V4    S    
O19   V2    S    
C37   C38   A    
C10   C17   T    
C31   C48   S    
O5    V1    S    
C45   O25   D    
C21   C34   A    
O7    V3    S    
C44   H4    S    
O8    V4    S    
C14   C17   S    
C47   H7    S    
C43   O23   D    
C36   C43   S    
O1    V4    S    
O13   C5    A    
O2    V3    S    
O3    V2    S    
O15   C7    A    
C13   C14   D    
O6    C2    A    
O10   V2    S    
C34   C41   S    
C16   C19   S    
C16   F3    S    
C46   H6    S    
C48   O28   D    
C11   C20   T    
C35   C44   S    
O6    V2    S    
C46   O26   D    
C21   C30   A    
C22   C33   A    
C9    C18   T    
C33   C42   S    
C27   F7    S    
C15   C16   D    
C26   F6    S    
C24   C35   A    
O16   V4    S    
C25   C38   A    
O14   C6    A    
C27   C40   A    
C28   C39   A    
C30   C45   S    
C33   C37   A    
C15   C20   S    
C14   F1    S    
C13   F2    S    
C35   C39   A    
C36   C40   A    
C15   F4    S    
C43   H3    S    
C25   C29   A    
C22   C29   A    
C29   C46   S    
C27   C31   A    
C48   H8    S    
C39   C40   A    
O12   C1    A    
C42   O22   D    
C41   H1    S    
C26   C37   A    
C12   C19   T    
C3    C9    S    
C28   C32   A    
C23   C32   A    
