data_mof_unit_10420.cif
_audit_creation_date              2012-12-10T19:47:22-0500
_audit_creation_method            fapswitch 2.2
_symmetry_space_group_name_H-M    P1
_symmetry_Int_Tables_number       1
_space_group_crystal_system       triclinic
_cell_length_a                    10.825338
_cell_length_b                    10.870237
_cell_length_c                    12.717203
_cell_angle_alpha                 92.987643
_cell_angle_beta                  93.207894
_cell_angle_gamma                 90.28195
_cell_volume                      1492.06218587

loop_
_atom_site_label
_atom_site_type_symbol
_atom_type_description
_atom_site_fract_x
_atom_site_fract_y
_atom_site_fract_z
_atom_type_partial_charge
C1    C     C_R   0.261920 0.496393 0.500376 0.788769
C2    C     C_R   0.738080 0.503608 0.499624 0.788813
C3    C     C_R   0.494025 0.871707 0.497440 -0.085732
C4    C     C_R   0.505987 0.128294 0.502561 -0.085759
C5    C     C_R   0.451936 0.934213 0.407391 -0.008406
C6    C     C_R   0.548079 0.065788 0.592610 -0.008449
C7    C     C_R   0.247103 0.183815 0.706064 -0.110820
C8    C     C_R   0.752989 0.816129 0.293797 -0.110845
C9    C     C_R   0.191850 0.257324 0.630128 -0.122960
C10   C     C_R   0.808293 0.742707 0.369763 -0.123134
C11   C     C_R   0.130012 0.365343 0.661109 0.123782
C12   C     C_R   0.869979 0.634586 0.338858 0.123739
C13   C     C_R   0.124462 0.398985 0.768880 -0.147072
C14   C     C_R   0.875321 0.600744 0.231139 -0.146914
C15   C     C_R   0.181403 0.326011 0.844619 -0.147426
C16   C     C_R   0.818327 0.673632 0.155376 -0.147441
C17   C     C_R   0.242452 0.218352 0.813267 -0.109807
C18   C     C_R   0.757434 0.781399 0.186647 -0.109817
C19   C     C_R   0.938099 0.447455 0.579812 -0.245789
C20   C     C_R   0.061902 0.552551 0.420190 -0.245785
C21   C     C_R   0.871787 0.505771 0.499436 -0.076704
C22   C     C_R   0.128214 0.494227 0.500564 -0.076716
C23   C     C_R   0.503814 0.261890 0.500944 0.787010
C24   C     C_R   0.496190 0.738111 0.499056 0.787051
C25   C     C_R   0.933972 0.560474 0.419235 0.003329
C26   C     C_R   0.066029 0.439515 0.580761 0.003386
C27   C     C_2   0.471830 0.460361 0.030574 -0.271073
C28   C     C_2   0.528147 0.539638 0.969425 -0.271136
C29   C     C_1   0.522769 0.526846 0.852983 0.212957
C30   C     C_1   0.477221 0.473153 0.147017 0.212943
C31   C     C_R   0.760191 0.255116 0.787790 -0.128701
C32   C     C_R   0.239821 0.744899 0.212206 -0.128706
C33   C     C_R   0.709293 0.200488 0.692798 -0.093024
C34   C     C_R   0.290715 0.799528 0.307199 -0.093080
C35   C     C_R   0.601414 0.127836 0.692064 0.137025
C36   C     C_R   0.398603 0.872166 0.307937 0.137041
C37   C     C_R   0.548343 0.107658 0.788248 -0.154366
C38   C     C_R   0.451687 0.892328 0.211757 -0.154335
C39   C     C_R   0.598445 0.163837 0.882515 -0.144370
C40   C     C_R   0.401587 0.836149 0.117490 -0.144416
C41   C     C_R   0.704090 0.237865 0.882233 -0.106489
C42   C     C_R   0.295933 0.762135 0.117767 -0.106462
C43   C     C_R   0.540627 0.938164 0.588452 -0.252421
C44   C     C_R   0.459387 0.061836 0.411548 -0.252425
Cu1   Cu    Cu3+1 0.492140 0.492110 0.395880 0.980177
Cu2   Cu    Cu3+1 0.507860 0.507890 0.604120 0.980173
H1    H     H_    0.743295 0.280797 0.955373 0.125730
H2    H     H_    0.256730 0.719202 0.044627 0.125762
H3    H     H_    0.177393 0.352421 0.927618 0.121227
H4    H     H_    0.822168 0.647066 0.072421 0.121251
H5    H     H_    0.889515 0.403830 0.639886 0.143785
H6    H     H_    0.110484 0.596180 0.360115 0.143799
H7    H     H_    0.579573 0.617492 0.007027 0.158550
H8    H     H_    0.420394 0.382508 0.992971 0.158591
H9    H     H_    0.753967 0.213991 0.620137 0.099728
H10   H     H_    0.246032 0.786037 0.379857 0.099730
H11   H     H_    0.468345 0.047997 0.790387 0.110771
H12   H     H_    0.531695 0.951976 0.209622 0.110768
H13   H     H_    0.555948 0.149050 0.955919 0.119029
H14   H     H_    0.444094 0.850924 0.044088 0.119022
H15   H     H_    0.575027 0.890154 0.656678 0.162689
H16   H     H_    0.424987 0.109846 0.343322 0.162684
H17   H     H_    0.285407 0.161412 0.872098 0.113365
H18   H     H_    0.714435 0.838271 0.127796 0.113368
H19   H     H_    0.292480 0.099596 0.681461 0.126524
H20   H     H_    0.707729 0.900427 0.318333 0.126490
H21   H     H_    0.195579 0.229195 0.547368 0.104598
H22   H     H_    0.804717 0.770977 0.452484 0.104708
N1    N     N_1   0.480320 0.480250 0.239400 -0.153380
N2    N     N_1   0.519680 0.519750 0.760600 -0.153391
O1    O     O_R   0.313000 0.493330 0.412070 -0.585268
O2    O     O_R   0.687000 0.506670 0.587930 -0.585271
O3    O     O_R   0.326280 0.506660 0.587930 -0.565041
O4    O     O_R   0.673720 0.493340 0.412070 -0.565037
O5    O     O_R   0.493370 0.312980 0.412070 -0.588270
O6    O     O_R   0.506630 0.687020 0.587930 -0.588268
O7    O     O_R   0.506650 0.326310 0.587930 -0.561786
O8    O     O_R   0.493350 0.673690 0.412070 -0.561769
H23   H     H_    0.076270 0.481552 0.794026 0.120532
H24   H     H_    0.923383 0.518087 0.206060 0.120546
H25   H     H_    0.843665 0.310190 0.788968 0.119300
H26   H     H_    0.156339 0.689837 0.211026 0.119320

loop_
_geom_bond_atom_site_label_1
_geom_bond_atom_site_label_2
_ccdc_geom_bond_type
C33   H9    S    
C13   H23   S    
C34   H10   S    
C40   H14   S    
Cu1   O1    S    
Cu2   O6    S    
C27   H8    S    
C39   C41   A    
Cu1   Cu2   S    
C8    H20   S    
C3    C43   A    
C1    O1    A    
C28   C29   S    
C19   C21   A    
C16   H4    S    
C20   C25   A    
C5    C36   S    
C6    C35   S    
C7    C9    A    
C19   C26   A    
C38   H12   S    
C7    C17   A    
C31   C33   A    
Cu1   O8    S    
C14   H24   S    
Cu2   O2    S    
C2    O4    A    
C40   C42   A    
C1    C22   S    
C27   C30   S    
C3    C24   S    
C2    O2    A    
Cu1   N1    S    
C4    C6    A    
C23   O5    A    
C4    C23   S    
C24   O6    A    
C4    C44   A    
C11   C26   S    
C44   H16   S    
C8    C18   A    
Cu1   O4    S    
C32   C34   A    
C9    H21   S    
C7    H19   S    
C39   H13   S    
C2    C21   S    
C41   H1    S    
C16   C18   A    
C42   H2    S    
C23   O7    A    
C9    C11   A    
C10   C12   A    
C24   O8    A    
C5    C44   A    
C12   C14   A    
C6    C43   A    
C13   C15   A    
C14   C16   A    
C30   N1    T    
C43   H15   S    
C29   N2    T    
C15   C17   A    
C21   C25   A    
C31   C41   A    
C35   C37   A    
C8    C10   A    
C20   C22   A    
C3    C5    A    
Cu2   O7    S    
C28   H7    S    
C10   H22   S    
C32   H26   S    
C31   H25   S    
C12   C25   S    
Cu1   O5    S    
C1    O3    A    
C36   C38   A    
C37   C39   A    
C17   H17   S    
C38   C40   A    
C11   C13   A    
C18   H18   S    
C33   C35   A    
C34   C36   A    
C15   H3    S    
Cu2   N2    S    
C19   H5    S    
C20   H6    S    
C22   C26   A    
C27   C28   D    
C32   C42   A    
Cu2   O3    S    
C37   H11   S    
