data_mof_unit_54263.cif
_audit_creation_date              2012-12-11T15:50:03-0500
_audit_creation_method            fapswitch 2.2
_symmetry_space_group_name_H-M    P1
_symmetry_Int_Tables_number       1
_space_group_crystal_system       triclinic
_cell_length_a                    16.502711
_cell_length_b                    7.245257
_cell_length_c                    15.278236
_cell_angle_alpha                 90.000944
_cell_angle_beta                  94.712655
_cell_angle_gamma                 89.982835
_cell_volume                      1820.58752243

loop_
_atom_site_label
_atom_site_type_symbol
_atom_type_description
_atom_site_fract_x
_atom_site_fract_y
_atom_site_fract_z
_atom_type_partial_charge
O1    O     O_R   0.663460 0.361880 0.165960 -0.522690
O2    O     O_R   0.336540 0.638120 0.834040 -0.522694
O3    O     O_R   0.836540 0.861880 0.334040 -0.522363
O4    O     O_R   0.163460 0.138120 0.665960 -0.522366
O5    O     O_R   0.827100 0.690020 0.163730 -0.536440
O6    O     O_R   0.172900 0.309980 0.836270 -0.536439
O7    O     O_R   0.672900 0.190020 0.336270 -0.536447
O8    O     O_R   0.327100 0.809980 0.663730 -0.536439
C1    C     C_R   0.853186 0.522959 0.143450 0.721262
C2    C     C_R   0.146814 0.477041 0.856549 0.721270
C3    C     C_R   0.646803 0.022992 0.356538 0.720949
C4    C     C_R   0.353196 0.977009 0.643461 0.720961
O9    O     O_R   0.663490 0.691490 0.155490 -0.517536
O10   O     O_R   0.336510 0.308510 0.844510 -0.517542
O11   O     O_R   0.836510 0.191490 0.344510 -0.516989
O12   O     O_R   0.163490 0.808510 0.655490 -0.516989
O13   O     O_R   0.671770 0.863400 0.325740 -0.541471
O14   O     O_R   0.328230 0.136600 0.674260 -0.541475
O15   O     O_R   0.828230 0.363400 0.174260 -0.541378
O16   O     O_R   0.171770 0.636600 0.825740 -0.541380
C5    C     C_R   0.635494 0.522925 0.134090 0.757215
C6    C     C_R   0.364505 0.477076 0.865909 0.757229
C7    C     C_R   0.864536 0.022887 0.365870 0.756846
C8    C     C_R   0.135464 0.977113 0.634129 0.756835
O17   O     O_3   0.752910 0.528900 0.305870 -0.376316
O18   O     O_3   0.247090 0.471100 0.694130 -0.376319
O19   O     O_3   0.747090 0.028900 0.194130 -0.376603
O20   O     O_3   0.252910 0.971100 0.805870 -0.376607
V1    V     V_3+5 0.749460 0.803130 0.239640 1.479353
V2    V     V_3+5 0.250540 0.196870 0.760360 1.479339
V3    V     V_3+5 0.750540 0.303130 0.260360 1.479731
V4    V     V_3+5 0.249460 0.696870 0.739640 1.479729
C9    C     C_R   0.932384 0.112516 0.513306 0.334699
C10   C     C_R   0.067614 0.887474 0.486695 0.334686
C11   C     C_R   0.568009 0.610777 0.986219 0.334153
C12   C     C_R   0.431991 0.389224 0.013777 0.334149
C13   C     C_R   0.997652 0.100592 0.578696 0.328893
C14   C     C_R   0.002345 0.899393 0.421305 0.328876
C15   C     C_R   0.502763 0.598643 0.920796 0.328082
C16   C     C_R   0.497244 0.401333 0.079192 0.328077
C17   C     C_R   0.065844 0.987676 0.565891 -0.370605
C18   C     C_R   0.934156 0.012321 0.434107 -0.370607
C19   C     C_R   0.434159 0.487543 0.934107 -0.369798
C20   C     C_R   0.565841 0.512457 0.065888 -0.369781
C21   C     C_1   0.415719 0.986367 0.581149 -0.201863
C22   C     C_1   0.584279 0.013635 0.418848 -0.201877
C23   C     C_1   0.084299 0.486447 0.918869 -0.202533
C24   C     C_1   0.915699 0.513553 0.081129 -0.202540
C25   C     C_1   0.468657 0.994910 0.529911 -0.010541
C26   C     C_1   0.531339 0.005095 0.470084 -0.010523
C27   C     C_1   0.031349 0.494947 0.970095 -0.010205
C28   C     C_1   0.968648 0.505053 0.029901 -0.010193
O21   O     O_3   0.868071 0.229284 0.526618 -0.515949
C29   C     C_3   0.803836 0.125307 0.557636 0.156415
H1    H     H_    0.823941 0.049680 0.618919 0.102757
H2    H     H_    0.779274 0.023827 0.507702 0.078844
C30   C     C_3   0.735213 0.255162 0.577405 -0.700332
H3    H     H_    0.712536 0.330070 0.516844 0.226767
H4    H     H_    0.684349 0.174998 0.601879 0.170220
H5    H     H_    0.757237 0.356883 0.628299 0.216653
O22   O     O_3   0.131918 0.770678 0.473391 -0.515946
C31   C     C_3   0.196162 0.874619 0.442371 0.156405
H6    H     H_    0.220720 0.976129 0.492294 0.078831
H7    H     H_    0.176069 0.950209 0.381075 0.102750
C32   C     C_3   0.264784 0.744733 0.422636 -0.700314
H8    H     H_    0.242766 0.642991 0.371748 0.216639
H9    H     H_    0.315659 0.824867 0.398167 0.170212
H10   H     H_    0.287444 0.669850 0.483209 0.226782
O23   O     O_3   0.632732 0.725888 0.972447 -0.516483
C33   C     C_3   0.696533 0.619941 0.941735 0.155432
H11   H     H_    0.676053 0.543381 0.880840 0.103555
H12   H     H_    0.720865 0.519116 0.992113 0.079335
C34   C     C_3   0.765502 0.747968 0.921159 -0.700742
H13   H     H_    0.788559 0.823772 0.981312 0.226434
H14   H     H_    0.816032 0.666238 0.896916 0.170665
H15   H     H_    0.743675 0.848963 0.869832 0.216958
O24   O     O_3   0.367267 0.274117 0.027553 -0.516479
C35   C     C_3   0.303467 0.380070 0.058264 0.155393
H16   H     H_    0.279141 0.480910 0.007890 0.079345
H17   H     H_    0.323945 0.456617 0.119164 0.103529
C36   C     C_3   0.234489 0.252054 0.078828 -0.700750
H18   H     H_    0.256307 0.151048 0.130154 0.216935
H19   H     H_    0.183959 0.333791 0.103068 0.170670
H20   H     H_    0.211435 0.176260 0.018672 0.226443
O25   O     O_3   0.994126 0.205890 0.654039 -0.521745
C37   C     C_3   0.977782 0.091829 0.725826 0.133772
H21   H     H_    0.035813 0.055189 0.763842 0.120573
H22   H     H_    0.945218 0.961268 0.706167 0.074677
C38   C     C_3   0.925631 0.198172 0.786229 -0.702710
H23   H     H_    0.865216 0.228702 0.751966 0.214956
H24   H     H_    0.916984 0.115148 0.845855 0.174660
H25   H     H_    0.955543 0.330392 0.806165 0.226912
O26   O     O_3   0.005859 0.794050 0.345976 -0.521742
C39   C     C_3   0.022225 0.908053 0.274176 0.133800
H26   H     H_    0.054803 0.038602 0.293820 0.074650
H27   H     H_    0.964201 0.944714 0.236152 0.120566
C40   C     C_3   0.074367 0.801628 0.213793 -0.702678
H28   H     H_    0.044454 0.669384 0.193898 0.226909
H29   H     H_    0.083007 0.884573 0.154141 0.174653
H30   H     H_    0.134785 0.771132 0.248055 0.214931
O27   O     O_3   0.506764 0.701846 0.844871 -0.522211
C41   C     C_3   0.522400 0.585369 0.773685 0.133310
H31   H     H_    0.464121 0.548904 0.736134 0.120212
H32   H     H_    0.554593 0.454721 0.794039 0.075569
C42   C     C_3   0.574658 0.688743 0.712355 -0.703059
H33   H     H_    0.635127 0.719889 0.746336 0.215284
H34   H     H_    0.583174 0.603282 0.653459 0.174774
H35   H     H_    0.544883 0.820459 0.691261 0.227129
O28   O     O_3   0.493268 0.298034 0.155090 -0.522198
C43   C     C_3   0.477612 0.414400 0.226309 0.133312
H36   H     H_    0.445417 0.545069 0.205993 0.075537
H37   H     H_    0.535885 0.450819 0.263887 0.120240
C44   C     C_3   0.425343 0.310905 0.287582 -0.703027
H38   H     H_    0.455112 0.179141 0.308613 0.227128
H39   H     H_    0.416825 0.396240 0.346519 0.174764
H40   H     H_    0.364876 0.279838 0.253575 0.215290

loop_
_geom_bond_atom_site_label_1
_geom_bond_atom_site_label_2
_ccdc_geom_bond_type
O17   V3    S    
O1    C5    A    
O26   C39   S    
O19   V1    S    
O13   V1    S    
C34   H13   S    
O3    C7    A    
O15   V3    S    
C40   H30   S    
C40   H28   S    
O21   C29   S    
O7    C3    A    
C42   H34   S    
O27   C41   S    
C7    C18   S    
C9    C18   A    
C13   O25   S    
C36   H18   S    
C14   C18   A    
C12   O24   S    
O4    C8    A    
C37   H22   S    
C30   H4    S    
O1    V3    S    
C41   C42   S    
O2    V4    S    
O3    V1    S    
C43   H36   S    
C31   H7    S    
C43   H37   S    
C36   H19   S    
C1    O15   A    
C2    O16   A    
C32   H9    S    
O2    C6    A    
C33   H11   S    
O14   V2    S    
C38   H24   S    
C16   C20   A    
O24   C35   S    
C44   H40   S    
O11   C7    A    
O12   C8    A    
C8    C17   S    
C34   H14   S    
O22   C31   S    
C10   C17   A    
O10   V2    S    
C40   H29   S    
C15   O27   S    
O5    V1    S    
C9    O21   S    
C42   H35   S    
C29   H2    S    
O7    V3    S    
C41   H31   S    
O8    V4    S    
C12   C16   A    
C37   H21   S    
C30   H5    S    
C15   C19   A    
C39   C40   S    
O25   C37   S    
C10   O22   S    
C9    C13   A    
C27   C28   S    
C11   C15   A    
O5    C1    A    
C31   H6    S    
C5    C20   S    
C6    C19   S    
C21   C25   T    
O8    C4    A    
C32   H10   S    
C33   C34   S    
O9    C5    A    
C38   H25   S    
C39   H27   S    
C11   C20   A    
C43   C44   S    
O6    V2    S    
C32   H8    S    
C34   H15   S    
C36   H20   S    
C44   H38   S    
O16   V4    S    
O9    V1    S    
C29   H1    S    
C3    O13   A    
C31   C32   S    
C10   C14   A    
C4    C21   S    
C12   C19   A    
C37   C38   S    
O6    C2    A    
C23   C27   T    
O11   V3    S    
C16   O28   S    
O18   V4    S    
O12   V4    S    
C42   H33   S    
C22   C26   T    
C41   H32   S    
O10   C6    A    
O20   V2    S    
O28   C43   S    
C35   H16   S    
C35   C36   S    
C30   H3    S    
C14   O26   S    
C35   H17   S    
C13   C17   A    
C39   H26   S    
O23   C33   S    
C24   C28   T    
C11   O23   S    
C1    C24   S    
C25   C26   S    
C4    O14   A    
C2    C23   S    
C3    C22   S    
C33   H12   S    
C38   H23   S    
O4    V2    S    
C44   H39   S    
C29   C30   S    
