data_mof_unit_50253.cif
_audit_creation_date              2012-12-10T16:54:56-0500
_audit_creation_method            fapswitch 2.2
_symmetry_space_group_name_H-M    P1
_symmetry_Int_Tables_number       1
_space_group_crystal_system       triclinic
_cell_length_a                    7.933343
_cell_length_b                    8.716897
_cell_length_c                    15.721612
_cell_angle_alpha                 91.543832
_cell_angle_beta                  84.524677
_cell_angle_gamma                 93.529306
_cell_volume                      1079.9584857

loop_
_atom_site_label
_atom_site_type_symbol
_atom_type_description
_atom_site_fract_x
_atom_site_fract_y
_atom_site_fract_z
_atom_type_partial_charge
C1    C     C_R   0.544258 0.792857 0.491694 0.846875
C2    C     C_3   0.345677 0.606908 0.059455 0.574525
C3    C     C_3   0.489648 0.496271 0.083910 -0.295496
C4    C     C_3   0.429037 0.321578 0.052814 0.915854
C5    C     C_3   0.472497 0.318149 0.952814 -0.187826
C6    C     C_1   0.497768 0.503114 0.175129 0.056365
C7    C     C_1   0.495025 0.485785 0.824784 0.089926
C8    C     C_1   0.496720 0.489549 0.749440 -0.265140
C9    C     C_2   0.567160 0.954498 0.476976 0.312791
C10   C     C_2   0.430379 0.043491 0.479771 -0.165116
C11   C     C_R   0.499301 0.497295 0.660960 0.898011
C12   C     C_R   0.455017 0.206331 0.495306 0.944651
C13   C     C_R   0.500672 0.502675 0.338987 0.850419
C14   C     C_3   0.350478 0.596282 0.956078 0.492918
C15   C     C_3   0.682318 0.550306 0.938790 0.503577
C16   C     C_3   0.675082 0.566215 0.040623 0.816270
C17   C     C_1   0.501448 0.505400 0.250373 -0.276313
C18   C     C_3   0.497616 0.487433 0.916869 -0.126384
H1    H     H_    0.987009 0.597390 0.573810 0.172160
H2    H     H_    0.595603 0.264571 0.943933 0.219888
N1    N     N_2   0.950340 0.457950 0.477370 -0.023973
N2    N     N_2   0.049660 0.542050 0.522630 -0.130721
O1    O     O_R   0.389240 0.738570 0.505550 -0.635174
O2    O     O_R   0.678400 0.711630 0.491050 -0.595478
O3    O     O_R   0.355360 0.513470 0.630110 -0.615832
O4    O     O_R   0.644510 0.486530 0.615610 -0.624264
O5    O     O_R   0.321600 0.288370 0.508950 -0.623840
O6    O     O_R   0.610760 0.261430 0.494450 -0.555196
O7    O     O_R   0.355490 0.513470 0.384390 -0.640004
O8    O     O_R   0.644640 0.486530 0.369890 -0.629907
Zn1   Zn    Zn3+2 0.306930 0.517990 0.509680 0.925139
Zn2   Zn    Zn3+2 0.693070 0.482010 0.490320 0.964368
C19   C     C_3   0.367794 0.778100 0.091893 -0.743456
H3    H     H_    0.241747 0.827602 0.100452 0.194720
H4    H     H_    0.420083 0.785729 0.154827 0.202462
H5    H     H_    0.449242 0.857256 0.049716 0.295000
C20   C     C_3   0.173266 0.529892 0.931382 -0.626475
H6    H     H_    0.128615 0.422883 0.963848 0.291021
H7    H     H_    0.077898 0.613853 0.951379 0.274546
H8    H     H_    0.171467 0.503847 0.862352 0.182257
O9    O     O_3   0.177137 0.557224 0.094582 -0.555904
C21   C     C_3   0.142361 0.557173 0.184936 -0.227070
H9    H     H_    0.005085 0.569670 0.200934 0.174757
H10   H     H_    0.206729 0.651934 0.219847 0.132178
H11   H     H_    0.168383 0.444441 0.209999 0.179911
O10   O     O_3   0.517021 0.204195 0.089689 -0.669358
C22   C     C_3   0.457607 0.165453 0.175502 -0.334875
H12   H     H_    0.411037 0.043943 0.177557 0.171981
H13   H     H_    0.353029 0.233176 0.205359 0.186313
H14   H     H_    0.563259 0.175558 0.216834 0.145896
O11   O     O_3   0.733512 0.015033 0.466017 -0.569156
C23   C     C_3   0.788044 0.006708 0.377925 -0.312787
H15   H     H_    0.713454 0.080432 0.340701 0.138389
H16   H     H_    0.780947 0.886249 0.352454 0.146358
H17   H     H_    0.922628 0.049701 0.368315 0.171719
C24   C     C_3   0.251639 0.983298 0.462955 -0.872414
H18   H     H_    0.175369 0.075158 0.442351 0.240983
H19   H     H_    0.256039 0.897338 0.409402 0.239191
H20   H     H_    0.182886 0.934227 0.521823 0.280533
C25   C     C_3   0.020246 0.400155 0.396106 -0.497409
H21   H     H_    0.919513 0.331598 0.365531 0.176294
H22   H     H_    0.061412 0.497919 0.354179 0.173128
H23   H     H_    0.122560 0.322969 0.403376 0.208468
O12   O     O_3   0.389701 0.748108 0.922967 -0.638302
C26   C     C_3   0.304403 0.794581 0.853488 -0.345471
H24   H     H_    0.179385 0.837662 0.877147 0.174457
H25   H     H_    0.290905 0.706116 0.802732 0.182513
H26   H     H_    0.381443 0.890340 0.821410 0.185386
O13   O     O_3   0.810655 0.443076 0.914405 -0.627101
C27   C     C_3   0.839644 0.400453 0.826852 -0.320131
H27   H     H_    0.855051 0.499334 0.783535 0.180879
H28   H     H_    0.742412 0.312758 0.807990 0.180322
H29   H     H_    0.959786 0.341165 0.817712 0.177442
C28   C     C_3   0.742436 0.707650 0.894613 -0.698905
H30   H     H_    0.677759 0.808770 0.922170 0.274795
H31   H     H_    0.878703 0.734653 0.900378 0.204395
H32   H     H_    0.724710 0.706602 0.825619 0.195083
O14   O     O_3   0.687077 0.727673 0.060301 -0.659270
C29   C     C_3   0.786976 0.777035 0.127006 -0.252874
H33   H     H_    0.923728 0.778399 0.103951 0.214147
H34   H     H_    0.759103 0.706507 0.184759 0.168565
H35   H     H_    0.757891 0.896846 0.145736 0.154657
O15   O     O_3   0.826659 0.507343 0.067548 -0.577380
C30   C     C_3   0.822968 0.354359 0.091735 -0.237557
H36   H     H_    0.796013 0.272918 0.039036 0.213454
H37   H     H_    0.749661 0.337511 0.153714 0.171694
H38   H     H_    0.950320 0.331925 0.106934 0.237469
C31   C     C_3   0.369692 0.201844 0.898575 -0.885285
H39   H     H_    0.234884 0.225517 0.898284 0.255312
H40   H     H_    0.425016 0.198537 0.831087 0.231348
H41   H     H_    0.381962 0.084200 0.920179 0.261013
O16   O     O_3   0.249571 0.294949 0.072125 -0.597454
C32   C     C_3   0.181229 0.140964 0.066672 -0.351104
H42   H     H_    0.082728 0.132893 0.020994 0.173422
H43   H     H_    0.117833 0.107436 0.129999 0.144264
H44   H     H_    0.275020 0.057000 0.046733 0.219942

loop_
_geom_bond_atom_site_label_1
_geom_bond_atom_site_label_2
_ccdc_geom_bond_type
O3    Zn1   S    
C15   C18   S    
O4    Zn2   S    
C32   H42   S    
O9    C21   S    
C14   C18   S    
C9    O11   S    
C30   H38   S    
C3    C6    S    
C7    C8    T    
C22   H13   S    
C5    H2    S    
C4    O10   S    
C28   H31   S    
C12   O6    A    
C25   H23   S    
C13   O7    A    
C30   H37   S    
C20   H8    S    
C11   O3    A    
C2    O9    S    
C15   C16   S    
C19   H5    S    
C24   H18   S    
C25   H22   S    
C5    C31   S    
C22   H12   S    
C26   H25   S    
C28   H32   S    
C27   H27   S    
C10   C24   S    
C9    C10   D    
C23   H17   S    
C26   H26   S    
C32   H43   S    
N1    N2    D    
C21   H10   S    
C23   H16   S    
C22   H14   S    
C15   O13   S    
N1    Zn2   S    
N2    Zn1   S    
C12   O5    A    
O5    Zn1   S    
O11   C23   S    
C13   O8    A    
O6    Zn2   S    
H1    N2    S    
C1    C9    S    
C30   H36   S    
N1    C25   S    
C28   H30   S    
C29   H34   S    
O14   C29   S    
C5    C18   S    
C11   O4    A    
C16   O15   S    
C25   H21   S    
C21   H11   S    
O1    Zn1   S    
O2    Zn2   S    
C20   H6    S    
O15   C30   S    
C31   H41   S    
C7    C18   S    
C14   O12   S    
C27   H29   S    
C19   H3    S    
C10   C12   S    
C2    C19   S    
C31   H40   S    
C1    O1    A    
C32   H44   S    
C21   H9    S    
C3    C4    S    
C23   H15   S    
C6    C17   T    
O10   C22   S    
C4    C5    S    
C29   H35   S    
C24   H20   S    
C13   C17   S    
O12   C26   S    
C2    C3    S    
C20   H7    S    
C14   C20   S    
O8    Zn2   S    
C8    C11   S    
O16   C32   S    
C19   H4    S    
C24   H19   S    
C16   O14   S    
O13   C27   S    
C2    C14   S    
C29   H33   S    
C15   C28   S    
C31   H39   S    
C1    O2    A    
O7    Zn1   S    
C26   H24   S    
C27   H28   S    
C3    C16   S    
C4    O16   S    
