data_mof_unit_40746.cif
_audit_creation_date              2012-12-10T18:33:45-0500
_audit_creation_method            fapswitch 2.2
_symmetry_space_group_name_H-M    P1
_symmetry_Int_Tables_number       1
_space_group_crystal_system       triclinic
_cell_length_a                    10.544686
_cell_length_b                    15.010739
_cell_length_c                    15.532674
_cell_angle_alpha                 82.508113
_cell_angle_beta                  89.78378
_cell_angle_gamma                 103.758046
_cell_volume                      2366.09633801

loop_
_atom_site_label
_atom_site_type_symbol
_atom_type_description
_atom_site_fract_x
_atom_site_fract_y
_atom_site_fract_z
_atom_type_partial_charge
C1    C     C_R   0.479039 0.442113 0.661901 0.888765
C2    C     C_R   0.412433 0.489811 0.043478 0.058408
C3    C     C_R   0.351008 0.395884 0.072644 -0.177194
C4    C     C_R   0.468123 0.615055 0.922850 -0.168752
C5    C     C_R   0.324312 0.330818 0.015059 -0.161149
C6    C     C_R   0.496528 0.680103 0.980245 -0.160733
C7    C     C_R   0.683193 0.840151 0.644659 0.282100
C8    C     C_R   0.314032 0.159513 0.356551 0.289094
C9    C     C_R   0.661553 0.753622 0.615954 0.460251
C10   C     C_R   0.336979 0.246234 0.384881 0.463416
C11   C     C_R   0.514399 0.794537 0.511549 -0.006275
C12   C     C_R   0.516757 0.557871 0.338084 0.890938
C13   C     C_R   0.484966 0.205181 0.488600 -0.003900
C14   C     C_R   0.544693 0.886560 0.530098 -0.022892
C15   C     C_R   0.452980 0.112962 0.470684 -0.026293
C16   C     C_R   0.741974 0.499957 0.500178 0.992431
C17   C     C_R   0.258037 0.500015 0.499904 0.986460
C18   C     C_R   0.619738 0.905730 0.603831 -0.085648
C19   C     C_R   0.377121 0.093745 0.397338 -0.083074
C20   C     C_R   0.495568 0.957828 0.482192 0.004402
C21   C     C_R   0.501277 0.041491 0.518823 0.002359
C22   C     C_R   0.552997 0.049281 0.602657 0.366653
C23   C     C_R   0.468416 0.473747 0.811404 -0.215365
C24   C     C_R   0.442943 0.949979 0.398571 0.368515
C25   C     C_R   0.621155 0.986508 0.639600 -0.090530
C26   C     C_R   0.374463 0.012654 0.361931 -0.084795
C27   C     C_3   0.933061 0.417437 0.482591 0.423963
C28   C     C_3   0.067013 0.582492 0.517640 0.421559
C29   C     C_3   0.019622 0.433646 0.560842 0.353791
C30   C     C_3   0.980472 0.566297 0.439391 0.352678
C31   C     C_3   0.123486 0.501001 0.500131 -0.296839
C32   C     C_3   0.876562 0.498940 0.500081 -0.300527
C33   C     C_3   0.038392 0.484969 0.421002 -0.327747
C34   C     C_R   0.467953 0.527840 0.189198 -0.208605
C35   C     C_3   0.961671 0.514971 0.579222 -0.328024
C36   C     C_R   0.447839 0.408409 0.753821 -0.066893
C37   C     C_R   0.512846 0.592190 0.245950 -0.073224
C38   C     C_R   0.344895 0.289981 0.870528 -0.136978
C39   C     C_R   0.539501 0.716263 0.126281 -0.132767
C40   C     C_R   0.385737 0.315998 0.783390 -0.082768
C41   C     C_R   0.547712 0.686809 0.214513 -0.093195
C42   C     C_R   0.419836 0.450883 0.896907 0.091149
C43   C     C_R   0.455235 0.555606 0.101162 0.090709
C44   C     C_R   0.362302 0.356774 0.927673 0.130265
C45   C     C_R   0.496083 0.651185 0.069111 0.133046
C46   C     C_R   0.433638 0.518971 0.953395 0.068532
Cl1   Cl    Cl    0.049918 0.346020 0.641603 -0.497812
Cl2   Cl    Cl    0.152659 0.693804 0.541087 -0.482965
Cl3   Cl    Cl    0.950609 0.654099 0.358682 -0.486384
Cl4   Cl    Cl    0.253422 0.327296 0.336599 -0.534136
Cl5   Cl    Cl    0.743643 0.672160 0.665427 -0.502277
Cl6   Cl    Cl    0.788802 0.864590 0.731533 -0.486333
Cl7   Cl    Cl    0.207143 0.135055 0.270302 -0.505475
Cl8   Cl    Cl    0.515674 0.123258 0.673727 -0.599651
Cl9   Cl    Cl    0.479555 0.876479 0.326986 -0.614319
Cl10  Cl    Cl    0.847468 0.306101 0.459183 -0.477828
H1    H     H_    0.560934 0.229448 0.532006 0.226006
H2    H     H_    0.329763 0.001448 0.300411 0.232130
H3    H     H_    0.072627 0.473066 0.356741 0.240861
H4    H     H_    0.927473 0.526912 0.643476 0.242110
H5    H     H_    0.277614 0.259490 0.039550 0.193296
H6    H     H_    0.524281 0.753042 0.954699 0.178926
H7    H     H_    0.319294 0.371304 0.139452 0.205526
H8    H     H_    0.471024 0.641871 0.854724 0.168741
H9    H     H_    0.438802 0.769971 0.468041 0.226391
H10   H     H_    0.448589 0.455398 0.214071 0.193275
H11   H     H_    0.524740 0.542759 0.788649 0.194369
H12   H     H_    0.583416 0.737555 0.257653 0.223679
H13   H     H_    0.367553 0.264465 0.739321 0.216508
H14   H     H_    0.298940 0.218057 0.893070 0.174540
H15   H     H_    0.569649 0.789547 0.102484 0.177588
H16   H     H_    0.665047 0.997558 0.701383 0.230926
N1    N     N_R   0.574200 0.731700 0.552740 -0.173592
N2    N     N_R   0.425800 0.268300 0.447260 -0.171443
O1    O     O_R   0.462600 0.383110 0.605620 -0.605099
O2    O     O_R   0.537400 0.616890 0.394380 -0.605059
O3    O     O_R   0.510210 0.531900 0.639510 -0.597456
O4    O     O_R   0.489790 0.468100 0.360490 -0.595934
O5    O     O_R   0.662240 0.425610 0.483080 -0.600042
O6    O     O_R   0.337760 0.574390 0.516920 -0.603159
O7    O     O_R   0.709860 0.574400 0.516970 -0.544500
O8    O     O_R   0.290140 0.425600 0.483030 -0.544680
Zn1   Zn    Zn3+2 0.468210 0.400660 0.477370 1.059751
Zn2   Zn    Zn3+2 0.531790 0.599340 0.522630 1.058201

loop_
_geom_bond_atom_site_label_1
_geom_bond_atom_site_label_2
_ccdc_geom_bond_type
O5    Zn1   S    
C38   H14   S    
C6    C45   A    
C27   C29   S    
C34   C37   A    
C1    O3    A    
C14   C18   A    
C9    Cl5   S    
N2    Zn1   S    
O6    Zn2   S    
C34   H10   S    
C22   Cl8   S    
C4    C46   A    
C27   C33   S    
C24   Cl9   S    
C15   C19   A    
C23   C42   A    
C9    N1    A    
C29   Cl1   S    
C24   C26   A    
C7    Cl6   S    
C11   C14   A    
C13   H1    S    
C17   O8    A    
C42   C46   A    
C23   H11   S    
C12   C37   S    
C19   C26   A    
O4    Zn1   S    
C20   C24   A    
C28   C35   S    
C22   C25   A    
C12   O4    A    
C31   C33   S    
C30   C32   S    
N1    Zn2   S    
C39   C45   A    
C33   H3    S    
C21   C22   A    
O2    Zn2   S    
C18   C25   A    
C42   C44   A    
C41   H12   S    
C8    C19   A    
C40   H13   S    
C1    O1    A    
C32   C35   S    
C14   C20   A    
C36   C40   A    
C4    C6    A    
C11   N1    A    
C27   Cl10  S    
O3    Zn2   S    
C17   O6    A    
C2    C46   A    
C35   H4    S    
C38   C44   A    
C26   H2    S    
C2    C43   A    
C7    C18   A    
C5    H5    S    
C25   H16   S    
C13   N2    A    
C43   C45   A    
C5    C44   A    
C23   C36   A    
C13   C15   A    
C17   C31   S    
C10   Cl4   S    
O7    Zn2   S    
C7    C9    A    
C29   C35   S    
C28   Cl2   S    
C30   C33   S    
C27   C32   S    
C30   Cl3   S    
C28   C31   S    
C34   C43   A    
C3    C5    A    
C8    Cl7   S    
C3    H7    S    
C16   C32   S    
C4    H8    S    
C16   O5    A    
C6    H6    S    
C12   O2    A    
C2    C3    A    
C29   C31   S    
C38   C40   A    
C10   N2    A    
O1    Zn1   S    
C28   C30   S    
C16   O7    A    
C37   C41   A    
C15   C21   A    
C20   C21   A    
C39   C41   A    
C8    C10   A    
O8    Zn1   S    
C39   H15   S    
C11   H9    S    
C1    C36   S    
