data_mof_unit_23827.cif
_audit_creation_date              2013-03-05T16:00:28-0500
_audit_creation_method            fapswitch 2.2
_symmetry_space_group_name_H-M    P1
_symmetry_Int_Tables_number       1
_space_group_crystal_system       triclinic
_cell_length_a                    12.688907
_cell_length_b                    13.050061
_cell_length_c                    27.626227
_cell_angle_alpha                 92.303147
_cell_angle_beta                  102.623617
_cell_angle_gamma                 82.125734
_cell_volume                      4421.73090122

loop_
_atom_site_label
_atom_site_type_symbol
_atom_site_description
_atom_site_fract_x
_atom_site_fract_y
_atom_site_fract_z
_atom_type_partial_charge
O1    O     O_R   0.366730 0.627160 0.487740 -0.614682
O2    O     O_R   0.544830 0.662520 0.504140 -0.552377
C1    C     C_R   0.438743 0.691300 0.493462 0.967267
O3    O     O_R   0.410970 0.482310 0.563040 -0.584363
O4    O     O_R   0.589070 0.517670 0.579450 -0.536726
C2    C     C_R   0.501269 0.500024 0.593808 1.033525
Zn1   Zn    Zn3+2 0.381080 0.476390 0.489050 1.023867
Zn2   Zn    Zn3+2 0.618920 0.523610 0.510950 1.137759
O5    O     O_R   0.455170 0.337480 0.495860 -0.625737
O6    O     O_R   0.633270 0.372840 0.512260 -0.535169
O7    O     O_R   0.410930 0.482330 0.420550 -0.641518
O8    O     O_R   0.589030 0.517690 0.436960 -0.527023
C3    C     C_R   0.560716 0.308398 0.505205 0.907311
C4    C     C_R   0.499205 0.498063 0.406209 0.967155
C5    C     C_R   0.462236 0.614947 0.821283 0.613007
O9    O     O_2   0.460065 0.704584 0.798128 -0.495423
N1    N     N_R   0.477730 0.522680 0.796913 -0.316337
C6    C     C_R   0.479904 0.430378 0.819097 0.673149
C7    C     C_R   0.585174 0.476796 0.733580 0.666680
C8    C     C_R   0.591928 0.465859 0.683606 0.242909
C9    C     C_R   0.405612 0.555181 0.660594 0.601789
C10   C     C_R   0.399360 0.561673 0.710028 -0.228321
C11   C     C_R   0.488344 0.522183 0.746471 -0.018219
C12   C     C_R   0.454218 0.522359 0.894279 -0.059398
C13   C     C_R   0.449439 0.616544 0.870403 -0.095461
C14   C     C_R   0.428284 0.709899 0.895335 -0.136032
C15   C     C_R   0.469353 0.428401 0.868343 -0.139926
C16   C     C_R   0.500812 0.506493 0.646726 -0.396780
H1    H     H_    0.324625 0.596708 0.720149 0.229167
H2    H     H_    0.415325 0.782481 0.875828 0.240769
C17   C     C_R   0.495739 0.495882 0.353013 -0.067108
C18   C     C_R   0.462040 0.610903 0.023770 0.053454
C19   C     C_R   0.431113 0.429203 0.016840 -0.076848
C20   C     C_R   0.450922 0.518990 0.046127 0.021630
C21   C     C_R   0.504542 0.690405 0.054278 -0.189794
C22   C     C_R   0.520450 0.688048 0.105887 0.381799
C23   C     C_R   0.492969 0.601817 0.128387 -0.130821
C24   C     C_R   0.461005 0.516208 0.097994 -0.093632
C25   C     C_R   0.439235 0.427030 0.119242 -0.110000
C26   C     C_R   0.450897 0.423136 0.170436 0.624635
N2    N     N_R   0.479870 0.506102 0.199287 -0.354034
C27   C     C_R   0.496692 0.595490 0.179724 0.631576
C28   C     C_R   0.391044 0.510175 0.268830 -0.104538
C29   C     C_R   0.394983 0.507048 0.319268 -0.108448
C30   C     C_R   0.592589 0.485305 0.335647 -0.212782
C31   C     C_R   0.589367 0.486861 0.284889 0.396727
C32   C     C_R   0.487426 0.500854 0.251443 0.163179
O10   O     O_2   0.513773 0.677578 0.210111 -0.407764
C33   C     C_R   0.440811 0.616548 0.971405 -0.030324
C34   C     C_R   0.445900 0.522011 0.944337 -0.011755
C35   C     C_R   0.445766 0.426893 0.967489 -0.066745
C36   C     C_R   0.418803 0.711223 0.944759 0.360349
H3    H     H_    0.319134 0.515803 0.331851 0.196765
H4    H     H_    0.312850 0.520648 0.243019 0.181537
H5    H     H_    0.530714 0.753038 0.037757 0.214271
O11   O     O_2   0.491575 0.340871 0.793373 -0.489450
C37   C     C_R   0.477038 0.334684 0.892420 -0.185613
H6    H     H_    0.494019 0.261551 0.873821 0.235670
C38   C     C_R   0.398109 0.345866 0.038243 0.723079
C39   C     C_R   0.403977 0.344471 0.088943 -0.176927
O12   O     O_2   0.433538 0.337116 0.191505 -0.498878
C40   C     C_R   0.467590 0.333333 0.941519 0.712651
H7    H     H_    0.670540 0.476721 0.361612 0.216322
H8    H     H_    0.379864 0.278476 0.104308 0.238813
C41   C     C_R   0.691835 0.058954 0.461575 -0.047086
H9    H     H_    0.740226 0.209773 0.473776 0.215697
H10   H     H_    0.757035 0.035011 0.442532 0.226123
C42   C     C_R   0.595435 0.198052 0.501251 -0.077146
C43   C     C_R   0.306660 0.837370 0.509908 -0.325114
C44   C     C_R   0.275049 0.943015 0.514401 0.378089
C45   C     C_R   0.340680 0.012733 0.502907 0.576801
C46   C     C_R   0.438953 0.975059 0.487243 -0.122160
C47   C     C_R   0.453994 0.871280 0.472114 -0.097497
C48   C     C_R   0.522602 0.035404 0.485822 0.081073
C49   C     C_R   0.611866 0.995090 0.463881 -0.030278
C50   C     C_R   0.615556 0.894412 0.442880 0.310706
C51   C     C_R   0.526442 0.840105 0.440553 0.324524
C52   C     C_R   0.523456 0.132557 0.508630 -0.106582
C53   C     C_R   0.682700 0.160200 0.479524 -0.149760
C54   C     C_R   0.396955 0.801153 0.489656 -0.074582
H11   H     H_    0.466030 0.161516 0.531066 0.219186
H12   H     H_    0.261219 0.783227 0.522598 0.202410
C55   C     C_R   0.097105 0.333989 0.432064 0.305031
H13   H     H_    0.263928 0.326418 0.425482 0.181851
H14   H     H_    0.884506 0.309781 0.415593 0.232469
N3    N     N_R   0.222180 0.444690 0.474320 -0.148058
C56   C     C_R   0.809528 0.626797 0.562605 0.436435
C57   C     C_R   0.920556 0.631050 0.581506 0.605385
C58   C     C_R   0.997000 0.576049 0.559188 -0.298432
C59   C     C_R   0.965967 0.514767 0.517330 -0.128116
C60   C     C_R   0.855035 0.497288 0.503137 0.035484
C61   C     C_R   0.044208 0.466488 0.491080 0.025610
C62   C     C_R   0.016746 0.388208 0.455307 -0.062464
C63   C     C_R   0.909982 0.366773 0.443633 -0.250316
C64   C     C_R   0.831126 0.419749 0.466262 0.624577
C65   C     C_R   0.149303 0.495268 0.498541 0.013322
C66   C     C_R   0.199984 0.365360 0.442424 0.011750
N4    N     N_R   0.776980 0.554780 0.525420 -0.177969
H15   H     H_    0.175263 0.558534 0.522426 0.164417
H16   H     H_    0.081025 0.582307 0.576031 0.226306
F1    F     F_    0.318263 0.597208 0.626215 -0.638355
F2    F     F_    0.671459 0.442266 0.770200 -0.553793
F3    F     F_    0.350244 0.270265 0.010137 -0.565004
S1    S     S_3+6 0.713453 0.471781 0.264612 0.107984
O13   O     O_2   0.704708 0.407823 0.217772 -0.259633
O14   O     O_2   0.740014 0.576611 0.254761 -0.147574
O15   O     O_3   0.814707 0.414284 0.308735 -0.488904
H17   H     H_    0.792471 0.346191 0.313602 0.372543
F4    F     F_    0.493201 0.240528 0.964536 -0.563089
S2    S     S_3+6 0.735853 0.828108 0.426953 0.095128
O16   O     O_2   0.737862 0.854788 0.374777 -0.219272
O17   O     O_2   0.835692 0.858352 0.461795 -0.249581
O18   O     O_3   0.738485 0.699553 0.431336 -0.513700
H18   H     H_    0.804991 0.668573 0.420164 0.384618
F5    F     F_    0.302826 0.115172 0.502474 -0.642903
S3    S     S_3+6 0.156156 0.984699 0.537024 0.112576
O19   O     O_2   0.146709 0.098248 0.549583 -0.197561
O20   O     O_2   0.058091 0.963998 0.498142 -0.248478
O21   O     O_3   0.159662 0.918046 0.588378 -0.463132
H19   H     H_    0.129576 0.853283 0.576290 0.383280
S4    S     S_3+6 0.471499 0.782884 0.382591 0.090275
O22   O     O_2   0.556164 0.712152 0.362830 -0.227763
O23   O     O_2   0.379647 0.724193 0.386157 -0.297750
O24   O     O_3   0.421432 0.879037 0.341863 -0.446433
H20   H     H_    0.486248 0.907370 0.336159 0.381059
S5    S     S_3+6 0.075176 0.225555 0.391959 0.101328
O25   O     O_2   0.007240 0.262587 0.342710 -0.197812
O26   O     O_2   0.181770 0.168911 0.384248 -0.219895
O27   O     O_3   0.009299 0.143321 0.415790 -0.477380
H21   H     H_    0.040179 0.144323 0.451914 0.391026
S6    S     S_3+6 0.720337 0.729999 0.583214 0.126957
O28   O     O_2   0.676652 0.803457 0.541124 -0.330286
O29   O     O_2   0.627300 0.695284 0.600478 -0.280335
O30   O     O_3   0.786798 0.797632 0.630596 -0.411979
H22   H     H_    0.735082 0.860113 0.634269 0.392370
F6    F     F_    0.957333 0.691525 0.620956 -0.551200
F7    F     F_    0.734327 0.387345 0.451189 -0.691396
S7    S     S_3+6 0.580185 0.792852 0.139147 0.157816
O31   O     O_2   0.496840 0.858650 0.162107 -0.134136
O32   O     O_2   0.675550 0.752595 0.179381 -0.185431
O33   O     O_3   0.623650 0.867777 0.101343 -0.466550
H23   H     H_    0.690566 0.827225 0.094208 0.365380
S8    S     S_3+6 0.356313 0.829221 0.966531 0.076951
O34   O     O_2   0.301817 0.810511 0.007932 -0.244327
O35   O     O_2   0.440473 0.900844 0.984086 -0.220813
O36   O     O_3   0.261761 0.885735 0.919414 -0.497839
H24   H     H_    0.233321 0.952471 0.933210 0.418383
S9    S     S_3+6 0.711553 0.396618 0.668518 0.122254
O37   O     O_2   0.680888 0.325391 0.625101 -0.322372
O38   O     O_2   0.779395 0.472519 0.655187 -0.248697
O39   O     O_3   0.785889 0.325477 0.716629 -0.411780
H25   H     H_    0.851157 0.292459 0.705033 0.395683

loop_
_geom_bond_atom_site_label_1
_geom_bond_atom_site_label_2
_geom_bond_distance
_ccdc_geom_bond_type
S8    O36   1.682186 S    
C56   C57   1.399314 A    
C62   C63   1.386776 A    
C41   C53   1.391257 A    
C10   H1    1.083198 S    
N2    C27   1.366649 A    
C55   C66   1.388293 A    
C21   C22   1.396607 A    
C12   C15   1.406670 A    
C4    C17   1.459860 S    
C49   C50   1.413780 A    
S6    O30   1.682916 S    
S1    O14   1.501848 D    
C59   C60   1.423606 A    
C37   C40   1.388581 A    
C30   C31   1.394760 A    
Zn1   O7    2.015882 S    
H9    C53   1.079290 S    
S5    O25   1.501270 D    
H13   C66   1.081470 S    
C22   C23   1.425753 A    
S9    O38   1.503114 D    
O6    C3    1.308941 A    
O36   H24   0.990603 S    
O4    C2    1.312387 A    
C7    F2    1.357416 S    
C5    C13   1.400466 A    
Zn1   N3    2.063602 S    
S8    O34   1.503460 D    
C55   C62   1.415859 A    
C65   H15   1.077630 S    
C61   C65   1.404549 A    
S3    O19   1.502902 D    
C5    N1    1.367340 A    
C56   S6    1.794771 S    
C23   C27   1.414042 A    
N3    C66   1.351152 A    
Zn2   N4    2.051283 S    
S2    O16   1.502804 D    
S4    O24   1.681293 S    
O5    C3    1.312171 A    
C43   H12   1.083742 S    
C29   H3    1.083107 S    
C2    C16   1.462213 S    
C7    C8    1.402236 A    
S3    O20   1.503256 D    
C41   H10   1.079382 S    
O39   H25   0.990598 S    
S9    O39   1.682096 S    
C44   C45   1.403066 A    
Zn2   O8    1.996120 S    
C6    O11   1.350279 S    
C56   N4    1.397307 A    
C9    F1    1.358859 S    
C57   C58   1.367965 A    
C42   C53   1.395422 A    
C38   C39   1.386982 A    
C19   C38   1.411556 A    
O1    Zn1   1.952031 S    
C9    C10   1.383755 A    
C12   C34   1.409997 A    
C63   C64   1.385318 A    
C35   C40   1.416327 A    
O3    Zn1   1.996120 S    
C1    C54   1.458368 S    
S1    O13   1.503061 D    
C34   C35   1.419421 A    
C42   C52   1.384032 A    
C64   F7    1.328711 S    
C36   S8    1.777977 S    
C17   C29   1.401348 A    
C58   H16   1.078841 S    
C21   H5    1.075784 S    
C18   C21   1.400709 A    
C12   C13   1.405974 A    
C57   F6    1.355681 S    
C46   C48   1.413530 A    
C15   C37   1.397162 A    
C25   C26   1.391733 A    
C27   O10   1.345785 S    
C8    C16   1.420041 A    
S5    O27   1.681372 S    
C44   S3    1.767019 S    
C13   C14   1.398024 A    
C31   S1    1.767314 S    
C30   H7    1.082329 S    
C26   O12   1.350472 S    
O1    C1    1.302459 A    
C18   C20   1.408566 A    
C7    C11   1.400778 A    
C28   C29   1.385390 A    
C23   C24   1.420410 A    
C14   C36   1.395846 A    
H14   C63   1.080670 S    
C28   H4    1.083067 S    
C59   C61   1.419538 A    
O15   H17   0.991055 S    
C33   C36   1.426563 A    
C8    S9    1.778971 S    
N1    C6    1.367535 A    
N2    C32   1.426793 S    
C45   F5    1.356768 S    
N1    C11   1.428684 S    
C50   C51   1.403267 A    
S2    O18   1.682115 S    
S4    O22   1.499449 D    
N3    C65   1.343963 A    
O3    C2    1.311437 A    
C26   N2    1.361749 A    
C9    C16   1.407885 A    
O8    C4    1.313652 A    
C14   H2    1.083636 S    
C17   C30   1.401914 A    
C55   S5    1.776100 S    
S6    O28   1.496864 D    
O18   H18   0.990555 S    
S8    O35   1.503315 D    
C31   C32   1.409516 A    
S5    O26   1.503512 D    
C20   C24   1.411955 A    
Zn2   O6    1.952031 S    
O2    Zn2   1.920561 S    
C6    C15   1.397452 A    
C46   C47   1.401376 A    
S6    O29   1.495453 D    
S7    O33   1.683012 S    
O4    Zn2   2.015875 S    
O21   H19   0.990732 S    
O30   H22   0.990760 S    
S7    O32   1.503538 D    
C19   C35   1.414294 A    
C41   C49   1.411580 A    
S3    O21   1.682942 S    
C39   H8    1.083479 S    
C38   F3    1.357078 S    
O2    C1    1.317928 A    
O27   H21   0.989477 S    
C45   C46   1.426413 A    
O33   H23   0.990718 S    
C52   H11   1.077548 S    
C37   H6    1.083476 S    
C24   C25   1.410368 A    
C40   F4    1.356651 S    
C22   S7    1.779889 S    
C25   C39   1.399112 A    
C61   C62   1.416878 A    
O7    C4    1.310456 A    
C47   C54   1.402387 A    
C19   C20   1.416468 A    
S9    O37   1.503200 D    
C60   N4    1.395919 A    
C43   C44   1.390509 A    
S2    O17   1.503550 D    
C18   C33   1.415489 A    
S4    O23   1.501855 D    
C51   S4    1.779399 S    
S7    O31   1.502909 D    
C60   C64   1.421248 A    
Zn1   O5    1.920559 S    
C48   C49   1.427690 A    
C50   S2    1.781387 S    
C33   C34   1.417937 A    
C48   C52   1.393245 A    
C47   C51   1.410733 A    
C10   C11   1.392652 A    
C43   C54   1.399900 A    
C58   C59   1.394549 A    
C28   C32   1.397327 A    
S1    O15   1.680606 S    
C5    O9    1.349779 S    
O24   H20   0.991262 S    
C3    C42   1.454032 S    
