data_mof_unit_41806.cif
_audit_creation_date              2012-12-10T17:50:11-0500
_audit_creation_method            fapswitch 2.2
_symmetry_space_group_name_H-M    P1
_symmetry_Int_Tables_number       1
_space_group_crystal_system       triclinic
_cell_length_a                    10.622096
_cell_length_b                    14.701259
_cell_length_c                    14.723714
_cell_angle_alpha                 65.103601
_cell_angle_beta                  103.153606
_cell_angle_gamma                 102.78078
_cell_volume                      2010.26585276

loop_
_atom_site_label
_atom_site_type_symbol
_atom_type_description
_atom_site_fract_x
_atom_site_fract_y
_atom_site_fract_z
_atom_type_partial_charge
C1    C     C_R   0.476780 0.119724 0.312325 0.790291
C2    C     C_R   0.520624 0.880294 0.687677 0.789072
C3    C     C_R   0.472328 0.291867 0.178956 -0.255418
C4    C     C_R   0.503354 0.708025 0.821000 -0.251951
C5    C     C_R   0.451280 0.360123 0.077628 0.088342
C6    C     C_R   0.488634 0.639190 0.920150 0.088640
C7    C     C_R   0.420843 0.320592 0.001199 0.164632
C8    C     C_R   0.504077 0.678566 0.995553 0.161950
C9    C     C_R   0.463985 0.466518 0.050292 0.064642
C10   C     C_R   0.461230 0.532614 0.946499 0.065128
C11   C     C_R   0.428368 0.490010 0.872459 -0.223801
C12   C     C_R   0.477001 0.508865 0.122970 -0.223254
C13   C     C_R   0.407265 0.385972 0.899636 -0.229048
C14   C     C_R   0.495668 0.612908 0.095649 -0.228749
C15   C     C_R   0.726186 0.289252 0.660929 -0.323512
C16   C     C_R   0.275436 0.711646 0.337600 -0.326005
C17   C     C_R   0.688658 0.205743 0.634442 0.066414
C18   C     C_R   0.311968 0.794607 0.365003 0.066093
C19   C     C_R   0.516456 0.284065 0.510922 0.037116
C20   C     C_R   0.483907 0.716130 0.488698 0.036708
C21   C     C_R   0.549728 0.371820 0.534141 -0.027649
C22   C     C_R   0.451776 0.629002 0.464435 -0.027176
C23   C     C_R   0.259660 0.000646 0.499860 0.828790
C24   C     C_R   0.740349 0.999336 0.500170 0.829631
C25   C     C_R   0.657188 0.372373 0.611264 0.164787
C26   C     C_R   0.344830 0.628731 0.386871 0.164319
C27   C     C_R   0.481014 0.458087 0.484371 0.075405
C28   C     C_R   0.521045 0.543033 0.513693 0.073134
C29   C     C_R   0.628885 0.539123 0.591116 -0.233427
C30   C     C_R   0.373983 0.462425 0.406252 -0.238384
C31   C     C_R   0.695254 0.455613 0.638524 -0.203012
C32   C     C_R   0.307735 0.546008 0.358750 -0.209407
C33   C     C_3   0.015252 0.004460 0.409163 -0.305623
C34   C     C_3   0.984782 0.995498 0.590913 -0.306569
C35   C     C_3   0.959291 0.085179 0.424509 -0.310065
C36   C     C_3   0.040751 0.914781 0.575568 -0.310523
C37   C     C_3   0.876818 0.998736 0.500008 -0.107745
C38   C     C_3   0.123211 0.001225 0.500063 -0.107159
C39   C     C_3   0.932340 0.919501 0.484961 0.612043
C40   C     C_3   0.067696 0.080457 0.515116 0.612553
C41   C     C_R   0.457287 0.187388 0.204817 -0.049200
C42   C     C_R   0.522605 0.812642 0.794905 -0.050689
C43   C     C_R   0.405064 0.215738 0.027180 -0.200405
C44   C     C_R   0.527312 0.783593 0.969901 -0.200646
C45   C     C_R   0.422253 0.149409 0.128469 -0.196308
C46   C     C_R   0.535281 0.850339 0.869921 -0.194688
Cu1   Cu    Cu3+1 0.465750 0.918270 0.475680 0.947632
Cu2   Cu    Cu3+1 0.534250 0.081730 0.524320 0.947555
H1    H     H_    0.923072 0.154380 0.363857 0.151479
H2    H     H_    0.077017 0.845601 0.636228 0.151964
H3    H     H_    0.563730 0.723330 0.546205 0.138104
H4    H     H_    0.435988 0.276522 0.453967 0.138416
H5    H     H_    0.258732 0.858773 0.326899 0.121076
H6    H     H_    0.741776 0.141518 0.672674 0.121583
H7    H     H_    0.808672 0.288839 0.719970 0.137029
H8    H     H_    0.193452 0.712347 0.278124 0.137492
H9    H     H_    0.665177 0.599781 0.617127 0.146419
H10   H     H_    0.338568 0.402215 0.379504 0.144081
H11   H     H_    0.030834 0.007086 0.336005 0.149275
H12   H     H_    0.969213 0.992865 0.664077 0.148599
H13   H     H_    0.382159 0.356564 0.840516 0.147866
H14   H     H_    0.504767 0.642129 0.153652 0.152671
H15   H     H_    0.502016 0.682048 0.762485 0.148242
H16   H     H_    0.504373 0.318583 0.239321 0.151130
H17   H     H_    0.550092 0.931119 0.851271 0.157261
H18   H     H_    0.409601 0.068753 0.146882 0.155261
H19   H     H_    0.380256 0.185105 0.969025 0.135579
H20   H     H_    0.538018 0.814083 0.027101 0.136539
H21   H     H_    0.414087 0.534894 0.792236 0.144799
H22   H     H_    0.469019 0.463599 0.201586 0.143396
H23   H     H_    0.777529 0.456216 0.697509 0.143430
H24   H     H_    0.226178 0.545786 0.299153 0.144844
N1    N     N_R   0.585750 0.204560 0.560800 -0.179480
N2    N     N_R   0.414250 0.795440 0.439200 -0.179335
O1    O     O_R   0.454850 0.022100 0.338110 -0.589166
O2    O     O_R   0.545150 0.977900 0.661890 -0.589395
O3    O     O_R   0.512700 0.160150 0.379180 -0.595907
O4    O     O_R   0.487300 0.839850 0.620820 -0.595364
O5    O     O_R   0.287930 0.931000 0.479440 -0.600755
O6    O     O_R   0.712070 0.069000 0.520560 -0.600344
O7    O     O_R   0.345780 0.069050 0.520520 -0.543095
O8    O     O_R   0.654220 0.930950 0.479480 -0.542434
O9    O     O_3   0.851430 0.835776 0.469053 -0.573143
C47   C     C_3   0.929037 0.773945 0.461169 -0.321703
H25   H     H_    0.996232 0.741557 0.532935 0.161701
H26   H     H_    0.984917 0.815868 0.396606 0.158237
H27   H     H_    0.863821 0.709625 0.446784 0.192712
O10   O     O_3   0.148613 0.164196 0.530989 -0.572940
C48   C     C_3   0.071061 0.225838 0.539246 -0.322375
H28   H     H_    0.015739 0.183818 0.604124 0.157334
H29   H     H_    0.003358 0.258032 0.467732 0.162523
H30   H     H_    0.136271 0.290297 0.553366 0.191926

loop_
_geom_bond_atom_site_label_1
_geom_bond_atom_site_label_2
_ccdc_geom_bond_type
C25   C31   A    
C17   N1    A    
C26   C32   A    
C34   C37   S    
C1    O3    A    
Cu2   O2    S    
C47   H27   S    
Cu1   O5    S    
C36   H2    S    
C32   H24   S    
C3    H16   S    
C4    H15   S    
C33   C39   S    
C34   C40   S    
C28   C29   A    
C35   C37   S    
C47   H26   S    
C20   H3    S    
C15   C25   A    
C14   H14   S    
Cu2   O7    S    
C42   C46   A    
Cu1   O8    S    
C24   O8    A    
C12   H22   S    
C18   H5    S    
C19   H4    S    
C24   O6    A    
O9    C47   S    
C35   H1    S    
C7    C43   A    
C48   H29   S    
C9    C10   A    
C31   H23   S    
C21   C27   A    
C18   N2    A    
C38   C40   S    
C22   C28   A    
C27   C30   A    
C34   H12   S    
C44   C46   A    
C16   C26   A    
C37   C39   S    
C1    O1    A    
C19   N1    A    
C47   H25   S    
C46   H17   S    
C4    C6    A    
C5    C7    A    
C6    C8    A    
C15   H7    S    
Cu2   O3    S    
C16   H8    S    
C43   H19   S    
C5    C9    A    
C2    O4    A    
Cu1   Cu2   S    
C24   C37   S    
C20   N2    A    
C16   C18   A    
C48   H30   S    
C43   C45   A    
C1    C41   S    
C29   H9    S    
C44   H20   S    
C20   C22   A    
C45   H18   S    
C2    O2    A    
C15   C17   A    
C21   C25   A    
C3    C41   A    
C8    C14   A    
C23   O7    A    
C19   C21   A    
Cu2   N1    S    
C36   C39   S    
C8    C44   A    
Cu1   N2    S    
C12   C14   A    
C3    C5    A    
C6    C10   A    
C11   H21   S    
C23   C38   S    
C33   C38   S    
Cu2   O6    S    
C36   C38   S    
C35   C40   S    
C39   O9    S    
C29   C31   A    
C30   C32   A    
C11   C13   A    
C40   O10   S    
C4    C42   A    
C2    C42   S    
C30   H10   S    
C33   C35   S    
C34   C36   S    
C9    C12   A    
C10   C11   A    
Cu1   O1    S    
C7    C13   A    
C13   H13   S    
O10   C48   S    
C33   H11   S    
C22   C26   A    
C27   C28   A    
C41   C45   A    
Cu1   O4    S    
C23   O5    A    
C48   H28   S    
C17   H6    S    
