data_mof_unit_18373.cif
_audit_creation_date              2012-12-11T17:03:16-0500
_audit_creation_method            fapswitch 2.2
_symmetry_space_group_name_H-M    P1
_symmetry_Int_Tables_number       1
_space_group_crystal_system       triclinic
_cell_length_a                    16.660297
_cell_length_b                    7.084515
_cell_length_c                    15.260805
_cell_angle_alpha                 90.016213
_cell_angle_beta                  94.573387
_cell_angle_gamma                 90.063442
_cell_volume                      1795.49838976

loop_
_atom_site_label
_atom_site_type_symbol
_atom_type_description
_atom_site_fract_x
_atom_site_fract_y
_atom_site_fract_z
_atom_type_partial_charge
O1    O     O_R   0.413460 0.494300 0.415980 -0.540309
O2    O     O_R   0.586540 0.994300 0.584020 -0.545213
O3    O     O_R   0.577100 0.822370 0.413730 -0.538127
O4    O     O_R   0.422900 0.322370 0.586270 -0.539690
C1    C     C_R   0.603831 0.655360 0.393349 0.712835
C2    C     C_R   0.395950 0.155322 0.606378 0.715835
O5    O     O_R   0.413490 0.823910 0.405510 -0.542392
O6    O     O_R   0.586510 0.323910 0.594490 -0.533327
O7    O     O_R   0.421770 0.995890 0.575740 -0.532264
O8    O     O_R   0.578230 0.495890 0.424260 -0.528154
C3    C     C_R   0.385549 0.654855 0.383303 0.712334
C4    C     C_R   0.614793 0.155195 0.616272 0.722378
O9    O     O_3   0.502910 0.661350 0.555860 -0.375261
O10   O     O_3   0.497090 0.161350 0.444140 -0.371988
V1    V     V_3+5 0.499460 0.935550 0.489640 1.399856
V2    V     V_3+5 0.500540 0.435550 0.510360 1.411347
C5    C     C_R   0.740476 0.998357 0.684617 0.056518
C6    C     C_R   0.277737 0.474360 0.293368 0.045855
C7    C     C_R   0.684792 0.146869 0.682671 -0.176510
C8    C     C_R   0.320125 0.642665 0.311632 -0.155125
C9    C     C_R   0.699279 0.292402 0.744642 -0.217606
C10   C     C_R   0.300982 0.796783 0.255549 -0.278137
H1    H     H_    0.658466 0.411159 0.744799 0.141890
H2    H     H_    0.334342 0.927669 0.264348 0.144973
C11   C     C_R   0.762351 0.279375 0.812167 0.403989
C12   C     C_R   0.237416 0.786311 0.188059 0.394838
C13   C     C_R   0.816485 0.124529 0.815292 -0.190047
C14   C     C_R   0.188172 0.621763 0.178997 -0.179557
C15   C     C_R   0.804799 0.988142 0.749057 -0.026315
C16   C     C_R   0.213747 0.464692 0.229379 -0.010781
C17   C     C_3   0.796325 0.780009 0.758870 -0.327144
C18   C     C_3   0.167714 0.328694 0.280830 -0.349583
C19   C     C_3   0.726308 0.789836 0.688761 0.039182
C20   C     C_3   0.237749 0.338158 0.351565 0.045919
H3    H     H_    0.777437 0.743623 0.824810 0.183404
H4    H     H_    0.161663 0.188457 0.248486 0.191702
H5    H     H_    0.849865 0.702209 0.738915 0.190064
H6    H     H_    0.110304 0.389373 0.300615 0.170357
H7    H     H_    0.667108 0.750995 0.712632 0.128051
H8    H     H_    0.270845 0.202598 0.361650 0.133909
C21   C     C_1   0.165572 0.120798 0.830771 -0.190808
C22   C     C_1   0.834552 0.620664 0.169400 -0.199132
C23   C     C_1   0.218103 0.128761 0.779327 0.001305
C24   C     C_1   0.781937 0.628808 0.220730 0.006563
C25   C     C_1   0.280368 0.138243 0.719256 0.007844
C26   C     C_1   0.719562 0.638410 0.280658 0.002144
C27   C     C_1   0.333192 0.146167 0.668154 -0.187359
C28   C     C_1   0.666650 0.646345 0.331646 -0.187872
O11   O     O_R   0.921840 0.772560 0.075830 -0.537086
O12   O     O_R   0.078160 0.272560 0.924170 -0.537300
O13   O     O_R   0.086520 0.441250 0.094510 -0.543114
O14   O     O_R   0.913480 0.941250 0.905490 -0.545229
C29   C     C_R   0.115521 0.610528 0.115584 0.711112
C30   C     C_R   0.884722 0.110357 0.884147 0.717414
O15   O     O_R   0.922920 0.442940 0.086290 -0.534887
O16   O     O_R   0.077080 0.942940 0.913710 -0.535806
O17   O     O_R   0.913440 0.271120 0.915960 -0.510713
O18   O     O_R   0.086560 0.771120 0.084040 -0.509928
C31   C     C_R   0.896801 0.611554 0.107031 0.716004
C32   C     C_R   0.103271 0.111618 0.893057 0.716067
O19   O     O_3   0.997130 0.604020 0.944190 -0.369825
O20   O     O_3   0.002870 0.104020 0.055810 -0.368356
V3    V     V_3+5 0.000530 0.329760 0.010360 1.458082
V4    V     V_3+5 0.999470 0.829760 0.989640 1.455195
O21   O     O_3   0.768988 0.416882 0.876495 -0.574196
C33   C     C_3   0.712190 0.382626 0.938845 0.052769
H9    H     H_    0.741646 0.297915 0.993700 0.127134
H10   H     H_    0.657365 0.304790 0.911577 0.100813
C34   C     C_3   0.684908 0.571609 0.974469 -0.295419
H11   H     H_    0.738066 0.651360 0.003244 0.190116
H12   H     H_    0.655701 0.656378 0.919529 0.178251
C35   C     C_3   0.625301 0.543946 0.044335 -0.830977
H13   H     H_    0.569787 0.473420 0.015367 0.227134
H14   H     H_    0.608703 0.683331 0.070797 0.229649
H15   H     H_    0.652586 0.456607 0.099297 0.237006
O22   O     O_3   0.219746 0.944110 0.136807 -0.567693
C36   C     C_3   0.278427 0.967070 0.075467 0.069440
H16   H     H_    0.257270 0.893630 0.013442 0.122447
H17   H     H_    0.338882 0.909364 0.098324 0.104999
C37   C     C_3   0.288388 0.177444 0.057029 -0.284052
H18   H     H_    0.229808 0.237475 0.030642 0.199038
H19   H     H_    0.307620 0.251144 0.119449 0.195056
C38   C     C_3   0.351427 0.212095 0.991555 -0.862049
H20   H     H_    0.411570 0.164194 0.019519 0.229940
H21   H     H_    0.354689 0.365347 0.977026 0.230894
H22   H     H_    0.335357 0.135084 0.929294 0.239545
N1    N     N_3   0.743215 0.691753 0.607791 -0.637725
H23   H     H_    0.695297 0.717585 0.560982 0.238152
H24   H     H_    0.794945 0.747823 0.582920 0.234494
N2    N     N_3   0.214438 0.422135 0.433575 -0.648558
H25   H     H_    0.266086 0.434093 0.476803 0.231271
H26   H     H_    0.192004 0.558610 0.421999 0.240505

loop_
_geom_bond_atom_site_label_1
_geom_bond_atom_site_label_2
_ccdc_geom_bond_type
C33   H10   S    
N1    H23   S    
O15   C31   A    
C13   C15   A    
C5    C15   A    
O1    C3    A    
O2    C4    A    
C2    O7    A    
C13   C30   S    
C36   H16   S    
O5    C3    A    
C19   H7    S    
C22   C24   T    
C20   H8    S    
C18   H4    S    
C7    C9    A    
C37   C38   S    
C33   C34   S    
C34   H12   S    
O14   C30   A    
O15   V3    S    
C12   O22   S    
C17   C19   S    
C6    C16   A    
O10   V2    S    
C18   H6    S    
C6    C8    A    
C25   C27   T    
C33   H9    S    
O6    V2    S    
O11   V4    S    
O12   V3    S    
C21   C23   T    
C5    C19   S    
C35   H15   S    
C24   C26   S    
O17   V3    S    
C36   H17   S    
C9    H1    S    
O18   V4    S    
C1    C28   S    
C26   C28   T    
C3    C8    S    
C2    C27   S    
C11   O21   S    
O22   C36   S    
C35   H14   S    
O14   V4    S    
C35   H13   S    
O16   C32   A    
O13   C29   A    
C18   C20   S    
O4    V2    S    
O19   V4    S    
C20   N2    S    
O20   V3    S    
C23   C25   S    
N2    H26   S    
C38   H20   S    
O6    C4    A    
O16   V4    S    
O13   V3    S    
O1    V2    S    
C14   C29   S    
O2    V1    S    
C6    C20   S    
C37   H19   S    
C38   H21   S    
C8    C10   A    
O9    V1    S    
C10   H2    S    
O4    C2    A    
C34   C35   S    
O3    V1    S    
C36   C37   S    
C9    C11   A    
C21   C32   S    
C37   H18   S    
O3    C1    A    
C22   C31   S    
C29   O18   A    
C11   C13   A    
C12   C14   A    
O11   C31   A    
O12   C32   A    
C14   C16   A    
C19   N1    S    
C1    O8    A    
C15   C17   S    
O8    V2    S    
C16   C18   S    
N2    H25   S    
C4    C7    S    
O5    V1    S    
C5    C7    A    
C17   H3    S    
O7    V1    S    
C34   H11   S    
C17   H5    S    
C38   H22   S    
O21   C33   S    
C10   C12   A    
O9    V2    S    
N1    H24   S    
O10   V1    S    
C30   O17   A    
