data_mof_unit_54690.cif
_audit_creation_date              2012-12-11T16:22:08-0500
_audit_creation_method            fapswitch 2.2
_symmetry_space_group_name_H-M    P1
_symmetry_Int_Tables_number       1
_space_group_crystal_system       triclinic
_cell_length_a                    13.500173
_cell_length_b                    14.054386
_cell_length_c                    30.086023
_cell_angle_alpha                 97.949266
_cell_angle_beta                  90.17031
_cell_angle_gamma                 118.918661
_cell_volume                      4932.51916649

loop_
_atom_site_label
_atom_site_type_symbol
_atom_type_description
_atom_site_fract_x
_atom_site_fract_y
_atom_site_fract_z
_atom_type_partial_charge
C1    C     C_R   0.722493 0.099536 0.568702 0.543754
C2    C     C_1   0.382006 0.694825 0.770440 0.077662
C3    C     C_1   0.387882 0.705729 0.731628 0.135573
C4    C     C_R   0.385622 0.794263 0.552872 0.566102
C5    C     C_R   0.308335 0.606668 0.899391 0.032904
C6    C     C_3   0.230145 0.163352 0.722417 -0.098351
C7    C     C_3   0.221239 0.078255 0.751796 0.273543
C8    C     C_1   0.292707 0.200440 0.876011 0.024952
C9    C     C_1   0.365579 0.135883 0.614005 0.046104
C10   C     C_3   0.316874 0.257282 0.758955 -0.175723
C11   C     C_3   0.305539 0.170558 0.787798 0.058340
C12   C     C_R   0.381636 0.717308 0.685418 0.010731
C13   C     C_3   0.416473 0.249050 0.736528 -0.083981
C14   C     C_3   0.329629 0.154739 0.700797 -0.030705
C15   C     C_3   0.403635 0.162442 0.765847 0.250055
C16   C     C_R   0.397643 0.118556 0.569703 0.549403
C17   C     C_3   0.318998 0.067537 0.729653 -0.084056
C18   C     C_1   0.297465 0.182643 0.836213 0.032515
C19   C     C_1   0.346112 0.145960 0.652803 0.000085
C20   C     C_3   0.922587 0.257488 0.732548 0.172699
C21   C     C_3   0.832704 0.256748 0.764200 0.304189
C22   C     C_1   0.895561 0.202690 0.878095 0.045705
C23   C     C_R   0.299940 0.743123 0.671013 0.237245
C24   C     C_1   0.775942 0.132820 0.613259 0.042043
C25   C     C_3   0.937163 0.175619 0.758026 -0.148709
C26   C     C_3   0.846973 0.175932 0.789837 -0.013859
C27   C     C_3   0.840554 0.077677 0.726200 0.207459
C28   C     C_R   0.720670 0.095517 0.442901 0.562335
C29   C     C_3   0.827509 0.159675 0.700850 -0.028215
C30   C     C_3   0.751551 0.076991 0.758594 0.254239
C31   C     C_3   0.737613 0.157801 0.732825 0.259170
C32   C     C_1   0.867313 0.189168 0.838719 0.073691
C33   C     C_1   0.807082 0.149491 0.652339 0.059164
C34   C     C_R   0.296181 0.763748 0.627057 0.224768
C35   C     C_3   0.245326 0.588952 0.258913 -0.056481
C36   C     C_3   0.255058 0.673506 0.229066 0.220848
C37   C     C_1   0.308514 0.604934 0.111469 0.061431
C38   C     C_1   0.365088 0.734810 0.378326 0.023893
C39   C     C_3   0.329196 0.567509 0.230191 0.245962
C40   C     C_R   0.382003 0.784295 0.424428 0.549098
C41   C     C_3   0.337773 0.651383 0.200659 0.058130
C42   C     C_3   0.431579 0.659443 0.261351 -0.079749
C43   C     C_3   0.347649 0.681966 0.289317 -0.027670
C44   C     C_3   0.439575 0.744105 0.231292 -0.148412
C45   C     C_R   0.260214 0.658601 0.832312 -0.106713
C46   C     C_3   0.355990 0.767174 0.260094 -0.111231
C47   C     C_1   0.326546 0.631024 0.151579 0.066695
C48   C     C_1   0.355310 0.705436 0.338356 -0.021161
C49   C     C_R   0.355111 0.137769 0.401753 -0.019581
C50   C     C_R   0.426321 0.235107 0.383741 0.194262
C51   C     C_R   0.409885 0.239320 0.338627 -0.117509
C52   C     C_R   0.394989 0.115701 0.443364 0.575027
C53   C     C_R   0.321710 0.150639 0.311166 -0.042345
C54   C     C_R   0.240723 0.060436 0.329532 0.283389
C55   C     C_R   0.255360 0.055261 0.375296 0.198734
C56   C     C_R   0.233220 0.624834 0.874027 -0.154539
C57   C     C_R   0.242513 0.087690 0.147041 -0.127902
C58   C     C_R   0.232603 0.106516 0.103023 0.261899
C59   C     C_R   0.409730 0.280338 0.119803 -0.104229
C60   C     C_R   0.417528 0.261569 0.163648 0.282287
C61   C     C_R   0.330483 0.167524 0.177738 0.016468
C62   C     C_1   0.324325 0.157090 0.224357 0.081944
C63   C     C_1   0.319954 0.152273 0.263804 0.063646
C64   C     C_R   0.371748 0.753263 0.596405 -0.061859
C65   C     C_R   0.315025 0.206298 0.089826 -0.001932
C66   C     C_R   0.779744 0.131168 0.402186 0.023793
C67   C     C_R   0.415434 0.630067 0.883396 0.270799
C68   C     C_R   0.782358 0.050590 0.369464 -0.145648
C69   C     C_R   0.809916 0.071897 0.326158 -0.104007
C70   C     C_R   0.836483 0.174186 0.315117 -0.010012
C71   C     C_R   0.844389 0.258402 0.348074 -0.065230
C72   C     C_R   0.817109 0.238093 0.391785 0.237803
C73   C     C_R   0.924264 0.307630 0.170847 -0.132398
C74   C     C_R   0.946506 0.316286 0.126208 -0.151468
C75   C     C_R   0.828485 0.117734 0.105047 0.239719
C76   C     C_R   0.448395 0.720793 0.610931 -0.138214
C77   C     C_R   0.806095 0.109309 0.150367 0.275722
C78   C     C_R   0.442684 0.667372 0.841825 -0.071079
C79   C     C_R   0.857739 0.204450 0.183182 0.009659
C80   C     C_1   0.850653 0.196908 0.229998 0.064791
C81   C     C_1   0.845931 0.188739 0.269105 0.028616
C82   C     C_R   0.903389 0.221515 0.093271 -0.016943
C83   C     C_R   0.283454 0.232900 0.921963 0.545098
C84   C     C_R   0.267459 0.548391 0.938377 0.564339
C85   C     C_R   0.945319 0.221904 0.922792 0.552217
C86   C     C_R   0.292853 0.242745 0.048914 0.569053
C87   C     C_R   0.275252 0.558289 0.065187 0.558436
C88   C     C_R   0.454172 0.703568 0.655233 0.217269
C89   C     C_R   0.363380 0.676786 0.815821 0.003867
C90   C     C_R   0.953594 0.232979 0.049744 0.577174
C91   C     C_3   0.820476 0.412431 0.757082 -0.046402
C92   C     C_3   0.558808 0.046733 0.695294 -0.060594
C93   C     C_3   0.038826 0.002814 0.088329 -0.034801
C94   C     C_3   0.163799 0.894859 0.283972 -0.042716
C95   C     C_3   0.132087 0.659845 0.702363 -0.086130
C96   C     C_3   0.516645 0.538654 0.886026 -0.064549
C97   C     C_3   0.066247 0.911050 0.724490 -0.041390
Cl1   Cl    Cl    0.514923 0.164279 0.798614 -0.500734
Cl2   Cl    Cl    0.828720 0.348399 0.431502 -0.473436
Cl3   Cl    Cl    0.201256 0.811482 0.614283 -0.551102
Cl4   Cl    Cl    0.717770 0.979399 0.166291 -0.548760
Cl5   Cl    Cl    0.763143 0.998533 0.063650 -0.499142
Cl6   Cl    Cl    0.556174 0.669372 0.672446 -0.496589
Cl7   Cl    Cl    0.040328 0.371013 0.714422 -0.667539
Cl8   Cl    Cl    0.643670 0.958081 0.778047 -0.508772
Cl9   Cl    Cl    0.843873 0.958301 0.699529 -0.514153
Cl10  Cl    Cl    0.137145 0.679731 0.206006 -0.635369
Cl11  Cl    Cl    0.309374 0.433968 0.209763 -0.580400
Cl12  Cl    Cl    0.146122 0.944938 0.397894 -0.493292
Cl13  Cl    Cl    0.539349 0.355030 0.415047 -0.460290
Cl14  Cl    Cl    0.533484 0.360965 0.201000 -0.513043
Cr1   Cr    Cr6+3 0.583430 0.162610 0.509470 1.148831
Cr2   Cr    Cr6+3 0.584210 0.916680 0.495400 1.077230
Cr3   Cr    Cr6+3 0.332380 0.920740 0.495100 1.159236
Cr4   Cr    Cr6+3 0.086810 0.177030 0.983130 1.103137
Cr5   Cr    Cr6+3 0.337180 0.419300 0.994610 1.086694
Cr6   Cr    Cr6+3 0.084840 0.422330 0.995830 1.067883
H1    H     H_    0.150600 0.606841 0.885153 0.161271
H2    H     H_    0.518845 0.807541 0.219541 0.190637
H3    H     H_    0.503716 0.652409 0.275137 0.174325
H4    H     H_    0.179243 0.012767 0.157941 0.140407
H5    H     H_    0.474212 0.356604 0.110261 0.185361
H6    H     H_    0.468821 0.311160 0.324498 0.202920
H7    H     H_    0.004457 0.396856 0.118110 0.180108
H8    H     H_    0.963737 0.381100 0.196101 0.174292
H9    H     H_    0.867548 0.338531 0.339409 0.166290
H10   H     H_    0.755242 0.968163 0.376233 0.167036
H11   H     H_    0.804670 0.006670 0.300688 0.165415
H12   H     H_    0.158283 0.162707 0.704071 0.169312
H13   H     H_    0.507514 0.713383 0.588340 0.193925
H14   H     H_    0.523868 0.685295 0.829100 0.156374
H15   H     H_    0.755553 0.363264 0.728390 0.168528
H16   H     H_    0.904987 0.461337 0.744623 0.148625
H17   H     H_    0.796401 0.471609 0.775145 0.145732
H18   H     H_    0.506575 0.995227 0.719948 0.208335
H19   H     H_    0.599640 0.004204 0.675496 0.123720
H20   H     H_    0.500673 0.053256 0.671325 0.124220
H21   H     H_    0.973680 0.963044 0.059382 0.201860
H22   H     H_    0.036214 0.078102 0.104093 0.130769
H23   H     H_    0.319743 0.989889 0.717145 0.163460
H24   H     H_    0.015047 0.943176 0.112271 0.140633
H25   H     H_    0.188615 0.859011 0.309797 0.155681
H26   H     H_    0.229325 0.923357 0.259314 0.120652
H27   H     H_    0.083687 0.828237 0.265486 0.219762
H28   H     H_    0.151744 0.600293 0.715453 0.172282
H29   H     H_    0.084923 0.624027 0.668528 0.185368
H30   H     H_    0.075521 0.674581 0.725582 0.130385
H31   H     H_    0.437645 0.462838 0.870924 0.108425
H32   H     H_    0.576298 0.572043 0.859775 0.119343
H33   H     H_    0.558504 0.514294 0.910442 0.175307
H34   H     H_    0.497907 0.319119 0.729617 0.158596
H35   H     H_    0.115283 0.867691 0.715450 0.173381
H36   H     H_    0.054956 0.946380 0.695231 0.178939
H37   H     H_    0.980905 0.848976 0.732308 0.194416
H38   H     H_    0.316153 0.334899 0.771798 0.139404
H39   H     H_    0.198569 0.666210 0.812087 0.145909
H40   H     H_    0.019096 0.181711 0.768754 0.166052
H41   H     H_    0.165779 0.525287 0.270433 0.150134
H42   H     H_    0.366692 0.849760 0.273005 0.122546
O1    O     O_R   0.493980 0.188910 0.559650 -0.496657
O2    O     O_R   0.170560 0.527890 0.952050 -0.517147
O3    O     O_R   0.987620 0.318470 0.945550 -0.493836
O4    O     O_R   0.678640 0.153520 0.554450 -0.490286
O5    O     O_R   0.976400 0.159270 0.031530 -0.474008
O6    O     O_R   0.194000 0.188570 0.028560 -0.452498
O7    O     O_R   0.365260 0.335720 0.039020 -0.515501
O8    O     O_R   0.330440 0.515580 0.044910 -0.481489
O9    O     O_R   0.177310 0.536200 0.050190 -0.496989
O10   O     O_R   0.993870 0.326170 0.036530 -0.503237
O11   O     O_3   0.169610 0.339550 0.991190 -0.286371
O12   O     O_R   0.480180 0.824400 0.444640 -0.497213
O13   O     O_R   0.698130 0.004030 0.549500 -0.487222
O14   O     O_R   0.481060 0.827210 0.535360 -0.508889
O15   O     O_R   0.309260 0.811560 0.537660 -0.426445
O16   O     O_R   0.341620 0.023400 0.546290 -0.465388
O17   O     O_R   0.493030 0.185890 0.461780 -0.432226
O18   O     O_R   0.677760 0.150720 0.463730 -0.438894
O19   O     O_R   0.697180 0.001010 0.451640 -0.514101
O20   O     O_3   0.825409 0.347108 0.787631 -0.514498
O21   O     O_3   0.636236 0.153544 0.717606 -0.534006
O22   O     O_3   0.145389 0.027265 0.072183 -0.543891
O23   O     O_R   0.308310 0.808540 0.439800 -0.466931
O24   O     O_3   0.143982 0.980557 0.303514 -0.519710
O25   O     O_3   0.231707 0.760791 0.701551 -0.573418
O26   O     O_3   0.493902 0.619659 0.909207 -0.528960
O27   O     O_3   0.118779 0.991953 0.762893 -0.548244
O28   O     O_R   0.340740 0.020600 0.455570 -0.458562
O29   O     O_3   0.500010 0.000010 0.499990 -0.304033
O30   O     O_R   0.969650 0.150960 0.933380 -0.483503
O31   O     O_R   0.187740 0.180870 0.937580 -0.487271
O32   O     O_R   0.358510 0.327410 0.940870 -0.517356
O33   O     O_R   0.324180 0.507870 0.953930 -0.451748

loop_
_geom_bond_atom_site_label_1
_geom_bond_atom_site_label_2
_ccdc_geom_bond_type
C74   H7    S    
C21   C26   S    
C11   C18   S    
C26   C32   S    
C16   O1    A    
C8    C83   S    
C51   H6    S    
C73   C74   A    
C83   O31   A    
C66   C68   A    
C35   C36   S    
C86   O7    A    
C92   O21   S    
C5    C67   A    
C65   C86   S    
Cr2   O12   S    
C53   C54   A    
C7    C11   S    
C86   O6    A    
C12   C23   A    
C22   C32   T    
C58   O22   S    
C94   H26   S    
C83   O32   A    
C9    C16   S    
C69   C70   A    
C6    H12   S    
C30   C31   S    
C95   O25   S    
C27   C29   S    
C20   C25   S    
C46   H42   S    
Cr6   O9    S    
C85   O30   A    
C29   C33   S    
C50   Cl13  S    
Cr3   O29   S    
C22   C85   S    
Cr4   O5    S    
C70   C81   S    
C39   C42   S    
C93   H21   S    
C5    C56   A    
Cr4   O31   S    
C11   C15   S    
Cr6   O11   S    
C9    C19   T    
C87   O8    A    
C45   C56   A    
C68   C69   A    
C7    C17   S    
C95   H28   S    
C75   Cl5   S    
C34   Cl3   S    
C71   H9    S    
C36   C46   S    
C70   C71   A    
C3    C12   S    
C52   O28   A    
C97   H36   S    
C37   C47   T    
C35   C43   S    
C28   O18   A    
C76   C88   A    
C38   C48   T    
C23   C34   A    
C59   H5    S    
Cr2   O19   S    
Cr5   O33   S    
C59   C60   A    
C4    O15   A    
C13   C14   S    
C55   Cl12  S    
C27   C30   S    
C85   O3    A    
C14   C17   S    
Cr5   O7    S    
C36   C41   S    
C92   H19   S    
C67   C78   A    
C42   C44   S    
C74   C82   A    
Cr4   O11   S    
C92   H20   S    
C14   C19   S    
C44   C46   S    
Cr2   O13   S    
C40   O23   A    
C20   C29   S    
C77   C79   A    
C78   C89   A    
C41   C47   S    
C39   Cl11  S    
C96   H31   S    
C66   C72   A    
C12   C88   A    
C94   H25   S    
C95   H30   S    
C97   O27   S    
C13   H34   S    
C39   C41   S    
C7    O27   S    
C5    C84   S    
C91   H15   S    
C44   H2    S    
Cr6   O2    S    
C25   C26   S    
C49   C55   A    
Cr2   O29   S    
C8    C18   T    
Cr3   O28   S    
C91   O20   S    
C60   C61   A    
C51   C53   A    
C2    C89   S    
C28   C66   S    
C78   H14   S    
C6    C10   S    
C62   C63   T    
C93   H22   S    
C35   C39   S    
C6    C14   S    
C21   C31   S    
C58   C65   A    
C87   O9    A    
C91   H16   S    
C21   O20   S    
C49   C52   S    
C96   H33   S    
C34   C64   A    
C50   C51   A    
C64   C76   A    
Cr5   O11   S    
Cr5   O8    S    
C45   H39   S    
C97   H37   S    
C84   O33   A    
C75   C77   A    
C68   H10   S    
C16   O16   A    
Cr3   O16   S    
Cr1   O17   S    
Cr5   O32   S    
C26   C30   S    
C4    O14   A    
C13   C15   S    
C30   Cl8   S    
C25   H40   S    
C41   C44   S    
C92   H18   S    
Cr4   O6    S    
C42   C43   S    
C15   Cl1   S    
C88   Cl6   S    
C93   H24   S    
Cr2   O14   S    
C43   C48   S    
C15   C17   S    
Cr1   O4    S    
C52   O17   A    
C54   C55   A    
C45   C89   A    
Cr1   O1    S    
C56   H1    S    
C96   O26   S    
C37   C87   S    
C80   C81   T    
C73   C79   A    
C10   C13   S    
C10   H38   S    
Cr1   O29   S    
C75   C82   A    
C57   C61   A    
C6    C7    S    
C20   Cl7   S    
Cr6   O3    S    
C25   C27   S    
C4    C64   S    
C1    O13   A    
C24   C33   T    
C82   C90   S    
C31   O21   S    
C94   H27   S    
C2    C3    T    
C35   H41   S    
C71   C72   A    
C29   C31   S    
C60   Cl14  S    
Cr3   O23   S    
C59   C65   A    
C38   C40   S    
C53   C63   S    
C42   H3    S    
C57   C58   A    
C91   H17   S    
C73   H8    S    
C96   H32   S    
C90   O10   A    
C23   O25   S    
C97   H35   S    
C77   Cl4   S    
C27   Cl9   S    
C17   H23   S    
C93   O22   S    
C69   H11   S    
C61   C62   S    
C43   C46   S    
C10   C11   S    
C84   O2    A    
C57   H4    S    
C79   C80   S    
Cr4   O30   S    
Cr6   O10   S    
Cr3   O15   S    
C20   C21   S    
C1    O4    A    
C1    C24   S    
C49   C50   A    
C94   O24   S    
C90   O5    A    
C95   H29   S    
C54   O24   S    
C28   O19   A    
C40   O12   A    
C76   H13   S    
C67   O26   S    
Cr1   O18   S    
C36   Cl10  S    
C72   Cl2   S    
