data_mof_unit_64674.cif
_audit_creation_date              2012-12-10T17:52:52-0500
_audit_creation_method            fapswitch 2.2
_symmetry_space_group_name_H-M    P1
_symmetry_Int_Tables_number       1
_space_group_crystal_system       triclinic
_cell_length_a                    18.781607
_cell_length_b                    18.785513
_cell_length_c                    18.625452
_cell_angle_alpha                 109.374353
_cell_angle_beta                  109.364516
_cell_angle_gamma                 109.705296
_cell_volume                      5056.77237395

loop_
_atom_site_label
_atom_site_type_symbol
_atom_type_description
_atom_site_fract_x
_atom_site_fract_y
_atom_site_fract_z
_atom_type_partial_charge
C1    C     C_R   0.120654 0.120120 0.500346 0.963892
C2    C     C_R   0.321490 0.322688 0.580631 0.496772
C3    C     C_R   0.257474 0.259098 0.580860 0.560314
C4    C     C_R   0.121518 0.002059 0.620351 1.037859
C5    C     C_R   0.187521 0.186049 0.500877 -0.361285
C6    C     C_R   0.741114 0.920040 0.242613 -0.155186
C7    C     C_R   0.676382 0.920164 0.179599 -0.136736
C8    C     C_R   0.686207 0.999655 0.186338 -0.003221
C9    C     C_R   0.759513 0.079016 0.256217 -0.167077
C10   C     C_R   0.822903 0.078963 0.320581 -0.158596
C11   C     C_R   0.813737 0.999480 0.313104 -0.006723
C12   C     C_R   0.268654 0.021644 0.685032 -0.011756
C13   C     C_R   0.826504 0.750583 0.515634 -0.000368
C14   C     C_R   0.759870 0.686737 0.512455 -0.245139
C15   C     C_R   0.685622 0.691772 0.504726 -0.106822
C16   C     C_R   0.879598 0.880100 0.499809 0.914336
C17   C     C_R   0.675326 0.760999 0.498810 -0.012722
C18   C     C_R   0.735082 0.817279 0.486209 -0.053333
C19   C     C_R   0.812971 0.814944 0.500398 -0.143664
C20   C     C_R   0.501820 0.879777 0.881528 1.042663
C21   C     C_R   0.379752 0.996488 0.876085 1.077965
C22   C     C_R   0.498265 0.119920 0.118436 0.926800
C23   C     C_R   0.190977 0.006600 0.687097 -0.342557
C24   C     C_R   0.620172 0.999912 0.120263 0.836533
C25   C     C_R   0.500908 0.620758 0.620438 1.001640
C26   C     C_R   0.379933 0.379828 0.500165 1.025362
C27   C     C_R   0.499874 0.379884 0.379464 0.875434
C28   C     C_R   0.879715 0.999699 0.379546 0.820660
C29   C     C_R   0.619907 0.623086 0.502822 0.852448
C30   C     C_R   0.580877 0.827242 0.816782 0.487610
C31   C     C_R   0.580792 0.763282 0.752772 0.571219
C32   C     C_R   0.501890 0.686854 0.687040 -0.353397
C33   C     C_R   0.423460 0.672876 0.685219 -0.326063
C34   C     C_R   0.176005 0.988536 0.749041 0.590369
C35   C     C_R   0.423533 0.735417 0.750295 0.680841
C36   C     C_R   0.502184 0.813241 0.815556 -0.425286
C37   C     C_R   0.471585 0.243894 0.163606 -0.011611
C38   C     C_R   0.474230 0.308245 0.230153 -0.251653
C39   C     C_R   0.499319 0.313821 0.312228 -0.007343
C40   C     C_R   0.289724 0.053077 0.631446 -0.060845
C41   C     C_R   0.522438 0.255572 0.329317 -0.148511
C42   C     C_R   0.519941 0.191057 0.263868 -0.213941
C43   C     C_R   0.495510 0.185545 0.181920 -0.015949
C44   C     C_R   0.364406 0.062505 0.626599 -0.107643
C45   C     C_R   0.237757 0.983652 0.809173 0.567472
C46   C     C_R   0.414890 0.034054 0.668888 -0.203652
C47   C     C_R   0.393437 0.000057 0.720066 0.063943
C48   C     C_R   0.326247 0.004466 0.737728 0.031347
C49   C     C_2   0.908209 0.746633 0.535630 0.473847
C50   C     C_2   0.609311 0.779878 0.515705 0.517432
C51   C     C_2   0.713179 0.872502 0.450876 0.461033
C52   C     C_2   0.441389 0.239652 0.076952 0.432544
C53   C     C_2   0.428812 0.944502 0.736309 0.372996
C54   C     C_R   0.312948 0.991710 0.804588 -0.322923
C55   C     C_R   0.181140 0.176169 0.420908 -0.332499
C56   C     C_R   0.244076 0.240532 0.420474 0.605827
C57   C     C_R   0.314181 0.313529 0.500393 -0.421735
F1    F     F_    0.101288 0.975867 0.751290 -0.571533
F2    F     F_    0.264440 0.267741 0.658632 -0.604169
F3    F     F_    0.657532 0.901632 0.880679 -0.586201
F4    F     F_    0.656796 0.776353 0.753545 -0.597244
F5    F     F_    0.346701 0.721004 0.747995 -0.586756
F6    F     F_    0.224575 0.972564 0.873107 -0.574884
F7    F     F_    0.237750 0.230910 0.342657 -0.618887
F8    F     F_    0.389291 0.393913 0.658124 -0.596944
H1    H     H_    0.734042 0.858566 0.237420 0.151688
H2    H     H_    0.538273 0.146073 0.277384 0.147463
H3    H     H_    0.380291 0.087196 0.585813 0.152425
H4    H     H_    0.467363 0.033243 0.656922 0.149236
H5    H     H_    0.126817 0.119478 0.359128 0.221602
H6    H     H_    0.906547 0.685534 0.525067 0.054862
H7    H     H_    0.552594 0.730306 0.508245 0.072454
H8    H     H_    0.763574 0.932369 0.463749 0.070695
H9    H     H_    0.436805 0.294002 0.071728 0.075640
H10   H     H_    0.494319 0.960579 0.748196 0.085492
H11   H     H_    0.619629 0.858702 0.125119 0.157384
H12   H     H_    0.766786 0.140569 0.261496 0.151456
H13   H     H_    0.879465 0.140434 0.375300 0.154124
H14   H     H_    0.767082 0.633936 0.519114 0.152367
H15   H     H_    0.249506 0.071887 0.594221 0.130577
H16   H     H_    0.362683 0.613099 0.634179 0.215265
H17   H     H_    0.456401 0.354043 0.217992 0.153508
H18   H     H_    0.541388 0.259375 0.392709 0.161421
O1    O     O_R   0.091590 0.143330 0.551700 -0.572859
O2    O     O_R   0.551730 0.591680 0.643420 -0.561876
O3    O     O_R   0.356670 0.408480 0.448390 -0.581335
O4    O     O_R   0.091620 0.039900 0.448280 -0.640670
O5    O     O_R   0.460120 0.408460 0.551810 -0.591088
O6    O     O_R   0.448270 0.408490 0.356760 -0.602189
O7    O     O_R   0.551720 0.408480 0.460170 -0.642488
O8    O     O_R   0.539880 0.591710 0.448370 -0.655824
O9    O     O_R   0.643330 0.591700 0.551790 -0.594988
O10   O     O_R   0.091610 0.051730 0.643330 -0.565669
O11   O     O_R   0.091640 0.948310 0.539920 -0.608220
O12   O     O_R   0.551760 0.960180 0.908450 -0.599669
O13   O     O_R   0.908380 0.960100 0.551720 -0.613938
O14   O     O_R   0.908410 0.856670 0.448300 -0.604863
O15   O     O_R   0.908360 0.051690 0.460080 -0.636587
O16   O     O_R   0.908390 0.948270 0.356670 -0.620994
O17   O     O_R   0.448330 0.856720 0.908450 -0.576395
O18   O     O_2   0.978464 0.811281 0.567740 -0.525667
O19   O     O_2   0.620344 0.853673 0.543767 -0.515855
O20   O     O_2   0.637432 0.849030 0.402660 -0.529064
O21   O     O_2   0.418706 0.175474 0.010291 -0.560124
O22   O     O_2   0.382154 0.876388 0.729660 -0.552679
O23   O     O_R   0.356660 0.948290 0.908410 -0.541208
O24   O     O_R   0.460090 0.051750 0.908420 -0.633984
O25   O     O_R   0.448250 0.039900 0.091630 -0.606153
O26   O     O_R   0.551680 0.143360 0.091630 -0.615785
O27   O     O_R   0.539910 0.948330 0.091670 -0.636951
O28   O     O_R   0.643340 0.051790 0.091670 -0.610110
O29   O     O_R   0.448280 0.591700 0.540000 -0.645022
Zn1   Zn    Zn3+2 0.999980 0.069060 0.569050 1.077962
Zn2   Zn    Zn3+2 0.000020 0.930940 0.430950 1.018304
Zn3   Zn    Zn3+2 0.430940 0.930960 0.000040 1.104855
Zn4   Zn    Zn3+2 0.569060 0.069120 0.000040 1.042532
Zn5   Zn    Zn3+2 0.430920 0.500100 0.431040 1.031382
Zn6   Zn    Zn3+2 0.569080 0.500080 0.569140 1.065260

loop_
_geom_bond_atom_site_label_1
_geom_bond_atom_site_label_2
_ccdc_geom_bond_type
C1    O4    A    
C55   C56   A    
C37   C43   A    
O1    Zn1   S    
C41   C42   A    
C31   F4    S    
C35   C36   A    
C12   C48   A    
C2    F8    S    
C37   C52   S    
O16   Zn2   S    
C10   H13   S    
C2    C57   A    
C7    C8    A    
C39   C41   A    
C1    O1    A    
C48   C54   A    
C24   O28   A    
C12   C23   A    
C1    C5    S    
O7    Zn6   S    
O25   Zn3   S    
C52   H9    S    
C49   O18   D    
C30   C31   A    
C16   O14   A    
C51   O20   D    
C41   H18   S    
C56   C57   A    
C27   O7    A    
C18   C19   A    
C50   H7    S    
O4    Zn2   S    
O9    Zn6   S    
O26   Zn4   S    
C8    C24   S    
C22   C43   S    
C27   C39   S    
C8    C9    A    
C46   H4    S    
C30   F3    S    
C40   H15   S    
O28   Zn4   S    
C35   F5    S    
C9    C10   A    
C21   C54   S    
C21   O23   A    
C25   O29   A    
C47   C53   S    
C23   C34   A    
C25   C32   S    
C13   C14   A    
C38   H17   S    
C53   H10   S    
O17   Zn3   S    
C25   O2    A    
C44   C46   A    
C18   C51   S    
C15   C29   S    
C6    C7    A    
O11   Zn2   S    
C16   O13   A    
C13   C19   A    
C24   O27   A    
C6    C11   A    
C4    C23   S    
O15   Zn1   S    
O10   Zn1   S    
C45   F6    S    
C12   C40   A    
C37   C38   A    
C47   C48   A    
C20   O17   A    
C6    H1    S    
O12   Zn4   S    
C26   O3    A    
C22   O26   A    
C56   F7    S    
C17   C18   A    
C34   C45   A    
C9    H12   S    
C14   H14   S    
C21   O24   A    
C13   C49   S    
C28   O16   A    
C20   O12   A    
O6    Zn5   S    
O8    Zn5   S    
C50   O19   D    
C42   H2    S    
C4    O11   A    
O13   Zn1   S    
C44   H3    S    
C42   C43   A    
O5    Zn6   S    
C29   O8    A    
C28   O15   A    
C15   C17   A    
C46   C47   A    
C52   O21   D    
C5    C55   A    
C31   C32   A    
C51   H8    S    
C3    C5    A    
C17   C50   S    
C45   C54   A    
C7    H11   S    
O23   Zn3   S    
C30   C36   A    
O29   Zn5   S    
C32   C33   A    
C2    C3    A    
C38   C39   A    
C11   C28   S    
C16   C19   S    
C22   O25   A    
C33   C35   A    
C27   O6    A    
O3    Zn5   S    
O2    Zn6   S    
C26   C57   S    
O24   Zn4   S    
C55   H5    S    
C10   C11   A    
C4    O10   A    
C20   C36   S    
C53   O22   D    
C40   C44   A    
C26   O5    A    
C49   H6    S    
C34   F1    S    
C14   C15   A    
O14   Zn2   S    
C33   H16   S    
O27   Zn3   S    
C29   O9    A    
C3    F2    S    
