data_mof_unit_47787.cif
_audit_creation_date              2013-03-05T15:41:20-0500
_audit_creation_method            fapswitch 2.2
_symmetry_space_group_name_H-M    P1
_symmetry_Int_Tables_number       1
_space_group_crystal_system       triclinic
_cell_length_a                    14.702458
_cell_length_b                    16.361815
_cell_length_c                    6.936352
_cell_angle_alpha                 90.084925
_cell_angle_beta                  98.583874
_cell_angle_gamma                 89.858253
_cell_volume                      1649.90414299

loop_
_atom_site_label
_atom_site_type_symbol
_atom_site_description
_atom_site_fract_x
_atom_site_fract_y
_atom_site_fract_z
_atom_type_partial_charge
O1    O     O_R   0.584460 0.414130 0.534110 -0.565233
O2    O     O_R   0.584460 0.585870 0.534110 -0.564297
O3    O     O_R   0.595580 0.585780 0.208030 -0.567108
O4    O     O_R   0.595580 0.414220 0.208030 -0.570959
O5    O     O_R   0.415540 0.585790 0.977250 -0.509958
O6    O     O_R   0.415540 0.414210 0.977250 -0.553142
C1    C     C_R   0.620709 0.610823 0.385829 0.805263
C2    C     C_R   0.620787 0.389250 0.385696 0.798635
O7    O     O_3   0.440930 0.500000 0.319360 -0.255491
V1    V     V_3+5 0.510960 0.500000 0.068030 1.227336
O8    O     O_R   0.404420 0.414140 0.643900 -0.550453
O9    O     O_R   0.404420 0.585860 0.643900 -0.542836
C3    C     C_R   0.383654 0.385484 0.807512 0.872984
C4    C     C_R   0.383463 0.614499 0.807283 0.884506
V2    V     V_3+5 0.489040 0.500000 0.560660 1.239003
O10   O     O_3   0.559070 0.500000 0.859200 -0.301370
C5    C     C_2   0.313417 0.680219 0.800736 -0.119494
C6    C     C_2   0.314278 0.319562 0.801390 -0.177263
C7    C     C_2   0.312513 0.734818 0.947617 0.368903
C8    C     C_2   0.304848 0.271867 0.957608 0.343418
C9    C     C_2   0.200217 0.820591 0.101775 0.135019
C10   C     C_2   0.197438 0.180275 0.105211 0.168139
C11   C     C_2   0.236904 0.797401 0.939151 0.150666
C12   C     C_2   0.232953 0.206575 0.944273 0.218453
H1    H     H_    0.260605 0.682840 0.673928 0.139662
H2    H     H_    0.268499 0.311104 0.665723 0.159986
C13   C     C_2   0.807896 0.771964 0.341872 0.347490
C14   C     C_2   0.807853 0.227770 0.341413 0.345102
C15   C     C_2   0.814754 0.826831 0.491257 0.214101
C16   C     C_2   0.814790 0.173364 0.491384 0.215318
C17   C     C_2   0.724720 0.719852 0.295596 0.369778
C18   C     C_2   0.724755 0.280048 0.295114 0.372439
C19   C     C_2   0.701857 0.665817 0.428304 0.217482
C20   C     C_2   0.702100 0.334365 0.427808 0.222939
O11   O     O_R   0.925070 0.912130 0.373190 -0.559841
O12   O     O_R   0.925070 0.087870 0.373190 -0.559921
O13   O     O_R   0.914170 0.083600 0.699490 -0.559009
O14   O     O_R   0.914170 0.916400 0.699490 -0.559153
O15   O     O_R   0.094290 0.084740 0.929940 -0.537836
O16   O     O_R   0.094290 0.915260 0.929940 -0.535818
C21   C     C_R   0.891169 0.112844 0.524566 0.805235
C22   C     C_R   0.891163 0.887195 0.524420 0.804404
O17   O     O_3   0.068710 0.000000 0.587750 -0.191392
V3    V     V_3+5 0.998820 0.000000 0.839270 1.313224
O18   O     O_R   0.105520 0.913050 0.263180 -0.494461
O19   O     O_R   0.105520 0.086950 0.263180 -0.496055
C23   C     C_R   0.129133 0.886946 0.098682 0.846542
C24   C     C_R   0.128319 0.113227 0.098981 0.833038
V4    V     V_3+5 0.020980 0.000000 0.346670 1.381735
O20   O     O_3   0.950820 0.000000 0.048230 -0.297220
N1    N     N_R   0.207131 0.835290 0.754662 0.092517
O21   O     O_R   0.135325 0.807228 0.641782 -0.283780
O22   O     O_R   0.243187 0.904506 0.713773 -0.272211
N2    N     N_R   0.204587 0.169792 0.757592 0.079978
O23   O     O_R   0.243445 0.102286 0.712685 -0.266702
O24   O     O_R   0.130969 0.196204 0.647605 -0.285766
O25   O     O_3   0.385667 0.735652 0.098096 -0.658922
H3    H     H_    0.389138 0.790978 0.156681 0.343008
O26   O     O_3   0.367563 0.277195 0.125850 -0.643139
H4    H     H_    0.350158 0.326486 0.195470 0.345283
N3    N     N_R   0.228296 0.778715 0.281833 0.103901
O27   O     O_R   0.289771 0.811698 0.412684 -0.310182
O28   O     O_R   0.207138 0.702111 0.297543 -0.309710
N4    N     N_R   0.223494 0.220255 0.288216 0.101834
O29   O     O_R   0.187294 0.290728 0.319768 -0.330325
O30   O     O_R   0.293372 0.192968 0.408131 -0.275577
N5    N     N_R   0.880636 0.760987 0.225938 0.057160
O31   O     O_R   0.860798 0.744190 0.041065 -0.298535
O32   O     O_R   0.965256 0.752359 0.310698 -0.305516
N6    N     N_R   0.880557 0.238291 0.225405 0.056627
O33   O     O_R   0.860663 0.254436 0.040280 -0.300063
O34   O     O_R   0.965082 0.247273 0.310181 -0.299023
O35   O     O_3   0.744266 0.830555 0.603250 -0.672794
H5    H     H_    0.755398 0.876916 0.695690 0.330582
O36   O     O_3   0.744337 0.170169 0.603499 -0.670027
H6    H     H_    0.755602 0.124052 0.696423 0.331376
O37   O     O_3   0.673279 0.727884 0.113695 -0.677168
H7    H     H_    0.686226 0.678419 0.039516 0.333422
O38   O     O_3   0.673035 0.271749 0.113574 -0.672992
H8    H     H_    0.686000 0.320868 0.038720 0.333348
O39   O     O_3   0.758492 0.660487 0.606652 -0.673538
H9    H     H_    0.738420 0.614285 0.682206 0.319440
O40   O     O_3   0.759067 0.340027 0.605703 -0.674532
H10   H     H_    0.738867 0.386333 0.681359 0.319535

loop_
_geom_bond_atom_site_label_1
_geom_bond_atom_site_label_2
_geom_bond_distance
_ccdc_geom_bond_type
O16   C23   1.291686 A    
C10   C24   1.493420 S    
O36   H6    0.990546 S    
C15   C22   1.489338 S    
C13   C15   1.362444 D    
O1    C2    1.293278 A    
O35   H5    0.990538 S    
O2    C1    1.294045 A    
C6    H2    1.081069 S    
O4    C2    1.298987 A    
O39   H9    0.990784 S    
O37   H7    0.991598 S    
C7    O25   1.382509 S    
O19   V4    2.032318 S    
C3    C6    1.482550 S    
O14   C22   1.301484 A    
O3    C1    1.299461 A    
C15   O35   1.386011 S    
C12   N2    1.431986 S    
V2    O10   2.170660 S    
N3    O28   1.300793 A    
O11   C22   1.293716 A    
O8    V2    2.019957 S    
C8    C12   1.497749 S    
O11   V4    2.043900 S    
C17   C19   1.355813 D    
C16   C21   1.487471 S    
N6    O33   1.301050 A    
O1    V2    2.010639 S    
O7    V1    2.152918 S    
C9    N3    1.430725 S    
O26   H4    0.991889 S    
C1    C19   1.489788 S    
C4    C5    1.483111 S    
O12   C21   1.292994 A    
C17   O37   1.377094 S    
N2    O24   1.300942 A    
O18   C23   1.311841 A    
O19   C24   1.307870 A    
C13   C17   1.487496 S    
N5    O31   1.301044 A    
C14   C18   1.485256 S    
C18   O38   1.377129 S    
O17   V4    1.714194 S    
N1    O21   1.301152 A    
N1    O22   1.301079 A    
N4    O30   1.300160 A    
C7    C11   1.504247 S    
O17   V3    2.152847 S    
O14   V3    2.001069 S    
C11   N1    1.430841 S    
O40   H10   0.990896 S    
O9    V2    2.014477 S    
O18   V4    2.026804 S    
C2    C20   1.487349 S    
C8    O26   1.377882 S    
O2    V2    2.015864 S    
O5    C4    1.291339 A    
O9    C4    1.304145 A    
C9    C11   1.373571 D    
C10   C12   1.371322 D    
C20   O40   1.387167 S    
O4    V1    2.023727 S    
V3    O20   1.704171 S    
N2    O23   1.300910 A    
C14   N6    1.441462 S    
O6    V1    2.019502 S    
O15   V3    2.007898 S    
C5    H1    1.083739 S    
N4    O29   1.300658 A    
O13   V3    1.998822 S    
C14   C16   1.362197 D    
O7    V2    1.717069 S    
O5    V1    2.015970 S    
O3    V1    2.025997 S    
V1    O10   1.704226 S    
O6    C3    1.289012 A    
C16   O36   1.386109 S    
O8    C3    1.306405 A    
O25   H3    0.990014 S    
C5    C7    1.355540 D    
C6    C8    1.360242 D    
O13   C21   1.301508 A    
N3    O27   1.299233 A    
C13   N5    1.441531 S    
C10   N4    1.428151 S    
O38   H8    0.991652 S    
O16   V3    2.004388 S    
V4    O20   2.170682 S    
N6    O34   1.301629 A    
N5    O32   1.301712 A    
C19   O39   1.387014 S    
O12   V4    2.038601 S    
C18   C20   1.354820 D    
O15   C24   1.291049 A    
C9    C23   1.503064 S    
