data_mof_unit_33616.cif
_audit_creation_date              2012-12-10T19:41:37-0500
_audit_creation_method            fapswitch 2.2
_symmetry_space_group_name_H-M    P1
_symmetry_Int_Tables_number       1
_space_group_crystal_system       triclinic
_cell_length_a                    10.897743
_cell_length_b                    15.76738
_cell_length_c                    16.977612
_cell_angle_alpha                 95.487876
_cell_angle_beta                  90.585357
_cell_angle_gamma                 91.003655
_cell_volume                      2903.21956222

loop_
_atom_site_label
_atom_site_type_symbol
_atom_type_description
_atom_site_fract_x
_atom_site_fract_y
_atom_site_fract_z
_atom_type_partial_charge
C1    C     C_R   0.496557 0.490368 0.348269 0.824845
C2    C     C_R   0.502840 0.509717 0.651746 0.838384
C3    C     C_R   0.871354 0.495851 0.493855 -0.089341
C4    C     C_R   0.128226 0.502822 0.496163 -0.086565
C5    C     C_R   0.937748 0.419178 0.482852 0.025617
C6    C     C_R   0.061566 0.578926 0.503568 0.011890
C7    C     C_R   0.484894 0.487484 0.261847 -0.099407
C8    C     C_R   0.512285 0.513157 0.738291 -0.103228
C9    C     C_R   0.465953 0.563161 0.226390 -0.284034
C10   C     C_R   0.532622 0.438109 0.774436 -0.284179
C11   C     C_R   0.450896 0.561955 0.144538 0.435659
C12   C     C_R   0.545237 0.440106 0.856526 0.430285
C13   C     C_R   0.459715 0.483555 0.097134 0.288256
C14   C     C_R   0.532781 0.518536 0.903324 0.288755
C15   C     C_R   0.474366 0.407936 0.132775 -0.201464
C16   C     C_R   0.516144 0.593567 0.867071 -0.189713
C17   C     C_R   0.487015 0.409697 0.214581 -0.249069
C18   C     C_R   0.505770 0.591103 0.785105 -0.247127
C19   C     C_R   0.462160 0.752932 0.450976 0.073106
C20   C     C_R   0.548302 0.247219 0.544914 0.073391
C21   C     C_R   0.468485 0.842137 0.452708 -0.270189
C22   C     C_R   0.545420 0.157960 0.542453 -0.264022
C23   C     C_R   0.262001 0.501286 0.498943 0.804010
C24   C     C_R   0.737839 0.498373 0.497687 0.799617
C25   C     C_R   0.527434 0.890865 0.516614 0.380004
C26   C     C_R   0.478687 0.109097 0.481953 0.369514
C27   C     C_R   0.583490 0.847024 0.574929 -0.326282
C28   C     C_R   0.413961 0.152783 0.427056 -0.331394
C29   C     C_R   0.577081 0.757656 0.570201 0.028485
C30   C     C_R   0.417389 0.242206 0.432533 0.032897
C31   C     C_R   0.176792 0.794263 0.592730 0.116778
C32   C     C_R   0.767903 0.225440 0.381321 0.119470
C33   C     C_R   0.142148 0.707745 0.585084 -0.148845
C34   C     C_R   0.807435 0.310201 0.400707 -0.108627
C35   C     C_R   0.117323 0.665193 0.510409 0.091747
C36   C     C_R   0.881999 0.332232 0.467748 0.067963
C37   C     C_R   0.126007 0.709272 0.442902 -0.196190
C38   C     C_R   0.919322 0.267973 0.514214 -0.202605
C39   C     C_R   0.156801 0.796399 0.449116 0.100496
C40   C     C_R   0.885295 0.182551 0.493529 0.120916
C41   C     C_R   0.183306 0.838487 0.524729 -0.148404
C42   C     C_R   0.807954 0.161828 0.427611 -0.164944
C43   C     C_R   0.934624 0.574322 0.502915 -0.227566
C44   C     C_R   0.065274 0.424363 0.484645 -0.231093
Cu1   Cu    Cu3+1 0.493970 0.415220 0.496180 0.942813
Cu2   Cu    Cu3+1 0.506030 0.584780 0.503820 0.947322
H1    H     H_    0.208361 0.905424 0.531602 0.132721
H2    H     H_    0.782013 0.095847 0.411002 0.138420
H3    H     H_    0.499123 0.350428 0.240729 0.163993
H4    H     H_    0.491761 0.649988 0.758514 0.166238
H5    H     H_    0.601764 0.284072 0.590532 0.136958
H6    H     H_    0.414488 0.716365 0.402531 0.131428
H7    H     H_    0.595105 0.127976 0.587332 0.152384
H8    H     H_    0.427199 0.872301 0.404698 0.160504
H9    H     H_    0.630908 0.882011 0.624485 0.149197
H10   H     H_    0.361175 0.117626 0.379962 0.150372
H11   H     H_    0.621028 0.724878 0.615642 0.135440
H12   H     H_    0.366986 0.275025 0.389791 0.131324
H13   H     H_    0.130781 0.674083 0.637345 0.130192
H14   H     H_    0.781147 0.358903 0.363202 0.125601
H15   H     H_    0.103541 0.676262 0.385449 0.142973
H16   H     H_    0.980197 0.284235 0.564484 0.143650
H17   H     H_    0.885191 0.633652 0.510026 0.171022
H18   H     H_    0.115863 0.365677 0.475643 0.164718
H19   H     H_    0.540656 0.377910 0.738576 0.196755
H20   H     H_    0.460938 0.623331 0.262633 0.193503
H21   H     H_    0.478575 0.347604 0.096716 0.195428
H22   H     H_    0.508728 0.653957 0.902693 0.194544
N1    N     N_2   0.455433 0.478614 0.013763 -0.146983
N2    N     N_2   0.536431 0.524010 0.986697 -0.128811
N3    N     N_R   0.515100 0.712130 0.509560 -0.166850
N4    N     N_R   0.484900 0.287870 0.490440 -0.169882
N5    N     N_2   0.532873 0.982394 0.524847 -0.257700
N6    N     N_2   0.473841 0.017566 0.473714 -0.264611
O1    O     O_R   0.494360 0.420530 0.382500 -0.600015
O2    O     O_R   0.505640 0.579470 0.617500 -0.595580
O3    O     O_R   0.504550 0.563720 0.388950 -0.591443
O4    O     O_R   0.495450 0.436280 0.611050 -0.587131
O5    O     O_R   0.314550 0.428410 0.496780 -0.587676
O6    O     O_R   0.685450 0.571590 0.503220 -0.584720
O7    O     O_R   0.324740 0.571600 0.503230 -0.574694
O8    O     O_R   0.675260 0.428400 0.496770 -0.582171
C45   C     C_3   0.199817 0.840118 0.673830 -0.420298
C46   C     C_3   0.311693 0.804630 0.714349 -0.346230
C47   C     C_3   0.335951 0.851735 0.795880 -0.799185
H23   H     H_    0.355045 0.920407 0.790640 0.260625
H24   H     H_    0.255399 0.845047 0.834544 0.265980
H25   H     H_    0.416976 0.824271 0.823661 0.238812
H26   H     H_    0.296878 0.735847 0.721319 0.219966
H27   H     H_    0.393858 0.811560 0.677418 0.231835
H28   H     H_    0.215099 0.909480 0.669641 0.201686
H29   H     H_    0.116945 0.832802 0.710420 0.203103
C48   C     C_3   0.685520 0.202759 0.310293 -0.419147
C49   C     C_3   0.754263 0.211405 0.233031 -0.360162
C50   C     C_3   0.673080 0.183689 0.161060 -0.795118
H30   H     H_    0.645310 0.115571 0.161086 0.258495
H31   H     H_    0.589652 0.223100 0.161314 0.245535
H32   H     H_    0.724659 0.191745 0.106123 0.250024
H33   H     H_    0.784124 0.278764 0.229936 0.224339
H34   H     H_    0.837117 0.171111 0.231085 0.229606
H35   H     H_    0.649601 0.136284 0.310386 0.205583
H36   H     H_    0.605360 0.245417 0.313867 0.202323
C51   C     C_3   0.158203 0.840489 0.373455 -0.395503
C52   C     C_3   0.160877 0.938238 0.385281 -0.386885
C53   C     C_3   0.152116 0.976776 0.306386 -0.804225
H37   H     H_    0.231207 0.957016 0.268596 0.268546
H38   H     H_    0.065228 0.956004 0.274959 0.260951
H39   H     H_    0.153425 0.047380 0.317083 0.231025
H40   H     H_    0.081970 0.959875 0.422127 0.217725
H41   H     H_    0.247313 0.961841 0.415460 0.233028
H42   H     H_    0.238151 0.817857 0.337726 0.212606
H43   H     H_    0.073842 0.820213 0.338695 0.214533
C54   C     C_3   0.942068 0.113193 0.536506 -0.422308
C55   C     C_3   0.847026 0.064035 0.580959 -0.334626
C56   C     C_3   0.906465 0.991156 0.619598 -0.833254
H44   H     H_    0.946052 0.944773 0.573804 0.251678
H45   H     H_    0.980233 0.016083 0.661650 0.257044
H46   H     H_    0.836337 0.957569 0.652690 0.242789
H47   H     H_    0.804736 0.108043 0.627610 0.230665
H48   H     H_    0.774098 0.036832 0.539402 0.234479
H49   H     H_    0.988712 0.068884 0.492440 0.192148
H50   H     H_    0.013565 0.140407 0.579368 0.203398
S1    S     S_3+6 0.580434 0.344612 0.898268 0.005364
O9    O     O_2   0.463530 0.304854 0.924910 -0.294843
O10   O     O_2   0.640298 0.283310 0.837795 -0.296269
O11   O     O_3   0.676110 0.365673 0.976338 -0.520270
H51   H     H_    0.679929 0.311652 0.001540 0.365223
S2    S     S_3+6 0.417371 0.658489 0.104065 0.001107
O12   O     O_2   0.327891 0.641768 0.036134 -0.283217
O13   O     O_2   0.363097 0.720802 0.166146 -0.313629
O14   O     O_3   0.548208 0.700399 0.071585 -0.528689
H52   H     H_    0.522744 0.751529 0.046396 0.366608

loop_
_geom_bond_atom_site_label_1
_geom_bond_atom_site_label_2
_ccdc_geom_bond_type
C38   C40   A    
C48   C49   S    
C27   C29   A    
C1    O3    A    
N5    N6    D    
C19   N3    A    
C50   H30   S    
S2    O12   D    
Cu2   O2    S    
C55   C56   S    
C28   H10   S    
C50   H32   S    
C43   H17   S    
S1    O9    D    
C39   C41   A    
Cu1   Cu2   S    
C44   H18   S    
C45   H29   S    
C53   H38   S    
C3    C43   A    
O11   H51   S    
C35   C37   A    
C20   H5    S    
C21   H8    S    
C27   H9    S    
S1    O10   D    
Cu1   O8    S    
C56   H44   S    
C5    C36   S    
C31   C45   S    
C6    C35   S    
C51   H42   S    
C24   O8    A    
C9    H20   S    
C26   N6    S    
C19   H6    S    
C24   O6    A    
C54   H50   S    
C40   C54   S    
C56   H45   S    
C31   C33   A    
Cu1   O4    S    
C16   H22   S    
C23   O7    A    
C34   C36   A    
C55   H47   S    
C40   C42   A    
C32   C48   S    
C33   H13   S    
Cu1   N4    S    
C34   H14   S    
C14   N2    S    
C3    C24   S    
C49   C50   S    
C46   H27   S    
C52   C53   S    
C22   H7    S    
C47   H24   S    
C53   H39   S    
C29   H11   S    
C1    O1    A    
C46   C47   S    
C4    C6    A    
C47   H25   S    
C17   H3    S    
C4    C23   S    
S1    O11   S    
C4    C44   A    
C7    C17   A    
C47   H23   S    
C8    C18   A    
C51   H43   S    
C32   C34   A    
C2    O4    A    
Cu2   O7    S    
C30   N4    A    
C45   C46   S    
C49   H34   S    
C56   H46   S    
C15   H21   S    
C41   H1    S    
Cu1   O5    S    
C42   H2    S    
C9    C11   A    
Cu2   N3    S    
C10   C12   A    
C16   C18   A    
C5    C44   A    
C12   C14   A    
C6    C43   A    
C13   C15   A    
C14   C16   A    
C46   H26   S    
C48   H35   S    
O14   H52   S    
S2    O14   S    
C2    O2    A    
C18   H4    S    
C54   C55   S    
C10   H19   S    
C15   C17   A    
C21   C25   A    
C31   C41   A    
C19   C21   A    
C1    C7    S    
C2    C8    S    
C20   C22   A    
C3    C5    A    
S2    O13   D    
C48   H36   S    
Cu2   O3    S    
C37   H15   S    
C50   H31   S    
C39   C51   S    
C25   C27   A    
C45   H28   S    
C53   H37   S    
C26   C28   A    
Cu1   O1    S    
C28   C30   A    
C11   S2    S    
C37   C39   A    
C52   H41   S    
C11   C13   A    
C52   H40   S    
C12   S1    S    
C13   N1    S    
C49   H33   S    
C30   H12   S    
C36   C38   A    
C33   C35   A    
C25   N5    S    
N1    N2    D    
C29   N3    A    
C7    C9    A    
C54   H49   S    
C8    C10   A    
C22   C26   A    
C51   C52   S    
C32   C42   A    
C20   N4    A    
Cu2   O6    S    
C23   O5    A    
C55   H48   S    
C38   H16   S    
