data_mof_unit_17546.cif
_audit_creation_date              2012-12-10T17:58:20-0500
_audit_creation_method            fapswitch 2.2
_symmetry_space_group_name_H-M    P1
_symmetry_Int_Tables_number       1
_space_group_crystal_system       triclinic
_cell_length_a                    9.507265
_cell_length_b                    10.834546
_cell_length_c                    15.351144
_cell_angle_alpha                 89.787224
_cell_angle_beta                  75.401155
_cell_angle_gamma                 89.996661
_cell_volume                      1530.20996681

loop_
_atom_site_label
_atom_site_type_symbol
_atom_type_description
_atom_site_fract_x
_atom_site_fract_y
_atom_site_fract_z
_atom_type_partial_charge
C1    C     C_R   0.999943 0.262034 0.500056 0.782605
C2    C     C_R   0.000058 0.737966 0.499941 0.782404
C3    C     C_R   0.574622 0.562086 0.092281 -0.205164
C4    C     C_R   0.426239 0.434473 0.908275 -0.205348
C5    C     C_R   0.719472 0.579784 0.048624 -0.212216
C6    C     C_R   0.281486 0.416378 0.951960 -0.212305
C7    C     C_R   0.872297 0.063845 0.499681 -0.187719
C8    C     C_R   0.127707 0.936156 0.500308 -0.187729
C9    C     C_R   0.872346 0.936149 0.499599 -0.181316
C10   C     C_R   0.127658 0.063851 0.500390 -0.181065
C11   C     C_R   0.000042 0.871796 0.499934 -0.015835
C12   C     C_R   0.999962 0.128205 0.500058 -0.015871
C13   C     C_R   0.554039 0.415688 0.549976 -0.028282
C14   C     C_R   0.445968 0.584296 0.450008 -0.028381
C15   C     C_R   0.405235 0.415593 0.549818 0.035147
C16   C     C_R   0.594784 0.584367 0.450143 0.035712
C17   C     C_R   0.919730 0.500839 0.672904 0.804501
C18   C     C_R   0.080254 0.499004 0.327109 0.804182
C19   C     C_R   0.878023 0.507762 0.772635 -0.082295
C20   C     C_R   0.121936 0.491394 0.227427 -0.082028
C21   C     C_R   0.917872 0.571052 0.916125 -0.294774
C22   C     C_R   0.082869 0.425552 0.084311 -0.295291
C23   C     C_R   0.973872 0.546715 0.824713 0.008800
C24   C     C_R   0.026567 0.450593 0.175588 0.008140
C25   C     C_R   0.731724 0.485008 0.815948 -0.271969
C26   C     C_R   0.267978 0.514996 0.184030 -0.271143
C27   C     C_R   0.675096 0.505380 0.908741 0.096027
C28   C     C_R   0.325203 0.492831 0.091514 0.096026
C29   C     C_R   0.770812 0.551783 0.957920 0.143057
C30   C     C_R   0.229844 0.445264 0.042495 0.142962
C31   C     C_R   0.525841 0.484272 0.953499 0.058168
C32   C     C_R   0.474629 0.513445 0.046864 0.058077
Cu1   Cu    Cu3+1 0.140660 0.500020 0.500000 0.966921
Cu2   Cu    Cu3+1 0.859340 0.499980 0.500000 0.967008
H1    H     H_    0.792005 0.617192 0.086228 0.176748
H2    H     H_    0.209284 0.377959 0.914517 0.176418
H3    H     H_    0.335771 0.548129 0.225256 0.155994
H4    H     H_    0.663076 0.454350 0.774489 0.157048
H5    H     H_    0.990228 0.604637 0.955353 0.140936
H6    H     H_    0.010858 0.390848 0.045228 0.140920
H7    H     H_    0.545633 0.588467 0.161961 0.162490
H8    H     H_    0.455745 0.406764 0.838864 0.161683
H9    H     H_    0.772459 0.111876 0.499432 0.147155
H10   H     H_    0.227546 0.888125 0.500556 0.147085
H11   H     H_    0.772553 0.888114 0.499266 0.146609
H12   H     H_    0.227451 0.111887 0.500723 0.146672
H13   H     H_    0.593752 0.348286 0.590144 0.117966
H14   H     H_    0.406259 0.651685 0.409829 0.117758
H15   H     H_    0.332829 0.347957 0.589686 0.142559
H16   H     H_    0.667221 0.651935 0.410214 0.141225
N1    N     N_R   0.352080 0.500030 0.499980 -0.160906
N2    N     N_R   0.647920 0.499970 0.500020 -0.160635
O1    O     O_R   0.118740 0.319660 0.500000 -0.591698
O2    O     O_R   0.881260 0.680340 0.500000 -0.591892
O3    O     O_R   0.881170 0.319630 0.500010 -0.594048
O4    O     O_R   0.118830 0.680370 0.499990 -0.594190
O5    O     O_R   0.055570 0.500030 0.629830 -0.529390
O6    O     O_R   0.944430 0.499970 0.370170 -0.529014
O7    O     O_R   0.818000 0.500000 0.629840 -0.589986
O8    O     O_R   0.182000 0.500000 0.370160 -0.589700
C33   C     C_2   0.869036 0.429398 0.212100 0.355484
H17   H     H_    0.820157 0.344875 0.195768 0.065355
O9    O     O_2   0.790682 0.509868 0.253789 -0.560172
C34   C     C_2   0.131671 0.566532 0.788354 0.356060
H18   H     H_    0.181652 0.650317 0.804983 0.065264
O10   O     O_2   0.208957 0.485602 0.746456 -0.560803

loop_
_geom_bond_atom_site_label_1
_geom_bond_atom_site_label_2
_ccdc_geom_bond_type
C21   C29   A    
C10   H12   S    
C19   C23   A    
C26   H3    S    
C9    H11   S    
C24   C33   S    
C15   N1    A    
C25   H4    S    
Cu1   N1    S    
C13   N2    A    
Cu1   O5    S    
Cu2   N2    S    
C31   C32   A    
C21   H5    S    
C13   C15   A    
C3    C5    A    
C22   H6    S    
C34   H18   S    
C33   H17   S    
Cu1   O4    S    
C28   C30   A    
Cu1   Cu2   S    
C1    O3    A    
Cu2   O3    S    
C2    O4    A    
C20   C24   A    
C9    C11   A    
C17   O5    A    
C7    C12   A    
C1    C12   S    
C4    H8    S    
C17   O7    A    
C8    C11   A    
C2    C11   S    
C5    H1    S    
C22   C24   A    
C4    C6    A    
C13   H13   S    
C17   C19   S    
C6    H2    S    
Cu2   O2    S    
Cu1   O8    S    
C18   C20   S    
C15   H15   S    
C21   C23   A    
Cu1   O1    S    
C3    C32   A    
C19   C25   A    
C14   C16   A    
C4    C31   A    
C27   C29   A    
C27   C31   A    
C5    C29   A    
C7    C9    A    
C28   C32   A    
C14   N1    A    
C8    C10   A    
C2    O2    A    
C18   O8    A    
C7    H9    S    
Cu2   O6    S    
C1    O1    A    
C23   C34   S    
C14   H14   S    
C22   C30   A    
C6    C30   A    
C10   C12   A    
Cu2   O7    S    
C26   C28   A    
C18   O6    A    
C33   O9    D    
C3    H7    S    
C16   N2    A    
C8    H10   S    
C16   H16   S    
C20   C26   A    
C25   C27   A    
C34   O10   D    
