data_mof_unit_15395.cif
_audit_creation_date              2013-03-05T15:41:01-0500
_audit_creation_method            fapswitch 2.2
_symmetry_space_group_name_H-M    P1
_symmetry_Int_Tables_number       1
_space_group_crystal_system       triclinic
_cell_length_a                    27.945942
_cell_length_b                    18.42737
_cell_length_c                    17.02575
_cell_angle_alpha                 89.838202
_cell_angle_beta                  61.466364
_cell_angle_gamma                 89.699178
_cell_volume                      7702.68833038

loop_
_atom_site_label
_atom_site_type_symbol
_atom_site_description
_atom_site_fract_x
_atom_site_fract_y
_atom_site_fract_z
_atom_type_partial_charge
O1    O     O_R   0.746490 0.236330 0.638080 -0.615174
O2    O     O_R   0.253510 0.763670 0.361920 -0.606766
O3    O     O_R   0.253510 0.236330 0.361920 -0.613360
O4    O     O_R   0.746490 0.763670 0.638080 -0.610304
O5    O     O_R   0.246490 0.736330 0.638080 -0.634860
O6    O     O_R   0.753510 0.263670 0.361920 -0.611194
O7    O     O_R   0.753510 0.736330 0.361920 -0.612386
O8    O     O_R   0.246490 0.263670 0.638080 -0.608072
O9    O     O_R   0.674170 0.186160 0.516270 -0.613018
O10   O     O_R   0.325830 0.813840 0.483730 -0.649166
O11   O     O_R   0.325830 0.186160 0.483730 -0.610056
O12   O     O_R   0.674170 0.813840 0.516270 -0.646650
O13   O     O_R   0.174170 0.686160 0.516270 -0.611596
O14   O     O_R   0.825830 0.313840 0.483730 -0.658038
O15   O     O_R   0.825830 0.686160 0.483730 -0.610932
O16   O     O_R   0.174170 0.313840 0.516270 -0.655894
O17   O     O_R   0.739960 0.127620 0.525000 -0.552559
O18   O     O_R   0.260040 0.872380 0.475000 -0.563318
O19   O     O_R   0.260040 0.127620 0.475000 -0.554245
O20   O     O_R   0.739960 0.872380 0.525000 -0.552966
O21   O     O_R   0.239960 0.627620 0.525000 -0.551485
O22   O     O_R   0.760040 0.372380 0.475000 -0.554477
O23   O     O_R   0.760040 0.627620 0.475000 -0.551288
O24   O     O_R   0.239960 0.372380 0.525000 -0.554052
O25   O     O_R   0.680700 0.294870 0.629350 -0.574592
O26   O     O_R   0.319300 0.705130 0.370650 -0.562924
O27   O     O_R   0.319300 0.294870 0.370650 -0.570293
O28   O     O_R   0.680700 0.705130 0.629350 -0.578951
O29   O     O_R   0.180700 0.794870 0.629350 -0.578510
O30   O     O_R   0.819300 0.205130 0.370650 -0.575873
O31   O     O_R   0.819300 0.794870 0.370650 -0.571383
O32   O     O_R   0.180700 0.205130 0.629350 -0.578900
C1    C     C_R   0.700248 0.264978 0.677199 0.909264
C2    C     C_R   0.294872 0.724035 0.325929 0.969408
C3    C     C_R   0.299703 0.265014 0.322943 0.911168
C4    C     C_R   0.705066 0.724255 0.674133 0.942092
C5    C     C_R   0.200275 0.765058 0.677212 0.890622
C6    C     C_R   0.795047 0.224290 0.325733 0.952441
C7    C     C_R   0.799669 0.765165 0.322912 0.909977
C8    C     C_R   0.205020 0.224353 0.674189 0.943595
C9    C     C_R   0.690607 0.130016 0.539025 0.956587
C10   C     C_R   0.304871 0.872212 0.478246 0.927969
C11   C     C_R   0.309464 0.129669 0.463333 0.948561
C12   C     C_R   0.690296 0.870007 0.539171 0.903757
C13   C     C_R   0.190498 0.629680 0.538183 0.957714
C14   C     C_R   0.809360 0.370355 0.462903 0.916051
C15   C     C_R   0.809549 0.629768 0.461721 0.951061
C16   C     C_R   0.190504 0.370171 0.537771 0.910647
Zn1   Zn    Zn3+2 0.792340 0.208750 0.507670 1.158228
Zn2   Zn    Zn3+2 0.207660 0.791250 0.492330 1.165027
Zn3   Zn    Zn3+2 0.207660 0.208750 0.492330 1.152725
Zn4   Zn    Zn3+2 0.792340 0.791250 0.507670 1.173510
Zn5   Zn    Zn3+2 0.292340 0.708750 0.507670 1.159025
Zn6   Zn    Zn3+2 0.707660 0.291250 0.492330 1.167919
Zn7   Zn    Zn3+2 0.707660 0.708750 0.492330 1.164076
Zn8   Zn    Zn3+2 0.292340 0.291250 0.507670 1.176861
H1    H     H_    0.031351 0.251134 0.534773 0.175932
H2    H     H_    0.968538 0.748545 0.466698 0.181161
H3    H     H_    0.966648 0.250794 0.475875 0.175016
H4    H     H_    0.031943 0.748913 0.528222 0.180841
H5    H     H_    0.502009 0.759448 0.618212 0.199295
H6    H     H_    0.473858 0.246838 0.461723 0.183735
H7    H     H_    0.418561 0.763795 0.604145 0.188250
H8    H     H_    0.537328 0.249882 0.523387 0.180577
C17   C     C_R   0.536715 0.133441 0.542316 0.105489
C18   C     C_R   0.427382 0.876897 0.564707 0.069063
C19   C     C_R   0.460273 0.130906 0.479845 0.103908
C20   C     C_R   0.521824 0.872632 0.584265 0.063347
C21   C     C_R   0.037600 0.631741 0.531970 0.104077
C22   C     C_R   0.961368 0.367991 0.471582 0.075798
C23   C     C_R   0.962443 0.631375 0.466378 0.105502
C24   C     C_R   0.037243 0.368331 0.535263 0.076230
C25   C     C_R   0.520253 0.198410 0.518815 -0.055542
C26   C     C_R   0.442567 0.812615 0.591798 -0.071987
C27   C     C_R   0.484321 0.196650 0.483325 -0.067957
C28   C     C_R   0.490131 0.810078 0.599787 -0.092135
C29   C     C_R   0.018032 0.697462 0.516106 -0.062192
C30   C     C_R   0.980839 0.302232 0.487457 -0.102156
C31   C     C_R   0.982232 0.697249 0.480368 -0.060726
C32   C     C_R   0.017378 0.302429 0.521634 -0.101239
C33   C     C_R   0.473394 0.067001 0.510612 0.029505
C34   C     C_R   0.505016 0.937699 0.561401 0.040710
C35   C     C_R   0.514392 0.067547 0.535826 0.028606
C36   C     C_R   0.459476 0.938888 0.547060 0.039646
C37   C     C_R   0.980268 0.565648 0.485358 0.030674
C38   C     C_R   0.019082 0.434154 0.517097 0.040945
C39   C     C_R   0.019378 0.565809 0.515169 0.029822
C40   C     C_R   0.979786 0.434000 0.487797 0.041250
C41   C     C_R   0.959721 0.499760 0.472984 -0.008616
C42   C     C_R   0.039598 0.500068 0.529571 -0.008862
C43   C     C_R   0.445470 0.002631 0.516820 -0.006317
C44   C     C_R   0.532603 0.002227 0.555656 -0.007537
C45   C     C_R   0.894598 0.433400 0.443381 0.019396
C46   C     C_R   0.105079 0.566324 0.558772 0.030746
C47   C     C_R   0.104731 0.433855 0.560090 0.017684
C48   C     C_R   0.894948 0.565849 0.441034 0.029849
C49   C     C_R   0.371326 0.939494 0.509902 0.023479
C50   C     C_R   0.604033 0.067508 0.568105 0.021454
C51   C     C_R   0.601914 0.934822 0.574282 0.020863
C52   C     C_R   0.389884 0.065824 0.462258 0.044893
C53   C     C_R   0.845033 0.434286 0.438314 -0.203935
C54   C     C_R   0.155128 0.565291 0.562846 -0.200825
C55   C     C_R   0.154674 0.434346 0.563535 -0.202840
C56   C     C_R   0.845016 0.565180 0.436889 -0.199399
C57   C     C_R   0.333136 0.937863 0.476579 -0.206956
C58   C     C_R   0.655531 0.065832 0.566269 -0.198153
C59   C     C_R   0.654562 0.934659 0.567972 -0.209426
C60   C     C_R   0.343628 0.065105 0.447717 -0.195156
C61   C     C_R   0.824556 0.499438 0.424526 0.218344
C62   C     C_R   0.175510 0.499371 0.575972 0.218140
C63   C     C_R   0.322696 0.999576 0.439681 0.205816
C64   C     C_R   0.677008 0.999723 0.576739 0.226996
C65   C     C_R   0.916819 0.499664 0.451167 0.071022
C66   C     C_R   0.082715 0.500127 0.550853 0.070153
C67   C     C_R   0.402737 0.002352 0.495059 0.085531
C68   C     C_R   0.579282 0.001504 0.567142 0.072582
C69   C     C_R   0.076309 0.369290 0.563940 -0.147623
C70   C     C_R   0.923605 0.630349 0.436957 -0.066334
C71   C     C_R   0.922660 0.368643 0.442106 -0.148384
C72   C     C_R   0.076591 0.631023 0.561130 -0.063517
C73   C     C_R   0.570231 0.871279 0.590038 -0.149001
C74   C     C_R   0.422163 0.128364 0.448864 -0.067062
C75   C     C_R   0.380758 0.880157 0.554686 -0.168011
C76   C     C_R   0.576258 0.132848 0.569776 -0.069501
H9    H     H_    0.083761 0.318958 0.588965 0.197041
H10   H     H_    0.916335 0.680643 0.411638 0.191168
H11   H     H_    0.915676 0.317925 0.417811 0.197554
H12   H     H_    0.083934 0.681716 0.585027 0.191520
H13   H     H_    0.581500 0.821088 0.610062 0.192601
H14   H     H_    0.417983 0.175866 0.415176 0.188522
H15   H     H_    0.352700 0.835763 0.583319 0.177165
H16   H     H_    0.584839 0.184121 0.590711 0.192997
C77   C     C_R   0.709592 0.246962 0.963439 0.009434
C78   C     C_R   0.270352 0.715560 0.053777 0.007996
C79   C     C_R   0.289749 0.248559 0.037355 0.009279
C80   C     C_R   0.729134 0.716186 0.947054 0.012370
C81   C     C_R   0.209135 0.746577 0.963990 0.009652
C82   C     C_R   0.771014 0.216230 0.052916 0.011531
C83   C     C_R   0.790236 0.747888 0.036740 0.009709
C84   C     C_R   0.228574 0.217266 0.947697 0.010946
C85   C     C_R   0.761646 0.214713 0.917139 0.038089
C86   C     C_R   0.214914 0.737998 0.103692 0.026128
C87   C     C_R   0.237982 0.215932 0.083497 0.038362
C88   C     C_R   0.784305 0.739309 0.897171 0.025643
C89   C     C_R   0.261219 0.714495 0.917817 0.045629
C90   C     C_R   0.715512 0.238449 0.103007 0.025900
C91   C     C_R   0.738605 0.714924 0.082831 0.037060
C92   C     C_R   0.283688 0.240592 0.897970 0.025246
C93   C     C_R   0.795197 0.208202 0.958765 -0.038081
C94   C     C_R   0.183871 0.755293 0.058330 -0.030622
C95   C     C_R   0.204508 0.208873 0.041738 -0.037581
C96   C     C_R   0.815235 0.756964 0.942478 -0.029184
C97   C     C_R   0.294564 0.707752 0.959736 -0.038076
C98   C     C_R   0.684415 0.255753 0.057764 -0.029559
C99   C     C_R   0.705125 0.707774 0.041112 -0.037358
C100  C     C_R   0.314708 0.257742 0.943166 -0.028841
C101  C     C_R   0.632785 0.306136 0.957011 -0.008279
C102  C     C_R   0.356683 0.678736 0.049365 -0.008463
C103  C     C_R   0.366471 0.307441 0.043609 -0.006131
C104  C     C_R   0.643266 0.678267 0.950952 -0.007721
C105  C     C_R   0.132469 0.805833 0.957293 -0.008734
C106  C     C_R   0.857299 0.179507 0.048674 -0.008545
C107  C     C_R   0.866688 0.807334 0.043307 -0.006420
C108  C     C_R   0.142920 0.178816 0.951255 -0.007191
C109  C     C_R   0.609248 0.334805 0.905363 -0.219773
C110  C     C_R   0.385958 0.659338 0.095907 -0.190946
C111  C     C_R   0.390168 0.335599 0.095153 -0.219716
C112  C     C_R   0.614193 0.658869 0.904025 -0.191258
C113  C     C_R   0.109092 0.834669 0.905501 -0.221298
C114  C     C_R   0.886455 0.159954 0.095412 -0.191164
C115  C     C_R   0.890275 0.835594 0.095000 -0.219553
C116  C     C_R   0.114039 0.159056 0.904129 -0.191704
C117  C     C_R   0.626328 0.309599 0.818923 0.226930
C118  C     C_R   0.367954 0.682869 0.182278 0.223247
C119  C     C_R   0.373274 0.309975 0.181407 0.224998
C120  C     C_R   0.632136 0.682761 0.817713 0.228617
C121  C     C_R   0.126305 0.809636 0.818952 0.225880
C122  C     C_R   0.868400 0.183517 0.181840 0.227444
C123  C     C_R   0.873285 0.810147 0.181356 0.225579
C124  C     C_R   0.132059 0.182788 0.817724 0.226041
C125  C     C_R   0.674270 0.269271 0.775877 -0.179387
C126  C     C_R   0.313475 0.702779 0.233040 -0.207643
C127  C     C_R   0.325604 0.269505 0.224322 -0.179324
C128  C     C_R   0.686444 0.703019 0.767215 -0.199833
C129  C     C_R   0.174281 0.769365 0.775916 -0.175379
C130  C     C_R   0.813889 0.203291 0.232578 -0.201532
C131  C     C_R   0.825620 0.769735 0.224224 -0.177847
C132  C     C_R   0.186305 0.203373 0.767398 -0.201443
C133  C     C_R   0.700386 0.242549 0.826009 -0.056181
C134  C     C_R   0.278472 0.705836 0.192154 -0.063835
C135  C     C_R   0.299474 0.243165 0.174317 -0.056868
C136  C     C_R   0.721263 0.706242 0.808414 -0.064387
C137  C     C_R   0.200321 0.742582 0.826159 -0.058978
C138  C     C_R   0.779018 0.206300 0.191472 -0.064692
C139  C     C_R   0.799686 0.743187 0.174017 -0.056389
C140  C     C_R   0.220953 0.207175 0.808876 -0.064459
C141  C     C_R   0.681326 0.266106 0.915011 0.038913
C142  C     C_R   0.302017 0.701330 0.098209 0.039911
C143  C     C_R   0.318115 0.267362 0.085621 0.038755
C144  C     C_R   0.697662 0.701555 0.902409 0.037549
C145  C     C_R   0.181028 0.765854 0.915356 0.039058
C146  C     C_R   0.802652 0.202076 0.097430 0.038579
C147  C     C_R   0.818410 0.767143 0.085201 0.038548
C148  C     C_R   0.197238 0.202426 0.902884 0.037372
C149  C     C_R   0.605581 0.308059 0.050858 -0.175225
C150  C     C_R   0.381299 0.679004 0.955671 -0.180473
C151  C     C_R   0.393457 0.309574 0.949743 -0.176800
C152  C     C_R   0.618793 0.677716 0.044700 -0.174613
C153  C     C_R   0.105140 0.807661 0.051166 -0.175647
C154  C     C_R   0.881899 0.179406 0.954940 -0.177168
C155  C     C_R   0.893705 0.809524 0.949436 -0.175904
C156  C     C_R   0.118315 0.178389 0.045033 -0.177381
C157  C     C_R   0.628333 0.277548 0.101109 0.280539
C158  C     C_R   0.351739 0.695384 0.910663 0.288325
C159  C     C_R   0.370704 0.279292 0.899650 0.278035
C160  C     C_R   0.648138 0.693862 0.090087 0.266365
C161  C     C_R   0.127799 0.777086 0.101548 0.280611
C162  C     C_R   0.852391 0.195297 0.909627 0.272666
C163  C     C_R   0.871106 0.779124 0.899161 0.279428
C164  C     C_R   0.147508 0.194938 0.090591 0.271079
C165  C     C_R   0.741632 0.188104 0.794898 0.312546
C166  C     C_R   0.221330 0.715537 0.240383 0.327505
C167  C     C_R   0.258474 0.188766 0.205327 0.310074
C168  C     C_R   0.778314 0.716173 0.760361 0.328942
C169  C     C_R   0.241755 0.688382 0.794923 0.302427
C170  C     C_R   0.721859 0.215379 0.239693 0.327264
C171  C     C_R   0.759089 0.688358 0.204820 0.313434
C172  C     C_R   0.277927 0.217906 0.761096 0.331651
C173  C     C_R   0.774912 0.180531 0.835418 -0.181996
C174  C     C_R   0.193212 0.742395 0.197112 -0.197916
C175  C     C_R   0.225125 0.181539 0.164991 -0.181933
C176  C     C_R   0.805974 0.743730 0.803721 -0.198572
C177  C     C_R   0.274904 0.680843 0.835649 -0.194511
C178  C     C_R   0.693739 0.242425 0.196525 -0.198536
C179  C     C_R   0.725868 0.680525 0.164321 -0.180908
C180  C     C_R   0.305292 0.245796 0.804682 -0.198196
H17   H     H_    0.563106 0.323764 0.086357 0.214473
H18   H     H_    0.424981 0.672428 0.916346 0.218375
H19   H     H_    0.435876 0.324968 0.914033 0.215725
H20   H     H_    0.575251 0.670348 0.084089 0.219396
H21   H     H_    0.062677 0.823450 0.086531 0.214426
H22   H     H_    0.925542 0.172362 0.915686 0.218231
H23   H     H_    0.936071 0.825170 0.913777 0.215892
H24   H     H_    0.074785 0.170812 0.084260 0.219363
H25   H     H_    0.807287 0.140544 0.808787 0.203324
H26   H     H_    0.153238 0.762918 0.239996 0.223757
H27   H     H_    0.193109 0.141428 0.191486 0.203535
H28   H     H_    0.845643 0.764756 0.760850 0.224171
H29   H     H_    0.307550 0.641237 0.808770 0.203354
H30   H     H_    0.653732 0.262723 0.239564 0.223742
H31   H     H_    0.694088 0.640082 0.190691 0.203461
H32   H     H_    0.344806 0.267525 0.762134 0.223244
O33   O     O_R   0.062020 0.072840 0.007170 -0.631710
O34   O     O_R   0.937980 0.927160 0.992830 -0.629268
O35   O     O_R   0.937980 0.072840 0.992830 -0.630575
O36   O     O_R   0.062020 0.927160 0.007170 -0.628797
O37   O     O_R   0.562020 0.572840 0.007170 -0.631816
O38   O     O_R   0.437980 0.427160 0.992830 -0.629627
O39   O     O_R   0.437980 0.572840 0.992830 -0.630710
O40   O     O_R   0.562020 0.427160 0.007170 -0.628695
O41   O     O_R   0.947860 0.073950 0.109290 -0.548061
O42   O     O_R   0.052140 0.926050 0.890710 -0.553297
O43   O     O_R   0.052140 0.073950 0.890710 -0.548403
O44   O     O_R   0.947860 0.926050 0.109290 -0.553333
O45   O     O_R   0.447860 0.573950 0.109290 -0.549208
O46   O     O_R   0.552140 0.426050 0.890710 -0.553187
O47   O     O_R   0.552140 0.573950 0.890710 -0.547821
O48   O     O_R   0.447860 0.426050 0.109290 -0.553370
C181  C     C_R   0.071451 0.103548 0.937228 0.909514
C182  C     C_R   0.928993 0.896140 0.063000 0.891121
C183  C     C_R   0.928871 0.103933 0.062376 0.910259
C184  C     C_R   0.070630 0.895741 0.937430 0.889648
C185  C     C_R   0.571503 0.603502 0.937183 0.911490
C186  C     C_R   0.428927 0.396166 0.063074 0.890321
C187  C     C_R   0.428662 0.603734 0.062572 0.908915
C188  C     C_R   0.570713 0.395807 0.937353 0.890555
Zn9   Zn    Zn3+2 0.505960 0.500000 0.080520 1.138829
Zn10  Zn    Zn3+2 0.494040 0.500000 0.919480 1.136011
Zn11  Zn    Zn3+2 0.005960 0.000000 0.080520 1.137114
Zn12  Zn    Zn3+2 0.994040 0.000000 0.919480 1.136719
N1    N     N_R   0.785211 0.497821 0.392648 0.256288
O49   O     O_R   0.733433 0.503500 0.448812 -0.293019
O50   O     O_R   0.799613 0.468681 0.314949 -0.311499
N2    N     N_R   0.215126 0.497446 0.607303 0.255925
O51   O     O_R   0.201121 0.468280 0.684945 -0.312369
O52   O     O_R   0.266816 0.502975 0.550769 -0.292542
N3    N     N_R   0.294093 0.995056 0.388565 0.249651
O53   O     O_R   0.241329 0.002060 0.427733 -0.282568
O54   O     O_R   0.319056 0.967142 0.308750 -0.312605
N4    N     N_R   0.719255 0.997767 0.602371 0.257964
O55   O     O_R   0.708044 0.969064 0.679153 -0.309419
O56   O     O_R   0.770187 0.002820 0.541768 -0.296077
N5    N     N_R   0.592486 0.320243 0.777287 0.219784
O57   O     O_R   0.598049 0.377488 0.728607 -0.319022
O58   O     O_R   0.557917 0.270289 0.784460 -0.363689
N6    N     N_R   0.406164 0.688542 0.216218 0.220496
O59   O     O_R   0.408634 0.638042 0.267863 -0.309472
O60   O     O_R   0.445429 0.735515 0.180707 -0.358798
N7    N     N_R   0.407063 0.320383 0.223043 0.220325
O61   O     O_R   0.401326 0.377700 0.271458 -0.317632
O62   O     O_R   0.441397 0.269892 0.216816 -0.358247
N8    N     N_R   0.593997 0.688622 0.783568 0.211251
O63   O     O_R   0.591669 0.638086 0.732179 -0.320614
O64   O     O_R   0.554978 0.736469 0.817918 -0.386172
N9    N     N_R   0.092572 0.820473 0.777153 0.221893
O65   O     O_R   0.098305 0.877731 0.728405 -0.323225
O66   O     O_R   0.057298 0.771210 0.785442 -0.360129
N10   N     N_R   0.906527 0.189129 0.215948 0.213456
O67   O     O_R   0.908932 0.138608 0.267622 -0.316439
O68   O     O_R   0.945724 0.236221 0.180741 -0.377241
N11   N     N_R   0.907006 0.820605 0.223109 0.219879
O69   O     O_R   0.901193 0.877929 0.271554 -0.316833
O70   O     O_R   0.941266 0.770085 0.217113 -0.361764
N12   N     N_R   0.094031 0.188177 0.783310 0.214265
O71   O     O_R   0.092014 0.137438 0.731874 -0.320433
O72   O     O_R   0.054754 0.235666 0.817608 -0.378364
N13   N     N_R   0.590755 0.257648 0.191304 0.190997
O73   O     O_R   0.553790 0.303645 0.243546 -0.353913
O74   O     O_R   0.586707 0.189884 0.215413 -0.352940
N14   N     N_R   0.381789 0.709566 0.816405 0.193416
O75   O     O_R   0.371909 0.768497 0.784282 -0.409450
O76   O     O_R   0.424551 0.670803 0.765584 -0.383180
N15   N     N_R   0.408272 0.259013 0.809490 0.192492
O77   O     O_R   0.445538 0.304349 0.757219 -0.351604
O78   O     O_R   0.411803 0.191392 0.785292 -0.358399
N16   N     N_R   0.617791 0.704530 0.185195 0.204188
O79   O     O_R   0.625615 0.762471 0.221055 -0.350942
O80   O     O_R   0.576610 0.662901 0.233834 -0.338613
N17   N     N_R   0.090182 0.757189 0.191740 0.191379
O81   O     O_R   0.053049 0.803068 0.243831 -0.353964
O82   O     O_R   0.086333 0.689486 0.216015 -0.356907
N18   N     N_R   0.882589 0.206657 0.814599 0.200802
O83   O     O_R   0.873703 0.264435 0.779229 -0.365905
O84   O     O_R   0.924614 0.166018 0.765642 -0.356152
N19   N     N_R   0.908806 0.759558 0.808842 0.191619
O85   O     O_R   0.945283 0.805816 0.756711 -0.352363
O86   O     O_R   0.913496 0.691864 0.784457 -0.355924
N20   N     N_R   0.117018 0.205964 0.185646 0.201275
O87   O     O_R   0.125007 0.263888 0.221344 -0.364093
O88   O     O_R   0.075592 0.164719 0.234334 -0.354188
N21   N     N_R   0.742306 0.130777 0.737308 0.233574
O89   O     O_R   0.696954 0.110309 0.740367 -0.366122
O90   O     O_R   0.786579 0.093631 0.689475 -0.324677
N22   N     N_R   0.189716 0.685705 0.328202 0.227402
O91   O     O_R   0.202838 0.622568 0.346863 -0.417185
O92   O     O_R   0.142787 0.714182 0.382964 -0.403064
N23   N     N_R   0.257855 0.131223 0.262985 0.233843
O93   O     O_R   0.303216 0.109766 0.259649 -0.348967
O94   O     O_R   0.213543 0.094645 0.310935 -0.326295
N24   N     N_R   0.810369 0.685880 0.672809 0.229429
O95   O     O_R   0.797376 0.622965 0.654132 -0.415051
O96   O     O_R   0.857373 0.713826 0.618238 -0.399757
N25   N     N_R   0.242649 0.631064 0.737171 0.236652
O97   O     O_R   0.197385 0.610421 0.740063 -0.357336
O98   O     O_R   0.286998 0.594013 0.689495 -0.329834
N26   N     N_R   0.690373 0.184755 0.327190 0.229984
O99   O     O_R   0.704428 0.122180 0.345662 -0.410660
O100  O     O_R   0.642862 0.211789 0.381792 -0.402846
N27   N     N_R   0.759171 0.630898 0.262002 0.233492
O101  O     O_R   0.804796 0.610895 0.258774 -0.364048
O102  O     O_R   0.715429 0.593091 0.309392 -0.320425
N28   N     N_R   0.310355 0.187774 0.673672 0.227968
O103  O     O_R   0.298262 0.124195 0.655210 -0.425720
O104  O     O_R   0.356783 0.217012 0.618867 -0.397725

loop_
_geom_bond_atom_site_label_1
_geom_bond_atom_site_label_2
_geom_bond_distance
_ccdc_geom_bond_type
C140  C172  1.414548 A    
O5    C5    1.250968 A    
C59   C64   1.397012 A    
O7    Zn7   2.027924 S    
O31   Zn4   2.082033 S    
O8    Zn8   2.027924 S    
C121  N9    1.439840 S    
C90   C178  1.409031 A    
C105  C145  1.400329 A    
O46   Zn10  1.988443 S    
C107  C147  1.402042 A    
C114  C122  1.378574 A    
N2    O51   1.301318 A    
C117  C125  1.392461 A    
C79   C143  1.431973 A    
C38   C40   1.406495 A    
C139  C147  1.413517 A    
C3    C127  1.479487 S    
C83   C96   1.421356 A    
C137  C145  1.414185 A    
O30   C6    1.288406 A    
O1    Zn1   2.027695 S    
C108  C148  1.407978 A    
C33   C35   1.402546 A    
C5    C129  1.480541 S    
C47   C55   1.424736 A    
C119  N7    1.439817 S    
N3    O54   1.300911 A    
N16   O79   1.301633 A    
C36   C43   1.407938 A    
C49   C67   1.404711 A    
C91   C99   1.426171 A    
C174  H26   1.068633 S    
C51   C73   1.417465 A    
C49   C57   1.428541 A    
O2    C2    1.249807 A    
C87   C95   1.426419 A    
C53   C61   1.394083 A    
C7    C131  1.480521 S    
H5    C28   1.083339 S    
C25   C27   1.398080 A    
C178  H30   1.068331 S    
C52   C67   1.411522 A    
O6    Zn6   2.027695 S    
C98   C157  1.432599 A    
N25   O98   1.301621 A    
C29   C31   1.397428 A    
C41   C65   1.414546 A    
C110  C118  1.377703 A    
N15   O77   1.301551 A    
C101  C149  1.404211 A    
C154  H22   1.082203 S    
C38   C42   1.405075 A    
C45   C53   1.428372 A    
C51   C68   1.410374 A    
N19   O86   1.301863 A    
C156  C164  1.403127 A    
O27   C3    1.301150 A    
N12   O71   1.302551 A    
O48   Zn9   1.998207 S    
C122  N10   1.440765 S    
C61   N1    1.440476 S    
C24   C38   1.402091 A    
C90   C98   1.444112 A    
C150  H18   1.082234 S    
C103  C151  1.404595 A    
C44   C68   1.408411 A    
H2    C31   1.083599 S    
N6    O59   1.302536 A    
O30   Zn1   2.082202 S    
C34   C36   1.405822 A    
C48   C56   1.430541 A    
H6    C27   1.083549 S    
C153  H21   1.081729 S    
C135  C167  1.423949 A    
C51   C59   1.423086 A    
C119  C127  1.393612 A    
C133  C141  1.413693 A    
C120  C128  1.392638 A    
O47   C185  1.276708 A    
C77   C141  1.430359 A    
C15   C56   1.472345 S    
C77   C85   1.410225 A    
C175  H27   1.081575 S    
C20   C73   1.402466 A    
O23   Zn7   2.007920 S    
H7    C26   1.083564 S    
O24   Zn8   2.007920 S    
O9    C9    1.262637 A    
C50   C58   1.424667 A    
C60   C63   1.379798 A    
C139  C171  1.422550 A    
C153  C161  1.402368 A    
C159  N15   1.434463 S    
O12   C12   1.265469 A    
O13   C13   1.259393 A    
O40   Zn9   1.983401 S    
C82   C146  1.435535 A    
C138  C170  1.413747 A    
C108  C156  1.404727 A    
C102  C142  1.407232 A    
C103  C111  1.428025 A    
C120  N8    1.440850 S    
C11   C60   1.464618 S    
C104  C112  1.432165 A    
N24   O95   1.301492 A    
C80   C144  1.437471 A    
C13   C54   1.474508 S    
C137  C169  1.422544 A    
N19   O85   1.301538 A    
C122  C130  1.392260 A    
C40   C41   1.404521 A    
C46   C54   1.433131 A    
O48   C186  1.267122 A    
N27   O101  1.301106 A    
O7    C7    1.254642 A    
O9    Zn6   2.107690 S    
O8    C8    1.253620 A    
C176  H28   1.068512 S    
C85   C173  1.407043 A    
O11   Zn8   2.100764 S    
O37   Zn9   1.989749 S    
O38   C186  1.236567 A    
C21   C29   1.403898 A    
O16   Zn3   2.100764 S    
C118  C126  1.392241 A    
C23   C31   1.403771 A    
C121  C129  1.392594 A    
O22   Zn6   2.018098 S    
C47   C69   1.417915 A    
C42   C66   1.414303 A    
C50   C76   1.422073 A    
C26   C28   1.399841 A    
C106  C146  1.406572 A    
C55   C62   1.395050 A    
C123  N11   1.439863 S    
C84   C148  1.437285 A    
C30   C32   1.396063 A    
C86   C174  1.408135 A    
C78   C97   1.416827 A    
C62   N2    1.440558 S    
N28   O103  1.301291 A    
O43   Zn12  1.998206 S    
C18   C26   1.405207 A    
C76   H16   1.078506 S    
C162  N18   1.438473 S    
C17   C76   1.390443 A    
O2    Zn2   2.027695 S    
C46   C72   1.420075 A    
O17   Zn1   2.018098 S    
N9    O66   1.300577 A    
C163  N19   1.433882 S    
H8    C25   1.083531 S    
O6    C6    1.250633 A    
C124  C132  1.392641 A    
C101  C141  1.400493 A    
C105  C113  1.425036 A    
C136  C144  1.412438 A    
N17   O82   1.301862 A    
H1    C32   1.083679 S    
C115  C123  1.392318 A    
C99   C160  1.425368 A    
O34   Zn12  1.989749 S    
C180  H32   1.069228 S    
H3    C30   1.083673 S    
C113  C121  1.392815 A    
O20   C12   1.291153 A    
N10   O68   1.300775 A    
O21   C13   1.290567 A    
N21   O90   1.301629 A    
C82   C93   1.418989 A    
C14   C53   1.472357 S    
N8    O64   1.300777 A    
C52   C60   1.427727 A    
O23   C15   1.291757 A    
C77   C98   1.421679 A    
O24   C16   1.293274 A    
N18   O83   1.301677 A    
C101  C109  1.425221 A    
C80   C99   1.418421 A    
C6    C130  1.464909 S    
C16   C55   1.471182 S    
C117  N5    1.439873 S    
C79   C100  1.420528 A    
N15   O78   1.301897 A    
N14   O76   1.301417 A    
N5    O57   1.302892 A    
C104  C152  1.404487 A    
C171  N27   1.437098 S    
O3    C3    1.254196 A    
N26   O100  1.300675 A    
C19   C33   1.403938 A    
N20   O88   1.301507 A    
N11   O70   1.300611 A    
C81   C94   1.421644 A    
C108  C116  1.432185 A    
C19   C27   1.403511 A    
C165  C173  1.404074 A    
C111  C119  1.392317 A    
C12   C59   1.476498 S    
C112  C120  1.378210 A    
O44   C182  1.267054 A    
C130  C138  1.446840 A    
C8    C132  1.465303 S    
C20   C28   1.402986 A    
C155  C163  1.402964 A    
O47   Zn10  1.998206 S    
C170  C178  1.397024 A    
C20   C34   1.405682 A    
N2    O52   1.302362 A    
C49   C75   1.425029 A    
C150  C158  1.400561 A    
C81   C145  1.430214 A    
C82   C90   1.425597 A    
C103  C143  1.402611 A    
C94   C161  1.432375 A    
O41   C183  1.274455 A    
O12   Zn7   2.100764 S    
C172  N28   1.433809 S    
O42   C184  1.264434 A    
O13   Zn2   2.107690 S    
O40   C188  1.237869 A    
O43   C181  1.276657 A    
N22   O91   1.301441 A    
C166  C174  1.397174 A    
C113  C184  1.466253 S    
C114  C183  1.463067 S    
C18   C75   1.393535 A    
C115  C182  1.469155 S    
N16   O80   1.301491 A    
C45   C71   1.418962 A    
C87   C175  1.406084 A    
C69   H9    1.079648 S    
O25   C1    1.298075 A    
C71   H11   1.078833 S    
C169  N25   1.437074 S    
C19   C74   1.397151 A    
C89   C177  1.406847 A    
O35   Zn12  1.983399 S    
O10   C10   1.246551 A    
O36   Zn11  1.983401 S    
C164  N20   1.438443 S    
N25   O97   1.301030 A    
C177  H29   1.081885 S    
O14   C14   1.253372 A    
C118  N6    1.440863 S    
C81   C89   1.409450 A    
C123  C131  1.392893 A    
C47   C66   1.406462 A    
N12   O72   1.300775 A    
C138  C146  1.412730 A    
C96   C163  1.432972 A    
O44   Zn11  1.998207 S    
C34   C44   1.398125 A    
N4    O55   1.301329 A    
C160  N16   1.438076 S    
N13   O74   1.301840 A    
O10   Zn5   2.107690 S    
O33   Zn11  1.989749 S    
C125  C133  1.446590 A    
O45   C187  1.274300 A    
O19   C11   1.298835 A    
O38   Zn10  1.989749 S    
C128  C136  1.447507 A    
O39   C187  1.228299 A    
O15   C15   1.263860 A    
C107  C115  1.428511 A    
C166  N22   1.434155 S    
C21   C39   1.401751 A    
C151  H19   1.081396 S    
C116  C124  1.378383 A    
N6    O60   1.300790 A    
C57   C63   1.393065 A    
C149  C157  1.401987 A    
C152  H20   1.081860 S    
C111  C186  1.470133 S    
C97   C158  1.422982 A    
C167  C175  1.403988 A    
C9    C58   1.466148 S    
C85   C93   1.424424 A    
C102  C150  1.403402 A    
C155  H23   1.081368 S    
O25   Zn6   2.082202 S    
C136  C168  1.414525 A    
N23   O93   1.300995 A    
O3    Zn3   2.027924 S    
O27   Zn8   2.082033 S    
O35   C183  1.228610 A    
C105  C153  1.404549 A    
N7    O61   1.302917 A    
O32   Zn3   2.082033 S    
C78   C86   1.425072 A    
N3    O53   1.301815 A    
O41   Zn11  1.988441 S    
O42   Zn12  1.988443 S    
C100  C159  1.432710 A    
C151  C159  1.402697 A    
C45   C65   1.407748 A    
O15   Zn4   2.100764 S    
C149  H17   1.081687 S    
C84   C95   1.418023 A    
O22   C14   1.292985 A    
C168  N24   1.435211 S    
C1    C125  1.480142 S    
C48   C65   1.408032 A    
C54   C62   1.400981 A    
N1    O50   1.301312 A    
O46   C188  1.264462 A    
O18   Zn2   2.018098 S    
C48   C70   1.419619 A    
C37   C41   1.404479 A    
C75   H15   1.077487 S    
C88   C176  1.408595 A    
C73   H13   1.081009 S    
C167  N23   1.437512 S    
C72   H12   1.078981 S    
C106  C154  1.404057 A    
C21   C72   1.396642 A    
O33   C181  1.227046 A    
C169  C177  1.403590 A    
C86   C94   1.444470 A    
C134  C166  1.414694 A    
C80   C88   1.426158 A    
C83   C147  1.432403 A    
O45   Zn9   1.988441 S    
N28   O104  1.300882 A    
C43   C67   1.409342 A    
C170  N26   1.435300 S    
C93   C162  1.425078 A    
C109  C188  1.466417 S    
C10   C57   1.441073 S    
C110  C187  1.462730 S    
C33   C43   1.399049 A    
O28   C4    1.291997 A    
C24   C32   1.403036 A    
N9    O65   1.302909 A    
C39   C42   1.403758 A    
O29   C5    1.298183 A    
C63   N3    1.438385 S    
C95   C164  1.425633 A    
C92   C100  1.443945 A    
C88   C96   1.445452 A    
C91   C179  1.406789 A    
C161  N17   1.433959 S    
N11   O69   1.302926 A    
C22   C30   1.403293 A    
C64   N4    1.441293 S    
N17   O81   1.301536 A    
C179  H31   1.081617 S    
C22   C40   1.401751 A    
C84   C92   1.425808 A    
O16   C16   1.259628 A    
C46   C66   1.409340 A    
O1    C1    1.250934 A    
C104  C144  1.408059 A    
C58   C64   1.403336 A    
N21   O89   1.301207 A    
C35   C44   1.406134 A    
O36   C184  1.237908 A    
C83   C91   1.411194 A    
O4    Zn4   2.027924 S    
O5    Zn5   2.027695 S    
C135  C143  1.413411 A    
C168  C176  1.397055 A    
C56   C61   1.400927 A    
C133  C165  1.422451 A    
C17   C35   1.396553 A    
O14   Zn1   2.107690 S    
C109  C117  1.392812 A    
C17   C25   1.404418 A    
O18   C10   1.280138 A    
C23   C37   1.401700 A    
O26   C2    1.288304 A    
C106  C114  1.428855 A    
C24   C69   1.392857 A    
O11   C11   1.253874 A    
C4    C128  1.465012 S    
N4    O56   1.302703 A    
C134  C142  1.411707 A    
N5    O58   1.300592 A    
C89   C97   1.423653 A    
C152  C160  1.402682 A    
O28   Zn7   2.082033 S    
C126  C134  1.447184 A    
O29   Zn2   2.082202 S    
C37   C39   1.407882 A    
H4    C29   1.083587 S    
C165  N21   1.437263 S    
O4    C4    1.253748 A    
C107  C155  1.404691 A    
N1    O49   1.302379 A    
O34   C182  1.236173 A    
C92   C180  1.407135 A    
N24   O96   1.300907 A    
N23   O94   1.301585 A    
C140  C148  1.412471 A    
C50   C68   1.406357 A    
C22   C71   1.393079 A    
N27   O102  1.301603 A    
N7    O62   1.300598 A    
C112  C185  1.465951 S    
N22   O92   1.300762 A    
O26   Zn5   2.082202 S    
N10   O67   1.302485 A    
C78   C142  1.435290 A    
N8    O63   1.302520 A    
C23   C70   1.396054 A    
C131  C139  1.446808 A    
C158  N14   1.435748 S    
C129  C137  1.446859 A    
C116  C181  1.465973 S    
C127  C135  1.446941 A    
C171  C179  1.404171 A    
O37   C185  1.226960 A    
C154  C162  1.401730 A    
O20   Zn4   2.007920 S    
N14   O75   1.300918 A    
C173  H25   1.081705 S    
C156  H24   1.081878 S    
O21   Zn5   2.018098 S    
C124  N12   1.440838 S    
C79   C87   1.411479 A    
N26   O99   1.301550 A    
O31   C7    1.301101 A    
C2    C126  1.463126 S    
C52   C74   1.416603 A    
O32   C8    1.292281 A    
N13   O73   1.301541 A    
O17   C9    1.282957 A    
C172  C180  1.395766 A    
C18   C36   1.396778 A    
C102  C110  1.428191 A    
O19   Zn3   2.007920 S    
N18   O84   1.301510 A    
C132  C140  1.447554 A    
N20   O87   1.301674 A    
O39   Zn10  1.983399 S    
C70   H10   1.079569 S    
C157  N13   1.433774 S    
C74   H14   1.081181 S    
