data_mof_unit_62777.cif
_audit_creation_date              2012-12-10T20:56:34-0500
_audit_creation_method            fapswitch 2.2
_symmetry_space_group_name_H-M    P1
_symmetry_Int_Tables_number       1
_space_group_crystal_system       triclinic
_cell_length_a                    26.438844
_cell_length_b                    32.992629
_cell_length_c                    21.163432
_cell_angle_alpha                 90.011534
_cell_angle_beta                  128.782912
_cell_angle_gamma                 89.993311
_cell_volume                      14390.4844979

loop_
_atom_site_label
_atom_site_type_symbol
_atom_type_description
_atom_site_fract_x
_atom_site_fract_y
_atom_site_fract_z
_atom_type_partial_charge
C1    C     C_R   0.499865 0.145597 0.499875 0.808674
C2    C     C_R   0.696353 0.608379 0.545734 -0.356385
C3    C     C_R   0.641321 0.749985 0.500436 0.853391
C4    C     C_R   0.141073 0.750194 0.499941 0.855778
C5    C     C_R   0.859098 0.249620 0.500429 0.857438
C6    C     C_R   0.858678 0.750014 0.499563 0.853390
C7    C     C_R   0.141242 0.250151 0.500340 0.858761
C8    C     C_R   0.395590 0.250050 0.291147 0.801879
C9    C     C_R   0.604397 0.749931 0.708854 0.804634
C10   C     C_R   0.604454 0.250050 0.708865 0.808867
C11   C     C_R   0.395497 0.749990 0.291130 0.812222
C12   C     C_R   0.895603 0.750069 0.291146 0.804635
C13   C     C_R   0.760454 0.334322 0.712215 -0.345526
C14   C     C_R   0.104410 0.249949 0.708853 0.801895
C15   C     C_R   0.104503 0.750010 0.708870 0.812223
C16   C     C_R   0.895545 0.249950 0.291135 0.808843
C17   C     C_1   0.649579 0.250040 0.799005 -0.125675
C18   C     C_1   0.350340 0.750000 0.200985 -0.150058
C19   C     C_1   0.350558 0.250067 0.201019 -0.171851
C20   C     C_1   0.649437 0.749900 0.798982 -0.156889
C21   C     C_1   0.149660 0.750000 0.799015 -0.150058
C22   C     C_1   0.850421 0.249960 0.200995 -0.125718
C23   C     C_1   0.850563 0.750100 0.201018 -0.156885
C24   C     C_R   0.220642 0.676945 0.264202 -0.347275
C25   C     C_1   0.149442 0.249933 0.798980 -0.171855
C26   C     C_1   0.687021 0.249990 0.873945 0.042665
C27   C     C_1   0.312897 0.750029 0.126047 0.018196
C28   C     C_1   0.313112 0.250045 0.126079 -0.018082
C29   C     C_1   0.686889 0.749921 0.873922 -0.009575
C30   C     C_1   0.187103 0.749970 0.873953 0.018197
C31   C     C_1   0.812979 0.250010 0.126055 0.042648
C32   C     C_1   0.813111 0.750079 0.126078 -0.009573
C33   C     C_1   0.186888 0.249955 0.873922 -0.018086
C34   C     C_1   0.731270 0.249977 0.962531 0.031037
C35   C     C_R   0.803642 0.891619 0.454250 -0.356383
C36   C     C_1   0.268682 0.750010 0.037467 0.042057
C37   C     C_1   0.268768 0.250013 0.037473 0.002541
C38   C     C_1   0.731233 0.749975 0.962527 0.009294
C39   C     C_1   0.231318 0.749990 0.962532 0.042058
C40   C     C_1   0.768730 0.250023 0.037469 0.031038
C41   C     C_1   0.768767 0.750025 0.037473 0.009295
C42   C     C_1   0.231232 0.249987 0.962527 0.002540
C43   C     C_1   0.499672 0.399509 0.499289 -0.118582
C44   C     C_1   0.499592 0.600475 0.499636 -0.153486
C45   C     C_1   0.000408 0.899525 0.500366 -0.153492
C46   C     C_R   0.063689 0.149088 0.333547 -0.374377
C47   C     C_1   0.000327 0.100491 0.500711 -0.118377
C48   C     C_1   0.499097 0.436970 0.498563 0.050015
C49   C     C_1   0.498919 0.563009 0.498968 -0.017143
C50   C     C_1   0.001081 0.936991 0.501036 -0.017167
C51   C     C_1   0.000901 0.063030 0.501439 0.050100
C52   C     C_R   0.475185 0.415118 0.647006 0.178717
C53   C     C_R   0.541008 0.405048 0.690264 -0.179432
C54   C     C_R   0.587585 0.435547 0.719649 -0.154416
C55   C     C_R   0.569109 0.476261 0.707097 -0.115956
C56   C     C_R   0.503975 0.486579 0.664795 -0.152471
C57   C     C_R   0.279357 0.823055 0.735797 -0.347279
C58   C     C_R   0.457115 0.456208 0.634634 -0.061256
C59   C     C_R   0.727974 0.566850 0.664913 0.178491
C60   C     C_R   0.674094 0.540651 0.623167 -0.154051
C61   C     C_R   0.677174 0.503352 0.656861 -0.139146
C62   C     C_R   0.733928 0.491735 0.732361 -0.112834
C63   C     C_R   0.787951 0.517264 0.774100 -0.149612
C64   C     C_R   0.785229 0.554519 0.740567 -0.071807
C65   C     C_R   0.776154 0.322275 0.839977 0.178442
C66   C     C_R   0.724933 0.346129 0.823319 -0.177636
C67   C     C_R   0.726109 0.360200 0.886550 -0.159716
C68   C     C_R   0.739532 0.165686 0.287765 -0.345528
C69   C     C_R   0.778555 0.350927 0.966829 -0.098136
C70   C     C_R   0.829836 0.327450 0.984026 -0.159112
C71   C     C_R   0.828676 0.313064 0.920974 -0.076776
C72   C     C_R   0.191921 0.694775 0.130441 0.173806
C73   C     C_R   0.231308 0.666209 0.130167 -0.161851
C74   C     C_R   0.216507 0.653769 0.057087 -0.135735
C75   C     C_R   0.162243 0.669557 0.983673 -0.112021
C76   C     C_R   0.122900 0.698018 0.983227 -0.162325
C77   C     C_R   0.137525 0.710588 0.056152 -0.070055
C78   C     C_R   0.772025 0.933143 0.335068 0.178490
C79   C     C_R   0.390790 0.319806 0.637273 0.651638
C80   C     C_R   0.825906 0.959341 0.376813 -0.154052
C81   C     C_R   0.822829 0.996638 0.343115 -0.139143
C82   C     C_R   0.766078 0.008253 0.267611 -0.112835
C83   C     C_R   0.712054 0.982725 0.225873 -0.149617
C84   C     C_R   0.714772 0.945472 0.259410 -0.071804
C85   C     C_R   0.024832 0.084875 0.353009 0.178733
C86   C     C_R   0.958999 0.094944 0.309667 -0.179428
C87   C     C_R   0.912422 0.064445 0.280278 -0.154392
C88   C     C_R   0.930910 0.023731 0.292909 -0.115974
C89   C     C_R   0.996056 0.013414 0.335297 -0.152479
C90   C     C_R   0.697439 0.644483 0.511994 0.651919
C91   C     C_R   0.042915 0.043786 0.365466 -0.061285
C92   C     C_R   0.308077 0.805225 0.869558 0.173805
C93   C     C_R   0.268690 0.833791 0.869832 -0.161853
C94   C     C_R   0.283491 0.846232 0.942911 -0.135735
C95   C     C_R   0.337755 0.830444 0.016325 -0.112022
C96   C     C_R   0.377098 0.801983 0.016772 -0.162326
C97   C     C_R   0.362474 0.789413 0.943847 -0.070056
C98   C     C_R   0.723814 0.177737 0.159993 0.178442
C99   C     C_R   0.775024 0.153878 0.176631 -0.177627
C100  C     C_R   0.773832 0.139808 0.113387 -0.159708
C101  C     C_R   0.757034 0.320542 0.647227 0.675489
C102  C     C_R   0.721381 0.149088 0.033115 -0.098138
C103  C     C_R   0.670112 0.172570 0.015936 -0.159108
C104  C     C_R   0.671288 0.186955 0.079002 -0.076770
C105  C     C_R   0.220343 0.321982 0.549633 0.113417
C106  C     C_R   0.233464 0.322668 0.624978 -0.134614
C107  C     C_R   0.216572 0.356531 0.647939 -0.154911
C108  C     C_R   0.186539 0.389813 0.595880 -0.115679
C109  C     C_R   0.173472 0.389311 0.520843 -0.116791
C110  C     C_R   0.190228 0.355485 0.497631 -0.111001
C111  C     C_R   0.828831 0.677587 0.548922 0.146961
C112  C     C_R   0.500061 0.854403 0.500039 0.803831
C113  C     C_R   0.232272 0.687534 0.336170 0.679382
C114  C     C_R   0.876027 0.667179 0.630881 -0.129211
C115  C     C_R   0.913256 0.632110 0.652172 -0.132033
C116  C     C_R   0.903754 0.607359 0.591912 -0.090037
C117  C     C_R   0.856879 0.617577 0.510237 -0.128806
C118  C     C_R   0.819426 0.652564 0.488662 -0.086828
C119  C     C_R   0.877192 0.272508 0.646426 0.139140
C120  C     C_R   0.896321 0.313077 0.668769 -0.101158
C121  C     C_R   0.958561 0.322283 0.739517 -0.138115
C122  C     C_R   0.001983 0.291110 0.788131 -0.085563
C123  C     C_R   0.983167 0.250668 0.766206 -0.120629
C124  C     C_R   0.802556 0.855517 0.487994 0.651922
C125  C     C_R   0.920926 0.241327 0.695605 -0.149367
C126  C     C_R   0.120965 0.733911 0.350682 0.133969
C127  C     C_R   0.080230 0.767113 0.306701 -0.153804
C128  C     C_R   0.017254 0.760849 0.234855 -0.129782
C129  C     C_R   0.994705 0.721479 0.206543 -0.088287
C130  C     C_R   0.035092 0.688305 0.250057 -0.131952
C131  C     C_R   0.098049 0.694433 0.322021 -0.095912
C132  C     C_R   0.671168 0.822413 0.451077 0.146964
C133  C     C_R   0.680573 0.847435 0.511337 -0.086820
C134  C     C_R   0.643121 0.882422 0.489763 -0.128803
C135  C     C_R   0.109284 0.180144 0.362700 0.651771
C136  C     C_R   0.596245 0.892641 0.408087 -0.090036
C137  C     C_R   0.586744 0.867890 0.347827 -0.132033
C138  C     C_R   0.623972 0.832821 0.369118 -0.129214
C139  C     C_R   0.279660 0.178013 0.450370 0.113489
C140  C     C_R   0.309668 0.144484 0.502321 -0.111086
C141  C     C_R   0.326427 0.110653 0.479122 -0.116857
C142  C     C_R   0.313470 0.110172 0.404150 -0.115619
C143  C     C_R   0.283543 0.143480 0.352141 -0.154916
C144  C     C_R   0.266648 0.177347 0.375088 -0.134441
C145  C     C_R   0.379035 0.766089 0.649317 0.133971
C146  C     C_R   0.267727 0.812466 0.663829 0.679378
C147  C     C_R   0.401950 0.805568 0.677977 -0.095912
C148  C     C_R   0.464907 0.811697 0.749941 -0.131955
C149  C     C_R   0.505294 0.778523 0.793456 -0.088284
C150  C     C_R   0.482745 0.739153 0.765146 -0.129784
C151  C     C_R   0.419770 0.732888 0.693300 -0.153803
C152  C     C_R   0.622807 0.227496 0.353571 0.139138
C153  C     C_R   0.579075 0.258679 0.304401 -0.149361
C154  C     C_R   0.516833 0.249342 0.233798 -0.120636
C155  C     C_R   0.498014 0.208901 0.211863 -0.085566
C156  C     C_R   0.541434 0.177725 0.260470 -0.138113
C157  C     C_R   0.742959 0.179463 0.352760 0.675488
C158  C     C_R   0.603675 0.186928 0.331219 -0.101166
C159  C     C_R   0.333857 0.320106 0.556379 -0.113435
C160  C     C_R   0.727875 0.678997 0.560720 -0.069704
C161  C     C_R   0.767357 0.279408 0.641589 -0.074001
C162  C     C_R   0.229727 0.728298 0.352896 -0.075244
C163  C     C_R   0.772122 0.821001 0.439273 -0.069706
C164  C     C_R   0.999939 0.645597 0.499961 0.803830
C165  C     C_R   0.166153 0.179888 0.443640 -0.113560
C166  C     C_R   0.270273 0.771702 0.647104 -0.075238
C167  C     C_R   0.732641 0.220597 0.358407 -0.074001
C168  C     C_R   0.322820 0.351926 0.505230 -0.308480
C169  C     C_R   0.754957 0.677392 0.642617 -0.305663
C170  C     C_R   0.782566 0.252469 0.702483 -0.343504
C171  C     C_R   0.216245 0.758337 0.297436 -0.350444
C172  C     C_R   0.745040 0.822604 0.357376 -0.305665
C173  C     C_R   0.177130 0.148111 0.494835 -0.308539
C174  C     C_R   0.283755 0.741663 0.702563 -0.350445
C175  C     C_R   0.000135 0.354403 0.500125 0.808702
C176  C     C_R   0.717433 0.247538 0.297517 -0.343508
C177  C     C_R   0.368249 0.383184 0.534422 0.642989
C178  C     C_R   0.753156 0.641509 0.676233 0.638353
C179  C     C_R   0.786326 0.266263 0.767829 0.643259
C180  C     C_R   0.204700 0.747797 0.225352 0.640474
C181  C     C_R   0.746841 0.858484 0.323756 0.638354
C182  C     C_R   0.131705 0.116850 0.465641 0.642961
C183  C     C_R   0.295299 0.752203 0.774648 0.640473
C184  C     C_R   0.713666 0.233747 0.232164 0.643253
C185  C     C_R   0.425737 0.382799 0.615435 -0.150031
C186  C     C_1   0.498459 0.481252 0.498008 0.022599
C187  C     C_R   0.725272 0.606191 0.628531 -0.128825
C188  C     C_R   0.774769 0.307367 0.772877 -0.120147
C189  C     C_R   0.206232 0.706831 0.207726 -0.125719
C190  C     C_R   0.774725 0.893804 0.371454 -0.128826
C191  C     C_R   0.074278 0.117194 0.384583 -0.150116
C192  C     C_R   0.293768 0.793169 0.792273 -0.125715
C193  C     C_R   0.725214 0.192643 0.227106 -0.120151
C194  C     C_R   0.235327 0.285333 0.523527 -0.051609
C195  C     C_R   0.789756 0.715233 0.525883 -0.059472
C196  C     C_R   0.811765 0.262449 0.570169 -0.061158
C197  C     C_1   0.498409 0.518716 0.498218 -0.004215
C198  C     C_R   0.187274 0.740664 0.428098 -0.059312
C199  C     C_R   0.710243 0.784766 0.474116 -0.059471
C200  C     C_R   0.264672 0.214665 0.476469 -0.051473
C201  C     C_R   0.312726 0.759336 0.571902 -0.059314
C202  C     C_R   0.688235 0.237552 0.429830 -0.061155
C203  C     C_R   0.196962 0.250124 0.500323 -0.105535
C204  C     C_R   0.802288 0.749811 0.498079 -0.141003
C205  C     C_R   0.803545 0.249038 0.500728 -0.126608
C206  C     C_R   0.196662 0.750675 0.499768 -0.126280
C207  C     C_R   0.697711 0.750189 0.501920 -0.141002
C208  C     C_1   0.001590 0.981284 0.501788 -0.004263
C209  C     C_R   0.303038 0.249874 0.499675 -0.105434
C210  C     C_R   0.303338 0.749325 0.500232 -0.126280
C211  C     C_R   0.696455 0.250963 0.499271 -0.126606
C212  C     C_R   0.211242 0.214909 0.476284 0.063877
C213  C     C_R   0.761799 0.784412 0.471037 0.056092
C214  C     C_R   0.741848 0.235892 0.431047 0.055082
C215  C     C_R   0.259374 0.760547 0.571416 0.055348
C216  C     C_R   0.738199 0.715587 0.528960 0.056091
C217  C     C_R   0.288761 0.285088 0.523721 0.063877
C218  C     C_R   0.240626 0.739453 0.428584 0.055348
C219  C     C_1   0.001540 0.018748 0.501997 0.022558
C220  C     C_R   0.758152 0.264109 0.568952 0.055078
C221  C     C_R   0.499953 0.354455 0.499956 0.799492
C222  C     C_R   0.499947 0.645540 0.499962 0.811269
C223  C     C_R   0.000053 0.854459 0.500039 0.811269
C224  C     C_R   0.000047 0.145545 0.500044 0.799501
C225  C     C_1   0.499698 0.100525 0.499724 -0.166220
C226  C     C_1   0.500065 0.899475 0.499960 -0.171130
C227  C     C_1   0.999935 0.600525 0.500040 -0.171128
C228  C     C_1   0.000302 0.399475 0.500276 -0.166250
C229  C     C_1   0.499646 0.063049 0.499647 -0.015338
C230  C     C_R   0.436385 0.350861 0.666426 -0.374428
C231  C     C_1   0.500010 0.936950 0.499838 -0.016798
C232  C     C_1   0.999990 0.563049 0.500162 -0.016795
C233  C     C_1   0.000354 0.436951 0.500353 -0.015350
C234  C     C_1   0.499729 0.018738 0.499644 0.002886
C235  C     C_1   0.499862 0.981260 0.499707 0.003266
C236  C     C_1   0.000138 0.518740 0.500293 0.003269
C237  C     C_1   0.000271 0.481262 0.500355 0.002889
C238  C     C_R   0.640902 0.250380 0.499571 0.857440
C239  C     C_R   0.358927 0.749806 0.500059 0.855778
C240  C     C_R   0.358757 0.249848 0.499658 0.858773
F1    F     F_    0.402696 0.288978 0.687442 -0.663668
F2    F     F_    0.778600 0.641446 0.755293 -0.674837
F3    F     F_    0.798507 0.239169 0.824134 -0.679149
F4    F     F_    0.193332 0.777651 0.173752 -0.678113
F5    F     F_    0.721399 0.858544 0.244696 -0.674838
F6    F     F_    0.142625 0.087242 0.517415 -0.670431
F7    F     F_    0.306668 0.722350 0.826248 -0.678112
F8    F     F_    0.701484 0.260844 0.175863 -0.679149
F9    F     F_    0.671198 0.645357 0.432659 -0.676610
F10   F     F_    0.741516 0.346978 0.588334 -0.680015
F11   F     F_    0.246009 0.658075 0.389633 -0.675330
F12   F     F_    0.828796 0.854646 0.567329 -0.676609
F13   F     F_    0.097436 0.210931 0.312486 -0.663652
F14   F     F_    0.253990 0.841925 0.610366 -0.675343
F15   F     F_    0.758477 0.153024 0.411650 -0.680013
F16   F     F_    0.357268 0.412832 0.482682 -0.670420
H1    H     H_    0.480122 0.350010 0.729001 0.194009
H2    H     H_    0.778585 0.703872 0.680775 0.182063
H3    H     H_    0.790048 0.220624 0.698244 0.184908
H4    H     H_    0.214662 0.789909 0.310158 0.185752
H5    H     H_    0.721413 0.796122 0.319221 0.182064
H6    H     H_    0.220195 0.148091 0.557858 0.188611
H7    H     H_    0.285338 0.710092 0.689842 0.185753
H8    H     H_    0.709955 0.279383 0.301763 0.184910
H9    H     H_    0.556134 0.373629 0.700058 0.124451
H10   H     H_    0.638003 0.427649 0.751942 0.126917
H11   H     H_    0.605225 0.499821 0.729938 0.145831
H12   H     H_    0.674824 0.581730 0.507619 0.190721
H13   H     H_    0.489737 0.518143 0.655065 0.144538
H14   H     H_    0.406923 0.464773 0.602464 0.161656
H15   H     H_    0.629652 0.549107 0.564667 0.140843
H16   H     H_    0.635631 0.483346 0.624447 0.145531
H17   H     H_    0.736156 0.462850 0.758270 0.127545
H18   H     H_    0.832171 0.508061 0.832266 0.139022
H19   H     H_    0.828267 0.573315 0.773153 0.162159
H20   H     H_    0.683680 0.353337 0.761382 0.140184
H21   H     H_    0.686268 0.378201 0.873322 0.140831
H22   H     H_    0.779374 0.361815 0.015706 0.141278
H23   H     H_    0.751684 0.366090 0.715093 0.177357
H24   H     H_    0.870409 0.320270 0.046255 0.147763
H25   H     H_    0.869053 0.295171 0.935426 0.163324
H26   H     H_    0.273736 0.653773 0.186511 0.144159
H27   H     H_    0.247169 0.631897 0.057392 0.143615
H28   H     H_    0.150878 0.659916 0.927161 0.138897
H29   H     H_    0.080886 0.710234 0.926293 0.142120
H30   H     H_    0.105673 0.732038 0.054407 0.164638
H31   H     H_    0.870346 0.950886 0.435315 0.140849
H32   H     H_    0.864373 0.016643 0.375528 0.145530
H33   H     H_    0.763852 0.037136 0.241698 0.127552
H34   H     H_    0.221821 0.645236 0.251928 0.187263
H35   H     H_    0.667835 0.991927 0.167705 0.139021
H36   H     H_    0.671733 0.926678 0.226825 0.162159
H37   H     H_    0.943864 0.126362 0.299808 0.124464
H38   H     H_    0.861995 0.072342 0.247918 0.126913
H39   H     H_    0.894794 0.000171 0.270064 0.145830
H40   H     H_    0.010303 0.981851 0.345090 0.144545
H41   H     H_    0.093118 0.035224 0.397710 0.161595
H42   H     H_    0.226262 0.846227 0.813487 0.144158
H43   H     H_    0.252828 0.868104 0.942605 0.143615
H44   H     H_    0.349120 0.840085 0.072837 0.138898
H45   H     H_    0.825170 0.918269 0.492362 0.190721
H46   H     H_    0.419112 0.789767 0.073706 0.142120
H47   H     H_    0.394326 0.767963 0.945592 0.164638
H48   H     H_    0.816280 0.146664 0.238563 0.140184
H49   H     H_    0.813664 0.121803 0.126600 0.140794
H50   H     H_    0.720550 0.138201 0.984228 0.141276
H51   H     H_    0.629535 0.179755 0.953713 0.147781
H52   H     H_    0.630918 0.204852 0.064564 0.163324
H53   H     H_    0.256243 0.296891 0.665431 0.149853
H54   H     H_    0.226504 0.356901 0.705924 0.137765
H55   H     H_    0.173234 0.415936 0.613572 0.135434
H56   H     H_    0.019999 0.149906 0.270937 0.194051
H57   H     H_    0.149996 0.415032 0.480465 0.140318
H58   H     H_    0.179050 0.355153 0.438890 0.135734
H59   H     H_    0.884142 0.686343 0.678021 0.130769
H60   H     H_    0.949645 0.624205 0.715393 0.131008
H61   H     H_    0.932800 0.580314 0.608490 0.130894
H62   H     H_    0.849713 0.598444 0.463672 0.132427
H63   H     H_    0.783353 0.660305 0.425237 0.139642
H64   H     H_    0.863345 0.337437 0.631001 0.169254
H65   H     H_    0.973250 0.353583 0.756444 0.134719
H66   H     H_    0.050254 0.298282 0.842668 0.131051
H67   H     H_    0.278178 0.854765 0.748071 0.187259
H68   H     H_    0.016900 0.226571 0.803776 0.132766
H69   H     H_    0.906872 0.209908 0.678888 0.130171
H70   H     H_    0.097210 0.797715 0.328337 0.131632
H71   H     H_    0.985861 0.786495 0.201241 0.134399
H72   H     H_    0.945887 0.716682 0.151030 0.135300
H73   H     H_    0.017502 0.657834 0.228221 0.138227
H74   H     H_    0.128655 0.668524 0.355800 0.171633
H75   H     H_    0.716646 0.839694 0.574762 0.139638
H76   H     H_    0.650287 0.901556 0.536328 0.132427
H77   H     H_    0.567199 0.919686 0.391510 0.130895
H78   H     H_    0.748295 0.133917 0.284879 0.177365
H79   H     H_    0.550354 0.875795 0.284606 0.131007
H80   H     H_    0.615857 0.813657 0.321978 0.130770
H81   H     H_    0.320763 0.144798 0.561014 0.135757
H82   H     H_    0.349820 0.084912 0.519461 0.140324
H83   H     H_    0.326777 0.084046 0.386469 0.135430
H84   H     H_    0.273696 0.143126 0.294207 0.137726
H85   H     H_    0.243950 0.203144 0.334674 0.149788
H86   H     H_    0.371344 0.831477 0.644197 0.171629
H87   H     H_    0.482497 0.842168 0.771776 0.138224
H88   H     H_    0.554112 0.783320 0.848969 0.135300
H89   H     H_    0.279707 0.351980 0.442238 0.188566
H90   H     H_    0.514139 0.713507 0.798761 0.134398
H91   H     H_    0.402791 0.702286 0.671665 0.131633
H92   H     H_    0.593131 0.290098 0.321124 0.130172
H93   H     H_    0.483100 0.273440 0.196235 0.132759
H94   H     H_    0.449742 0.201731 0.157326 0.131049
H95   H     H_    0.526743 0.146426 0.243535 0.134718
H96   H     H_    0.636650 0.162566 0.368981 0.169255
O1    O     O_3   0.500000 0.250010 0.500000 -0.447695
O2    O     O_R   0.008350 0.334000 0.455930 -0.621332
O3    O     O_R   0.008350 0.666000 0.455930 -0.624847
O4    O     O_R   0.991650 0.334000 0.544070 -0.627544
O5    O     O_R   0.552380 0.334020 0.544040 -0.633757
O6    O     O_R   0.447620 0.665980 0.455960 -0.618207
O7    O     O_R   0.447620 0.334020 0.455960 -0.607973
O8    O     O_R   0.552380 0.665980 0.544040 -0.624266
O9    O     O_R   0.052380 0.834020 0.544040 -0.618210
O10   O     O_R   0.947620 0.165980 0.455960 -0.633779
O11   O     O_R   0.947620 0.834020 0.455960 -0.624266
O12   O     O_3   0.500000 0.749990 0.500000 -0.447158
O13   O     O_R   0.052380 0.165980 0.544040 -0.607907
O14   O     O_R   0.593780 0.227990 0.455960 -0.633742
O15   O     O_R   0.406220 0.772010 0.544040 -0.634783
O16   O     O_R   0.406220 0.227990 0.544040 -0.614825
O17   O     O_R   0.593780 0.772010 0.455960 -0.632869
O18   O     O_R   0.093780 0.727990 0.455960 -0.634781
O19   O     O_R   0.906220 0.272010 0.544040 -0.633747
O20   O     O_R   0.906220 0.727990 0.544040 -0.632869
O21   O     O_R   0.093780 0.272010 0.455960 -0.614946
O22   O     O_R   0.362170 0.272040 0.455960 -0.644854
O23   O     O_3   0.000000 0.750010 0.500000 -0.447158
O24   O     O_R   0.637830 0.727960 0.544040 -0.639003
O25   O     O_R   0.637830 0.272040 0.544040 -0.629536
O26   O     O_R   0.362170 0.727960 0.455960 -0.626375
O27   O     O_R   0.862170 0.772040 0.455960 -0.639002
O28   O     O_R   0.137830 0.227960 0.544040 -0.644811
O29   O     O_R   0.137830 0.772040 0.544040 -0.626377
O30   O     O_R   0.862170 0.227960 0.455960 -0.629530
O31   O     O_R   0.446360 0.228000 0.332000 -0.621773
O32   O     O_R   0.553640 0.772000 0.668000 -0.624076
O33   O     O_R   0.553640 0.228000 0.668000 -0.618960
O34   O     O_3   0.000000 0.249990 0.500000 -0.447688
O35   O     O_R   0.446360 0.772000 0.332000 -0.627095
O36   O     O_R   0.946360 0.728000 0.332000 -0.624076
O37   O     O_R   0.053640 0.272000 0.668000 -0.621773
O38   O     O_R   0.053640 0.728000 0.668000 -0.627097
O39   O     O_R   0.946360 0.272000 0.332000 -0.619014
O40   O     O_R   0.385640 0.272040 0.331990 -0.622766
O41   O     O_R   0.614360 0.727960 0.668010 -0.613780
O42   O     O_R   0.614360 0.272040 0.668010 -0.634988
O43   O     O_R   0.385640 0.727960 0.331990 -0.629233
O44   O     O_R   0.885640 0.772040 0.331990 -0.613779
O45   O     O_R   0.491650 0.166000 0.544070 -0.621324
O46   O     O_R   0.114360 0.227960 0.668010 -0.622759
O47   O     O_R   0.114360 0.772040 0.668010 -0.629232
O48   O     O_R   0.885640 0.227960 0.331990 -0.634967
O49   O     O_R   0.508350 0.834000 0.455930 -0.622170
O50   O     O_R   0.508350 0.166000 0.455930 -0.627553
O51   O     O_R   0.491650 0.834000 0.544070 -0.624849
O52   O     O_R   0.991650 0.666000 0.544070 -0.622170
Zn1   Zn    Zn3+2 0.574840 0.281480 0.562930 0.990737
Zn2   Zn    Zn3+2 0.488090 0.781450 0.562930 0.991387
Zn3   Zn    Zn3+2 0.488090 0.218550 0.562930 1.011377
Zn4   Zn    Zn3+2 0.511910 0.781450 0.437070 0.992269
Zn5   Zn    Zn3+2 0.011910 0.718550 0.437070 0.991390
Zn6   Zn    Zn3+2 0.988090 0.281450 0.562930 0.991712
Zn7   Zn    Zn3+2 0.988090 0.718550 0.562930 0.992269
Zn8   Zn    Zn3+2 0.011910 0.281450 0.437070 1.011274
Zn9   Zn    Zn3+2 0.425160 0.718520 0.437070 1.005956
Zn10  Zn    Zn3+2 0.425160 0.281480 0.437070 1.001867
Zn11  Zn    Zn3+2 0.574840 0.718520 0.562930 1.003430
Zn12  Zn    Zn3+2 0.074840 0.781480 0.562930 1.005953
Zn13  Zn    Zn3+2 0.925160 0.218520 0.437070 0.990740
Zn14  Zn    Zn3+2 0.925160 0.781480 0.437070 1.003431
Zn15  Zn    Zn3+2 0.074840 0.218520 0.562930 1.001904
Zn16  Zn    Zn3+2 0.511910 0.218550 0.437070 0.991697

loop_
_geom_bond_atom_site_label_1
_geom_bond_atom_site_label_2
_ccdc_geom_bond_type
C73   H26   S    
C105  C110  A    
C126  C127  A    
C198  C206  A    
C136  H77   S    
C224  O13   A    
C101  F10   S    
C209  C240  S    
C55   C56   A    
C114  C115  A    
C211  C220  A    
C12   C23   S    
C111  C118  A    
C15   O47   A    
C171  H4    S    
C164  O3    A    
C157  F15   S    
C181  F5    S    
C106  C107  A    
C107  H54   S    
C184  C193  A    
C70   H24   S    
C108  C109  A    
C222  O6    A    
C73   C74   A    
C37   C42   T    
C2    C90   A    
C233  C237  S    
O20   Zn7   S    
C7    C203  S    
C162  C171  A    
C68   C193  A    
C97   H47   S    
C14   O37   A    
O30   Zn13  S    
O18   Zn5   S    
C112  O51   A    
C59   C60   A    
C64   H19   S    
C146  F14   S    
C184  F8    S    
O35   Zn4   S    
C198  C218  A    
C175  O2    A    
O23   Zn14  S    
C76   C77   A    
C166  C174  A    
C1    O45   A    
C148  H87   S    
C140  C141  A    
C57   C192  A    
C22   C31   T    
C46   H56   S    
O27   Zn14  S    
C83   H35   S    
C179  C188  A    
C108  H55   S    
C175  C228  S    
C98   C193  S    
C5    O30   A    
C75   C76   A    
C181  C190  A    
C2    H12   S    
C154  H93   S    
C149  H88   S    
C106  H53   S    
C15   O38   A    
C202  C214  A    
C239  O26   A    
C163  C172  A    
C154  C155  A    
C52   C58   A    
C142  H83   S    
C4    O18   A    
C205  C214  A    
C35   C190  A    
O15   Zn2   S    
C118  H63   S    
C221  O5    A    
C176  C184  A    
C35   C124  A    
C72   C73   A    
C134  C136  A    
C139  C140  A    
C12   O44   A    
O7    Zn10  S    
C85   C191  S    
C58   H14   S    
C200  C209  A    
C3    C207  S    
C156  C158  A    
C130  C131  A    
C209  C217  A    
C23   C32   T    
C1    O50   A    
C130  H73   S    
C45   C50   T    
C53   H9    S    
C207  C216  A    
C79   F1    S    
C144  H85   S    
C88   C89   A    
C98   C99   A    
C3    O17   A    
C155  C156  A    
C109  C110  A    
C179  F3    S    
C143  C144  A    
C160  C216  S    
O34   Zn15  S    
C11   C18   S    
C143  H84   S    
C8    O31   A    
C147  C148  A    
C46   C191  A    
C128  C129  A    
C49   C197  S    
C85   C86   A    
C185  C230  A    
C86   H37   S    
C33   C42   S    
C140  H81   S    
C180  C189  A    
C78   C80   A    
C115  C116  A    
C229  C234  S    
C236  C237  T    
C2    C187  A    
C172  C181  A    
C176  H8    S    
C83   C84   A    
O23   Zn12  S    
C240  O16   A    
C11   O35   A    
C29   C38   S    
O24   Zn11  S    
C107  C108  A    
C230  H1    S    
C186  C197  T    
C59   C187  S    
C89   C91   A    
C61   H16   S    
C166  C215  S    
C124  C163  A    
C126  C198  S    
C208  C219  T    
C66   C67   A    
C46   C135  A    
C69   C70   A    
C96   H46   S    
O6    Zn9   S    
C199  C207  A    
C92   C97   A    
C194  C217  A    
C238  O25   A    
O1    Zn3   S    
C105  C194  S    
O2    Zn8   S    
O16   Zn3   S    
C8    C19   S    
C3    O24   A    
C127  H70   S    
C38   C41   T    
C137  H79   S    
O46   Zn15  S    
C139  C200  S    
C51   C219  S    
C16   O39   A    
C75   H28   S    
C19   C28   T    
C82   H33   S    
C168  H89   S    
O38   Zn7   S    
C84   H36   S    
O11   Zn14  S    
C7    O28   A    
O1    Zn16  S    
O21   Zn8   S    
O36   Zn5   S    
C173  H6    S    
C128  H71   S    
C125  H69   S    
C115  H60   S    
C228  C233  T    
C170  H3    S    
C100  H49   S    
O34   Zn13  S    
C121  H65   S    
C16   O48   A    
C169  H2    S    
C129  H72   S    
C44   C222  S    
O8    Zn11  S    
C120  C121  A    
O45   Zn3   S    
C129  C130  A    
C54   C55   A    
O23   Zn7   S    
C199  C213  A    
C36   C39   T    
C136  C137  A    
C133  H75   S    
C165  C212  S    
C113  F11   S    
C170  C179  A    
C88   H39   S    
C210  C239  S    
C147  H86   S    
C201  C210  A    
C124  F12   S    
C117  C118  A    
C223  O11   A    
C28   C37   S    
C57   H67   S    
C69   H22   S    
O5    Zn1   S    
C56   C58   A    
C30   C39   S    
C164  C227  S    
C60   H15   S    
C61   C62   A    
C76   H29   S    
C65   C188  S    
C9    O32   A    
C63   C64   A    
C152  C153  A    
C150  C151  A    
C153  H92   S    
C231  C235  S    
C164  O52   A    
C239  O15   A    
C99   H48   S    
C111  C195  S    
C206  C215  A    
C87   C88   A    
C162  C218  S    
C134  H76   S    
C95   H44   S    
C169  C178  A    
C66   H20   S    
C183  C192  A    
C157  C167  A    
O47   Zn12  S    
C171  C180  A    
C52   C53   A    
C93   C94   A    
C43   C221  S    
C182  F6    S    
C79   C159  A    
C123  C125  A    
O9    Zn12  S    
C117  H62   S    
C132  C138  A    
C168  C177  A    
C35   H45   S    
C177  C185  A    
C31   C40   S    
O10   Zn13  S    
C172  H5    S    
C155  H94   S    
C138  H80   S    
C174  H7    S    
C104  H52   S    
C160  C169  A    
C70   C71   A    
C67   H21   S    
C202  C211  A    
O28   Zn15  S    
O40   Zn10  S    
C10   O33   A    
O23   Zn5   S    
C57   C146  A    
C152  C202  S    
C156  H95   S    
C56   H13   S    
C145  C147  A    
C102  H50   S    
C90   F9    S    
C152  C158  A    
C123  H68   S    
C87   H38   S    
C18   C27   T    
C45   C223  S    
O51   Zn2   S    
O13   Zn15  S    
O14   Zn16  S    
C86   C87   A    
C47   C51   T    
C195  C204  A    
C223  O9    A    
C53   C54   A    
O50   Zn16  S    
C225  C229  T    
O39   Zn8   S    
C60   C61   A    
C71   H25   S    
C6    C204  S    
C62   C63   A    
C9    C20   S    
C135  C165  A    
C211  C238  S    
C89   H40   S    
C200  C212  A    
C121  C122  A    
C4    O29   A    
O12   Zn2   S    
C178  C187  A    
C119  C125  A    
O32   Zn2   S    
C114  H59   S    
C133  C134  A    
C93   H42   S    
O22   Zn10  S    
C182  C191  A    
C68   C157  A    
C1    C225  S    
C177  F16   S    
C16   C22   S    
C109  H57   S    
C174  C183  A    
C119  C120  A    
C238  O14   A    
O12   Zn9   S    
C27   C36   S    
C10   O42   A    
C105  C106  A    
O1    Zn10  S    
C150  H90   S    
C149  C150  A    
C163  C213  S    
C92   C93   A    
C183  F7    S    
C111  C114  A    
C14   C25   S    
C90   C160  A    
C94   C95   A    
O49   Zn4   S    
O43   Zn9   S    
C82   C83   A    
C161  C220  S    
C103  C104  A    
C224  O10   A    
C142  C143  A    
O34   Zn8   S    
O44   Zn14  S    
C92   C192  S    
C178  F2    S    
C44   C49   T    
C47   C224  S    
O31   Zn16  S    
O48   Zn13  S    
C95   C96   A    
C78   C190  S    
C232  C236  S    
C77   H30   S    
C81   C82   A    
C85   C91   A    
O29   Zn12  S    
O12   Zn11  S    
C116  C117  A    
C240  O22   A    
C6    O20   A    
C59   C64   A    
C54   H10   S    
C34   C40   T    
C17   C26   T    
C6    O27   A    
O33   Zn3   S    
C98   C104  A    
C173  C182  A    
C91   H41   S    
C10   C17   S    
C165  C173  A    
C226  C231  T    
C159  C168  A    
C119  C196  S    
C196  C205  A    
C201  C215  A    
C12   O36   A    
C113  C162  A    
O12   Zn4   S    
C26   C34   S    
O25   Zn1   S    
C132  C133  A    
C159  C217  S    
C24   C189  A    
O52   Zn7   S    
C94   H43   S    
C43   C48   T    
C21   C30   T    
C227  C232  T    
C146  C166  A    
C24   C113  A    
C13   C188  A    
O17   Zn4   S    
C102  C103  A    
C196  C220  A    
C151  H91   S    
C20   C29   T    
C180  F4    S    
O42   Zn1   S    
C112  C226  S    
C74   C75   A    
O41   Zn11  S    
O37   Zn6   S    
C55   H11   S    
C148  C149  A    
C81   H32   S    
C131  H74   S    
C158  H96   S    
C65   C71   A    
C204  C213  A    
C132  C199  S    
C67   C69   A    
C62   H17   S    
C14   O46   A    
C79   C230  A    
C48   C186  S    
C72   C77   A    
C8    O40   A    
C139  C144  A    
C7    O21   A    
C63   H18   S    
C99   C100  A    
C32   C41   S    
C96   C97   A    
C100  C102  A    
C195  C216  A    
C222  O8    A    
O34   Zn6   S    
C135  F13   S    
C145  C151  A    
C122  H66   S    
C161  C170  A    
C103  H51   S    
O19   Zn6   S    
O1    Zn1   S    
C203  C212  A    
C52   C185  S    
C13   C101  A    
C72   C189  S    
C112  O49   A    
C13   H23   S    
O4    Zn6   S    
C11   O43   A    
C80   H31   S    
C9    O41   A    
C141  H82   S    
C175  O4    A    
C80   C81   A    
C74   H27   S    
C116  H61   S    
C4    C206  S    
C137  C138  A    
C210  C218  A    
C101  C161  A    
C122  C123  A    
C141  C142  A    
C5    O19   A    
C145  C201  S    
C221  O7    A    
C126  C131  A    
C50   C208  S    
C194  C203  A    
O3    Zn5   S    
O26   Zn9   S    
C120  H64   S    
C68   H78   S    
C24   H34   S    
C5    C205  S    
C78   C84   A    
C15   C21   S    
C65   C66   A    
C234  C235  T    
C25   C33   T    
C110  H58   S    
C167  C214  S    
C153  C154  A    
C127  C128  A    
C167  C176  A    
