data_mof_unit_46497.cif
_audit_creation_date              2012-12-11T14:35:50-0500
_audit_creation_method            fapswitch 2.2
_symmetry_space_group_name_H-M    P1
_symmetry_Int_Tables_number       1
_space_group_crystal_system       triclinic
_cell_length_a                    14.545196
_cell_length_b                    15.959634
_cell_length_c                    6.947991
_cell_angle_alpha                 90.000024
_cell_angle_beta                  81.340862
_cell_angle_gamma                 90.000037
_cell_volume                      1594.49448891

loop_
_atom_site_label
_atom_site_type_symbol
_atom_type_description
_atom_site_fract_x
_atom_site_fract_y
_atom_site_fract_z
_atom_type_partial_charge
O1    O     O_R   0.337460 0.413110 0.524760 -0.516360
O2    O     O_R   0.662540 0.913110 0.475240 -0.516314
O3    O     O_R   0.348690 0.587910 0.191230 -0.503770
O4    O     O_R   0.651310 0.087910 0.808770 -0.503760
O5    O     O_R   0.166530 0.586890 0.082470 -0.549300
O6    O     O_R   0.833470 0.086890 0.917530 -0.549292
C1    C     C_R   0.370215 0.617177 0.353958 0.622209
C2    C     C_R   0.629789 0.117180 0.646042 0.622232
O7    O     O_R   0.348700 0.413830 0.191250 -0.514075
O8    O     O_R   0.651300 0.913830 0.808750 -0.514118
O9    O     O_R   0.166530 0.411570 0.082490 -0.552895
O10   O     O_R   0.833470 0.911570 0.917510 -0.552900
C3    C     C_R   0.371128 0.385885 0.354261 0.763920
C4    C     C_R   0.628871 0.885886 0.645739 0.763903
O11   O     O_R   0.337460 0.588430 0.524740 -0.561367
O12   O     O_R   0.662540 0.088430 0.475260 -0.561366
O13   O     O_3   0.192230 0.499460 0.407330 -0.395135
O14   O     O_3   0.807770 0.999460 0.592670 -0.395136
V1    V     V_3+5 0.263080 0.500100 0.108540 1.571730
V2    V     V_3+5 0.736920 0.000100 0.891460 1.571627
O15   O     O_R   0.155290 0.412090 0.756570 -0.531501
O16   O     O_R   0.844710 0.912090 0.243430 -0.531454
C5    C     C_R   0.132719 0.382887 0.932444 0.740615
C6    C     C_R   0.867284 0.882888 0.067554 0.740552
O17   O     O_R   0.155290 0.586170 0.756550 -0.553470
O18   O     O_R   0.844710 0.086170 0.243450 -0.553475
C7    C     C_R   0.133582 0.616081 0.932450 0.654985
C8    C     C_R   0.866428 0.116074 0.067545 0.655008
V3    V     V_3+5 0.240910 0.499900 0.616030 1.498714
V4    V     V_3+5 0.759090 0.999900 0.383970 1.498700
O19   O     O_3   0.311760 0.500540 0.867100 -0.343727
O20   O     O_3   0.688240 0.000540 0.132900 -0.343736
C9    C     C_3   0.054754 0.720912 0.180576 -0.293432
C10   C     C_3   0.945434 0.220757 0.819249 -0.293428
H1    H     H_    0.030421 0.670153 0.285733 0.180116
H2    H     H_    0.969867 0.169929 0.714342 0.180146
C11   C     C_3   0.986971 0.796030 0.215225 -0.296062
C12   C     C_3   0.013205 0.295882 0.784581 -0.295937
H3    H     H_    0.026433 0.853332 0.243715 0.135195
H4    H     H_    0.973759 0.353147 0.755740 0.135184
H5    H     H_    0.935861 0.784715 0.348430 0.195201
H6    H     H_    0.064418 0.284494 0.651566 0.195322
C13   C     C_3   0.965024 0.656343 0.934076 -0.365107
C14   C     C_3   0.034944 0.156397 0.066425 -0.365095
C15   C     C_3   0.089865 0.761887 0.828562 -0.320571
C16   C     C_3   0.910012 0.261971 0.171091 -0.320468
C17   C     C_3   0.062505 0.687063 0.967868 0.041919
C18   C     C_3   0.937507 0.187056 0.032124 0.041901
H7    H     H_    0.097991 0.740615 0.674379 0.144925
H8    H     H_    0.901740 0.240806 0.325378 0.144875
H9    H     H_    0.158145 0.787614 0.853809 0.168259
H10   H     H_    0.841771 0.287665 0.145448 0.168380
C19   C     C_3   0.937206 0.810662 0.035089 -0.035054
C20   C     C_3   0.062803 0.310656 0.964905 -0.035106
C21   C     C_3   0.890091 0.726380 0.985124 0.377389
C22   C     C_3   0.109887 0.226424 0.015329 0.377320
C23   C     C_3   0.014726 0.831904 0.861228 -0.409220
C24   C     C_3   0.985157 0.331987 0.138466 -0.409256
H11   H     H_    0.048373 0.892499 0.888566 0.166456
H12   H     H_    0.951536 0.392558 0.110807 0.166503
H13   H     H_    0.983463 0.839715 0.725631 0.151080
H14   H     H_    0.016302 0.339887 0.274187 0.151062
H15   H     H_    0.967495 0.638063 0.778762 0.122460
H16   H     H_    0.032344 0.138256 0.221871 0.122451
H17   H     H_    0.855948 0.737409 0.854333 0.062281
H18   H     H_    0.143933 0.237554 0.146211 0.062432
H19   H     H_    0.509202 0.849702 0.401056 0.191011
H20   H     H_    0.490826 0.349719 0.598884 0.191022
H21   H     H_    0.428452 0.697937 0.649455 0.194167
H22   H     H_    0.571529 0.197922 0.350550 0.194198
C25   C     C_2   0.435504 0.688918 0.344043 0.265570
C26   C     C_2   0.564511 0.188930 0.655957 0.265450
C27   C     C_2   0.455344 0.725280 0.509189 -0.220732
C28   C     C_2   0.544657 0.225281 0.490809 -0.220759
H23   H     H_    0.569992 0.766425 0.756684 0.238514
H24   H     H_    0.429989 0.266414 0.243344 0.238547
C29   C     C_2   0.565260 0.814424 0.650665 -0.193889
C30   C     C_2   0.434737 0.314421 0.349336 -0.193793
C31   C     C_2   0.511481 0.802374 0.512505 -0.008513
C32   C     C_2   0.488528 0.302379 0.487474 -0.008537
S1    S     S_3+6 0.484187 0.724898 0.110510 -0.016123
O21   O     O_2   0.417058 0.784947 0.039789 -0.351941
O22   O     O_2   0.575529 0.768400 0.113110 -0.302430
O23   O     O_3   0.501250 0.643187 0.956134 -0.510526
H25   H     H_    0.547782 0.607560 0.007509 0.360692
S2    S     S_3+6 0.515858 0.224927 0.889498 -0.016016
O24   O     O_2   0.583043 0.284909 0.960248 -0.351879
O25   O     O_2   0.424559 0.268503 0.886916 -0.302381
O26   O     O_3   0.498722 0.143207 0.043836 -0.510557
H26   H     H_    0.452207 0.107610 0.992423 0.360817
H27   H     H_    0.124438 0.740979 0.210992 0.141139
H28   H     H_    0.875788 0.240775 0.788471 0.141103
H29   H     H_    0.946787 0.598472 0.020577 0.182675
H30   H     H_    0.053264 0.098451 0.980240 0.182610
S3    S     S_3+6 0.799894 0.689641 0.174595 -0.014931
O27   O     O_2   0.740449 0.760909 0.261887 -0.320416
O28   O     O_2   0.739954 0.628009 0.086982 -0.318059
O29   O     O_3   0.846975 0.641534 0.351906 -0.540336
H31   H     H_    0.793655 0.628012 0.453453 0.367473
S4    S     S_3+6 0.200197 0.189589 0.826200 -0.015004
O30   O     O_2   0.259551 0.260844 0.738491 -0.320274
O31   O     O_2   0.260199 0.128173 0.914335 -0.318335
O32   O     O_3   0.153254 0.141164 0.649100 -0.540370
H32   H     H_    0.206696 0.127112 0.548327 0.367651

loop_
_geom_bond_atom_site_label_1
_geom_bond_atom_site_label_2
_ccdc_geom_bond_type
H20   C32   S    
V4    O20   S    
C24   H14   S    
O13   V3    S    
S3    O27   D    
O4    C2    A    
V1    O19   S    
S1    O21   D    
S3    O29   S    
C13   H15   S    
C14   H16   S    
O9    V1    S    
H24   C30   S    
C12   H6    S    
O3    C1    A    
C9    H27   S    
C1    C25   S    
C30   C32   D    
C23   H11   S    
C15   H9    S    
C24   H12   S    
C16   H10   S    
C4    C29   S    
O7    C3    A    
C9    H1    S    
O5    C7    A    
O7    V1    S    
O6    C8    A    
O8    V2    S    
H22   C28   S    
O3    V1    S    
O14   V4    S    
C10   H2    S    
C11   C19   S    
C15   C17   S    
C2    O12   A    
C28   C32   S    
C16   C24   S    
S4    O31   D    
S1    O22   D    
O11   V3    S    
C16   C18   S    
C19   C21   S    
O17   V3    S    
C20   C22   S    
C2    C26   S    
S2    O25   D    
H19   C31   S    
O23   H25   S    
C21   S3    S    
O8    C4    A    
C25   C27   D    
C19   C23   S    
S2    O24   D    
O13   V1    S    
C1    O11   A    
C6    C19   S    
O15   V3    S    
S4    O32   S    
C9    C11   S    
C10   C12   S    
C14   C22   S    
C12   C20   S    
C15   H7    S    
C15   C23   S    
O10   V2    S    
O1    V3    S    
C27   C31   S    
C29   C31   D    
H21   C27   S    
H23   C29   S    
O5    V1    S    
C26   C28   D    
O18   V4    S    
O15   C5    A    
C9    C17   S    
O16   C6    A    
C10   C18   S    
C22   S4    S    
O12   V4    S    
S1    O23   S    
C5    C20   S    
V2    O20   S    
C7    C17   S    
C16   H8    S    
C3    C30   S    
C8    C18   S    
O16   V4    S    
C21   H17   S    
S2    O26   S    
C26   S2    S    
S3    O28   D    
C23   H13   S    
C13   C21   S    
O17   C7    A    
O6    V2    S    
O10   C6    A    
O18   C8    A    
O2    V4    S    
V3    O19   S    
C12   H4    S    
C22   H18   S    
O9    C5    A    
S4    O30   D    
C13   H29   S    
O14   V2    S    
C11   H5    S    
O2    C4    A    
C10   H28   S    
C14   H30   S    
O4    V2    S    
O1    C3    A    
C11   H3    S    
O29   H31   S    
C20   C24   S    
O32   H32   S    
O26   H26   S    
C13   C17   S    
C14   C18   S    
C25   S1    S    
