data_mof_unit_18198.cif
_audit_creation_date              2012-10-26T17:13:03-0400
_audit_creation_method            fapswitch 2.2
_symmetry_space_group_name_H-M    P1
_symmetry_Int_Tables_number       1
_space_group_crystal_system       triclinic
_cell_length_a                    16.792308
_cell_length_b                    16.818351
_cell_length_c                    16.778587
_cell_angle_alpha                 67.604612
_cell_angle_beta                  67.725236
_cell_angle_gamma                 67.676647
_cell_volume                      3897.75772704

loop_
_atom_site_label
_atom_site_type_symbol
_atom_type_description
_atom_site_fract_x
_atom_site_fract_y
_atom_site_fract_z
_atom_type_partial_charge
C1    C     C_R   0.324026 0.957136 0.449017 -0.008076
C2    C     C_R   0.310665 0.431792 0.005793 -0.011971
C3    C     C_R   0.548138 0.428447 0.955789 0.001444
C4    C     C_R   0.047372 0.452632 0.570157 0.001965
C5    C     C_R   0.973866 0.545030 0.421396 0.003264
C6    C     C_3   0.328705 0.897957 0.835784 -0.259454
C7    C     C_3   0.233598 0.961757 0.846034 -0.307195
C8    C     C_3   0.186860 0.968635 0.941584 -0.470260
C9    C     C_3   0.595626 0.197115 0.173663 -0.231628
C10   C     C_3   0.679222 0.166252 0.100535 -0.293166
C11   C     C_3   0.707420 0.066206 0.109397 -0.428976
C12   C     C_3   0.907013 0.836297 0.328256 -0.252633
C13   C     C_R   0.994595 0.689684 0.567790 -0.009968
C14   C     C_3   0.999019 0.854298 0.278826 -0.294875
C15   C     C_3   0.991516 0.953457 0.235459 -0.452289
C16   C     C_3   0.154994 0.162355 0.637599 -0.247816
C17   C     C_3   0.081897 0.121565 0.712784 -0.316320
C18   C     C_3   0.086330 0.032473 0.706047 -0.441215
C19   C     C_3   0.838874 0.363030 0.848094 -0.252457
C20   C     C_3   0.882225 0.301561 0.924252 -0.303024
C21   C     C_3   0.983599 0.274620 0.890193 -0.446278
C22   C     C_3   0.167257 0.668857 0.099206 -0.254368
C23   C     C_3   0.155890 0.715116 0.003917 -0.296467
C24   C     C_R   0.012983 0.308131 0.431330 -0.008899
C25   C     C_3   0.059934 0.770101 0.003705 -0.449496
C26   C     C_3   0.284207 0.812166 0.733323 -0.262851
C27   C     C_3   0.335297 0.725622 0.704542 -0.298192
C28   C     C_3   0.283842 0.654955 0.754614 -0.439737
C29   C     C_3   0.712521 0.196935 0.272080 -0.248687
C30   C     C_3   0.809190 0.140991 0.242385 -0.310823
C31   C     C_3   0.872148 0.200447 0.188616 -0.432954
C32   C     C_3   0.738868 0.253599 0.843122 -0.264564
C33   C     C_3   0.743241 0.280442 0.743593 -0.306187
C34   C     C_3   0.797141 0.202052 0.703220 -0.420096
C35   C     C_R   0.447998 0.997832 0.452507 -0.000150
C36   C     C_3   0.270604 0.714645 0.182842 -0.258203
C37   C     C_3   0.244734 0.816035 0.139899 -0.315401
C38   C     C_3   0.240235 0.866351 0.200637 -0.432931
C39   C     C_3   0.895420 0.734222 0.224852 -0.261339
C40   C     C_3   0.794400 0.764359 0.235420 -0.303749
C41   C     C_3   0.774386 0.815504 0.145019 -0.444362
C42   C     C_3   0.183634 0.264370 0.728966 -0.260126
C43   C     C_3   0.282759 0.261046 0.683727 -0.306140
C44   C     C_3   0.339945 0.202461 0.748600 -0.425210
C45   C     C_R   0.545782 0.011026 0.548964 0.000281
C46   C     C_R   0.001751 0.450414 0.448388 0.000302
C47   C     C_R   0.015058 0.547087 0.545765 -0.000626
C48   C     C_R   0.453631 0.452426 0.987692 -0.002003
C49   C     C_R   0.550010 0.550451 0.000800 -0.000397
C50   C     C_R   0.014208 0.831504 0.569734 0.563579
C51   C     C_R   0.673991 0.045379 0.551961 -0.008039
C52   C     C_R   0.987147 0.168097 0.430164 0.561886
C53   C     C_R   0.831967 0.569981 0.012770 0.562276
C54   C     C_R   0.168664 0.430450 0.985404 0.558332
C55   C     C_R   0.570011 0.012920 0.831989 0.560374
C56   C     C_R   0.429984 0.987283 0.168222 0.559650
C57   C     C_R   0.435361 0.171770 0.971439 0.552259
C58   C     C_R   0.565076 0.828253 0.027423 0.553311
C59   C     C_R   0.973105 0.434713 0.171679 0.555450
C60   C     C_R   0.028630 0.564635 0.828275 0.552706
C61   C     C_R   0.171681 0.972200 0.435206 0.558460
C62   C     C_R   0.962197 0.447095 0.323228 -0.008278
C63   C     C_R   0.828200 0.027859 0.564868 0.555113
C64   C     C_R   0.400689 0.988921 0.403781 0.026895
C65   C     C_R   0.595825 0.016156 0.597299 0.025270
C66   C     C_R   0.992331 0.401914 0.401055 0.026179
C67   C     C_R   0.019667 0.595815 0.595681 0.025900
C68   C     C_R   0.404759 0.403362 0.981750 0.024956
C69   C     C_R   0.598100 0.598832 0.009150 0.027097
C70   C     C_R   0.269160 0.963661 0.398213 -0.027507
C71   C     C_R   0.730502 0.036573 0.602379 -0.031048
C72   C     C_R   0.965575 0.397145 0.269305 -0.031098
C73   C     C_R   0.048063 0.551103 0.674342 -0.008664
C74   C     C_R   0.039372 0.601713 0.730261 -0.032018
C75   C     C_R   0.398672 0.269722 0.960781 -0.032884
C76   C     C_R   0.602543 0.730725 0.035310 -0.030317
C77   C     C_R   0.611251 0.009136 0.738350 -0.026937
C78   C     C_R   0.389003 0.990988 0.262412 -0.026077
C79   C     C_R   0.738338 0.611234 0.008323 -0.024432
C80   C     C_R   0.263160 0.389738 0.987079 -0.025149
C81   C     C_R   0.012344 0.737251 0.610523 -0.024671
C82   C     C_R   0.991344 0.261777 0.389733 -0.024546
C83   C     C_R   0.501424 0.946080 0.735594 -0.121519
C84   C     C_R   0.449560 0.324924 0.953364 -0.009247
C85   C     C_R   0.493474 0.061437 0.265682 -0.128552
C86   C     C_R   0.951923 0.733259 0.499049 -0.122937
C87   C     C_R   0.057581 0.263866 0.499137 -0.125824
C88   C     C_R   0.736402 0.504346 0.940025 -0.128189
C89   C     C_R   0.266966 0.499653 0.049435 -0.129040
C90   C     C_R   0.305444 0.919467 0.542371 -0.137044
C91   C     C_R   0.690777 0.085686 0.459283 -0.130686
C92   C     C_R   0.542717 0.305327 0.916752 -0.133234
C93   C     C_R   0.459544 0.694303 0.077133 -0.131389
C94   C     C_R   0.929551 0.540299 0.301546 -0.126929
C95   C     C_R   0.552537 0.675952 0.040176 -0.007491
C96   C     C_R   0.087041 0.458508 0.692960 -0.132410
C97   C     C_R   0.305646 0.974419 0.306395 -0.172492
C98   C     C_R   0.694765 0.025287 0.694373 -0.167953
C99   C     C_R   0.974068 0.306012 0.306511 -0.168730
C100  C     C_R   0.029578 0.693284 0.693767 -0.168196
C101  C     C_R   0.307150 0.306748 0.969631 -0.168848
C102  C     C_R   0.693899 0.693785 0.026682 -0.165106
C103  C     C_R   0.636202 0.090151 0.409640 0.000704
C104  C     C_R   0.356559 0.920312 0.592258 0.001734
C105  C     C_R   0.088099 0.407520 0.641804 0.003593
C106  C     C_R   0.568608 0.990708 0.691334 -0.010089
C107  C     C_R   0.938846 0.590876 0.346226 0.001511
C108  C     C_R   0.410148 0.643675 0.075058 0.001951
C109  C     C_R   0.593624 0.355792 0.917246 -0.003332
C110  C     C_R   0.535347 0.079925 0.313025 -0.001271
C111  C     C_R   0.449695 0.940295 0.689897 -0.000808
C112  C     C_R   0.313203 0.549852 0.056203 0.000437
C113  C     C_R   0.690534 0.456250 0.928110 0.001842
C114  C     C_R   0.073172 0.310104 0.544386 -0.000025
C115  C     C_R   0.949191 0.687768 0.445578 0.001565
C116  C     C_R   0.647217 0.139084 0.317265 0.014254
C117  C     C_R   0.429448 0.012663 0.309526 -0.006820
C118  C     C_R   0.338611 0.880798 0.686654 0.012441
C119  C     C_R   0.128636 0.313266 0.660299 0.013312
C120  C     C_R   0.916053 0.685945 0.315549 0.010952
C121  C     C_R   0.316000 0.662255 0.113384 0.011074
C122  C     C_R   0.688648 0.334167 0.881629 0.004423
C123  C     C_R   0.594194 0.136183 0.269202 0.030099
C124  C     C_R   0.376065 0.902507 0.736447 0.009819
C125  C     C_R   0.266582 0.623209 0.093924 0.008981
C126  C     C_R   0.737014 0.386248 0.884975 0.009723
C127  C     C_R   0.120361 0.264343 0.611720 0.011739
C128  C     C_R   0.691974 0.570451 0.986163 -0.009085
C129  C     C_R   0.919775 0.735088 0.366360 0.011103
C130  C     C_R   0.517379 0.041059 0.406635 0.001155
C131  C     C_R   0.473409 0.971870 0.595301 0.002860
C132  C     C_R   0.040463 0.404273 0.521429 0.002398
C133  C     C_R   0.979812 0.593315 0.470455 0.003114
C134  C     C_R   0.407557 0.525627 0.025345 0.002799
C135  C     C_R   0.596345 0.477946 0.961821 0.002525
C136  C     C_R   0.566958 0.046870 0.454780 0.001598
C137  C     C_R   0.425167 0.964335 0.546939 0.002201
C138  C     C_R   0.455718 0.574172 0.032458 0.003276
Cu1   Cu    Cu3+1 0.995180 0.995180 0.424630 0.847420
Cu2   Cu    Cu3+1 0.004820 0.004820 0.575370 0.837131
Cu3   Cu    Cu3+1 0.995180 0.424630 0.995180 0.858078
Cu4   Cu    Cu3+1 0.004820 0.575370 0.004820 0.855044
Cu5   Cu    Cu3+1 0.424630 0.995180 0.995180 0.853366
Cu6   Cu    Cu3+1 0.575370 0.004820 0.004820 0.853136
H1    H     H_    0.267121 0.973623 0.268026 0.150178
H2    H     H_    0.084068 0.193062 0.512953 0.154867
H3    H     H_    0.290216 0.329941 0.659259 0.164263
H4    H     H_    0.159247 0.292963 0.785791 0.128027
H5    H     H_    0.176232 0.196221 0.765184 0.130678
H6    H     H_    0.807061 0.493368 0.910466 0.150864
H7    H     H_    0.197063 0.509328 0.084042 0.152786
H8    H     H_    0.252240 0.887419 0.575362 0.140455
H9    H     H_    0.743490 0.118167 0.428258 0.135237
H10   H     H_    0.573617 0.253303 0.883416 0.139608
H11   H     H_    0.426372 0.746828 0.109949 0.145560
H12   H     H_    0.892040 0.572502 0.252590 0.139831
H13   H     H_    0.119968 0.428932 0.745240 0.131073
H14   H     H_    0.172749 0.904305 0.985281 0.148552
H15   H     H_    0.733302 0.026453 0.732786 0.150143
H16   H     H_    0.228505 0.986225 0.966861 0.150932
H17   H     H_    0.122091 0.021387 0.943326 0.134705
H18   H     H_    0.237529 0.029459 0.801373 0.161997
H19   H     H_    0.191797 0.938655 0.826749 0.165420
H20   H     H_    0.328381 0.828457 0.876860 0.131153
H21   H     H_    0.361877 0.919690 0.866172 0.152913
H22   H     H_    0.723740 0.025874 0.173948 0.154390
H23   H     H_    0.653841 0.046957 0.104029 0.181537
H24   H     H_    0.768133 0.050714 0.054121 0.109715
H25   H     H_    0.664375 0.202316 0.035237 0.161162
H26   H     H_    0.970068 0.268375 0.269022 0.149328
H27   H     H_    0.736207 0.185974 0.097772 0.150653
H28   H     H_    0.535171 0.208346 0.154653 0.130923
H29   H     H_    0.587933 0.266653 0.170279 0.117260
H30   H     H_    0.947149 0.982298 0.190548 0.132831
H31   H     H_    0.965716 0.988427 0.288126 0.175902
H32   H     H_    0.058367 0.963193 0.194582 0.134086
H33   H     H_    0.040573 0.827933 0.326237 0.184492
H34   H     H_    0.033941 0.819077 0.225730 0.143015
H35   H     H_    0.863594 0.868052 0.282489 0.134909
H36   H     H_    0.869118 0.872734 0.379926 0.136944
H37   H     H_    0.032760 0.731216 0.731639 0.153711
H38   H     H_    0.058303 0.045077 0.651405 0.213864
H39   H     H_    0.156477 0.991085 0.691060 0.149276
H40   H     H_    0.046294 0.996273 0.769634 0.115970
H41   H     H_    0.089391 0.111531 0.779083 0.142965
H42   H     H_    0.014013 0.167175 0.710398 0.159871
H43   H     H_    0.180782 0.135490 0.579057 0.141467
H44   H     H_    0.217054 0.137701 0.658730 0.132400
H45   H     H_    0.005111 0.239333 0.838445 0.141366
H46   H     H_    0.007978 0.335062 0.861230 0.183775
H47   H     H_    0.012930 0.229323 0.946439 0.126662
H48   H     H_    0.269183 0.269299 0.965814 0.151623
H49   H     H_    0.862518 0.336227 0.976183 0.175841
H50   H     H_    0.858980 0.240074 0.956426 0.144133
H51   H     H_    0.863566 0.331552 0.792911 0.142639
H52   H     H_    0.862766 0.423894 0.813406 0.139653
H53   H     H_    0.015614 0.725396 0.032340 0.161638
H54   H     H_    0.036041 0.819559 0.042333 0.131530
H55   H     H_    0.057127 0.806944 0.933613 0.134808
H56   H     H_    0.199986 0.760326 0.966879 0.152316
H57   H     H_    0.176095 0.664930 0.967144 0.182158
H58   H     H_    0.125995 0.621171 0.137967 0.138673
H59   H     H_    0.731292 0.730773 0.031970 0.149673
H60   H     H_    0.138547 0.720691 0.135001 0.133769
H61   H     H_    0.216228 0.681133 0.743584 0.160128
H62   H     H_    0.320760 0.594736 0.729760 0.145891
H63   H     H_    0.277182 0.634905 0.827497 0.159059
H64   H     H_    0.346873 0.739173 0.631490 0.164362
H65   H     H_    0.401566 0.698314 0.718826 0.171810
H66   H     H_    0.269589 0.792932 0.806884 0.141017
H67   H     H_    0.217598 0.839866 0.720377 0.124482
H68   H     H_    0.942342 0.158540 0.172282 0.139771
H69   H     H_    0.854877 0.243702 0.125238 0.142063
H70   H     H_    0.496065 0.908334 0.804674 0.141073
H71   H     H_    0.866400 0.243366 0.227992 0.166919
H72   H     H_    0.832310 0.093484 0.301303 0.167830
H73   H     H_    0.813302 0.100957 0.200916 0.157975
H74   H     H_    0.696124 0.251859 0.213525 0.143319
H75   H     H_    0.707106 0.233263 0.317828 0.128990
H76   H     H_    0.867598 0.180460 0.705541 0.151709
H77   H     H_    0.767505 0.145054 0.741003 0.157074
H78   H     H_    0.796447 0.222405 0.632217 0.161041
H79   H     H_    0.674473 0.303891 0.735853 0.162092
H80   H     H_    0.774887 0.336231 0.705612 0.165885
H81   H     H_    0.507992 0.087521 0.194417 0.150823
H82   H     H_    0.807010 0.222149 0.852259 0.134849
H83   H     H_    0.708720 0.197073 0.881479 0.132276
H84   H     H_    0.220801 0.939377 0.168110 0.150868
H85   H     H_    0.190201 0.850652 0.266181 0.159379
H86   H     H_    0.306735 0.847184 0.212239 0.168144
H87   H     H_    0.293509 0.835163 0.074211 0.174544
H88   H     H_    0.178167 0.837525 0.128303 0.143921
H89   H     H_    0.210582 0.693719 0.231689 0.133742
H90   H     H_    0.315953 0.695843 0.225056 0.139797
H91   H     H_    0.798661 0.876245 0.114850 0.136921
H92   H     H_    0.916486 0.802534 0.490976 0.149784
H93   H     H_    0.807969 0.772540 0.098648 0.161852
H94   H     H_    0.701047 0.836101 0.154237 0.174318
H95   H     H_    0.767674 0.705104 0.265199 0.162598
H96   H     H_    0.759098 0.808158 0.281055 0.163878
H97   H     H_    0.924415 0.791594 0.188090 0.132764
H98   H     H_    0.930387 0.691762 0.178334 0.140459
H99   H     H_    0.411040 0.202063 0.714119 0.152176
H100  H     H_    0.317337 0.228862 0.807327 0.159781
H101  H     H_    0.335475 0.132563 0.772051 0.165679
H102  H     H_    0.307925 0.233813 0.625150 0.167441
O1    O     O_R   0.124540 0.978640 0.385460 -0.509413
O2    O     O_R   0.124540 0.385460 0.978640 -0.511955
O3    O     O_R   0.021360 0.875460 0.614540 -0.512436
O4    O     O_R   0.978640 0.124540 0.385460 -0.511711
O5    O     O_R   0.013780 0.867370 0.487190 -0.519755
O6    O     O_R   0.986220 0.132630 0.512810 -0.530903
O7    O     O_R   0.867370 0.487190 0.013780 -0.518440
O8    O     O_R   0.132630 0.512810 0.986220 -0.522427
O9    O     O_R   0.487190 0.013780 0.867370 -0.519709
O10   O     O_R   0.512810 0.986220 0.132630 -0.524730
O11   O     O_R   0.512810 0.132630 0.986220 -0.519627
O12   O     O_R   0.875460 0.021360 0.614540 -0.510879
O13   O     O_R   0.487190 0.867370 0.013780 -0.520056
O14   O     O_R   0.986220 0.512810 0.132630 -0.521484
O15   O     O_R   0.013780 0.487190 0.867370 -0.524759
O16   O     O_R   0.132630 0.986220 0.512810 -0.531461
O17   O     O_R   0.867370 0.013780 0.487190 -0.520352
O18   O     O_R   0.978640 0.385460 0.124540 -0.506129
O19   O     O_R   0.021360 0.614540 0.875460 -0.507392
O20   O     O_R   0.385460 0.124540 0.978640 -0.508519
O21   O     O_R   0.614540 0.875460 0.021360 -0.511665
O22   O     O_R   0.614540 0.021360 0.875460 -0.512196
O23   O     O_R   0.385460 0.978640 0.124540 -0.516721
O24   O     O_R   0.875460 0.614540 0.021360 -0.515769

loop_
_geom_bond_atom_site_label_1
_geom_bond_atom_site_label_2
_ccdc_geom_bond_type
C61   C70   S    
C37   H88   S    
C79   C128  A    
C19   H51   S    
C1    C90   A    
C116  C123  A    
Cu1   O17   S    
C28   H62   S    
C82   C99   A    
C20   H49   S    
C15   H31   S    
C19   C20   S    
Cu2   O6    S    
Cu4   O19   S    
C6    C124  S    
C108  C121  A    
C96   C105  A    
C101  H48   S    
C42   H4    S    
C77   C106  A    
C110  C130  A    
C21   H46   S    
C58   C76   S    
C7    C8    S    
C38   H86   S    
C99   H26   S    
C41   H93   S    
C92   C109  A    
C10   H25   S    
C5    C133  A    
Cu6   O10   S    
C89   C112  A    
C26   C27   S    
C37   C38   S    
C53   O7    A    
C15   H32   S    
C23   H57   S    
C25   H55   S    
C40   H96   S    
C48   C134  A    
C36   C37   S    
C87   H2    S    
C61   O16   A    
C46   C66   A    
C40   H95   S    
C2    C68   A    
C8    H17   S    
C39   C120  S    
C76   C95   A    
C46   C132  A    
C30   C31   S    
C55   C77   S    
C34   H76   S    
C109  C122  A    
C21   H47   S    
C31   H71   S    
C16   C127  S    
C18   H38   S    
C43   H102  S    
C36   H90   S    
Cu5   Cu6   S    
C13   C81   A    
C3    C48   A    
C27   H65   S    
Cu3   O2    S    
C56   C78   S    
C104  C137  A    
C27   H64   S    
C51   C65   A    
C20   H50   S    
C88   C113  A    
C42   H5    S    
C24   C82   A    
C87   C114  A    
C88   H6    S    
C25   H54   S    
C51   C91   A    
C31   H68   S    
C69   C128  A    
C17   H41   S    
C16   C17   S    
C13   C86   A    
C11   H22   S    
C79   C102  A    
C9    H29   S    
C35   C64   A    
C67   C73   A    
C54   O2    A    
C9    C10   S    
C60   O19   A    
C55   O22   A    
C104  C118  A    
C34   H77   S    
C24   C66   A    
C59   C72   S    
C39   H98   S    
C49   C69   A    
C55   O9    A    
C96   H13   S    
C49   C135  A    
C6    H21   S    
C8    H14   S    
C19   H52   S    
C93   C95   A    
Cu5   O9    S    
C49   C138  A    
C47   C133  A    
C11   H23   S    
C28   H61   S    
C54   O8    A    
Cu6   O22   S    
C51   C71   A    
C88   C128  A    
C56   O23   A    
C10   H27   S    
C47   C67   A    
C7    H18   S    
C33   C34   S    
C38   H85   S    
C54   C80   S    
C41   H94   S    
C22   C23   S    
C73   C74   A    
C76   C102  A    
C71   C98   A    
Cu3   O15   S    
C94   C107  A    
C3    C135  A    
C12   C129  S    
C62   C66   A    
C120  C129  A    
C68   C84   A    
C32   C122  S    
C59   O18   A    
C93   H11   S    
C78   C117  A    
Cu5   O13   S    
C4    C132  A    
C85   C110  A    
C16   H44   S    
C63   O12   A    
C112  C134  A    
C39   C40   S    
C22   H58   S    
C22   C125  S    
C74   C100  A    
C113  C126  A    
C41   H91   S    
C36   H89   S    
C7    H19   S    
C23   H56   S    
C130  C136  A    
C86   H92   S    
C64   C117  A    
C86   C115  A    
C75   C84   A    
C122  C126  A    
C2    C89   A    
C52   C82   S    
C103  C136  A    
Cu4   O24   S    
C121  C125  A    
C29   C30   S    
C131  C137  A    
C110  C123  A    
C21   H45   S    
C32   H83   S    
C18   H40   S    
C17   H42   S    
C20   C21   S    
C78   C97   A    
C17   C18   S    
C62   C72   A    
C77   C98   A    
C26   H66   S    
C118  C124  A    
C48   C68   A    
C85   C117  A    
Cu6   O11   S    
C52   O6    A    
C35   C130  A    
C90   C104  A    
C112  C125  A    
C14   H34   S    
C50   O3    A    
Cu2   O12   S    
C44   H101  S    
C30   H73   S    
C33   H79   S    
C90   H8    S    
C29   H74   S    
C12   H36   S    
C29   C116  S    
C32   H82   S    
C57   O20   A    
C45   C131  A    
C56   O10   A    
C43   C44   S    
C45   C65   A    
C11   H24   S    
Cu3   O18   S    
C97   H1    S    
C59   O14   A    
Cu6   O21   S    
C85   H81   S    
C42   C43   S    
Cu4   O14   S    
C8    H16   S    
C1    C64   A    
C107  C120  A    
C83   H70   S    
C44   H100  S    
C38   H84   S    
C5    C107  A    
C111  C131  A    
C37   H87   S    
C40   C41   S    
C45   C136  A    
C13   C67   A    
C15   H30   S    
C53   C79   S    
C111  C124  A    
Cu5   O23   S    
C114  C132  A    
C60   O15   A    
Cu1   O5    S    
Cu2   O3    S    
C26   C118  S    
C91   C103  A    
C69   C95   A    
C16   H43   S    
C63   O17   A    
C134  C138  A    
C92   H10   S    
Cu1   Cu2   S    
C70   C97   A    
C25   H53   S    
C91   H9    S    
C6    C7    S    
C31   H69   S    
C81   C100  A    
C115  C129  A    
C61   O1    A    
C115  C133  A    
C4    C105  A    
C58   O13   A    
C19   C126  S    
C65   C106  A    
C1    C70   A    
Cu4   O8    S    
C83   C106  A    
C22   H60   S    
C80   C101  A    
Cu5   O20   S    
Cu3   O7    S    
C32   C33   S    
C57   C75   S    
C2    C80   A    
C62   C94   A    
C36   C121  S    
C12   C14   S    
C93   C108  A    
Cu3   Cu4   S    
C35   C137  A    
C26   H67   S    
C108  C138  A    
C114  C127  A    
C58   O21   A    
Cu1   O1    S    
C52   O4    A    
C18   H39   S    
C3    C109  A    
C60   C74   S    
C9    C123  S    
C102  H59   S    
C103  C116  A    
C83   C111  A    
C23   C25   S    
C6    H20   S    
C42   C119  S    
C24   C87   A    
C14   H33   S    
C43   H3    S    
C10   C11   S    
C30   H72   S    
Cu1   O4    S    
C33   H80   S    
C29   H75   S    
C12   H35   S    
C98   H15   S    
C50   C81   S    
C94   H12   S    
C53   O24   A    
C113  C135  A    
C89   H7    S    
C27   C28   S    
C75   C101  A    
C28   H63   S    
C14   C15   S    
C105  C119  A    
C9    H28   S    
Cu2   O16   S    
C84   C92   A    
C73   C96   A    
C39   H97   S    
C57   O11   A    
C63   C71   S    
C4    C47   A    
C100  H37   S    
C50   O5    A    
C34   H78   S    
C44   H99   S    
C5    C46   A    
C72   C99   A    
C119  C127  A    
