data_mof_unit_25029.cif
_audit_creation_date              2012-10-26T19:21:03-0400
_audit_creation_method            fapswitch 2.2
_symmetry_space_group_name_H-M    P1
_symmetry_Int_Tables_number       1
_space_group_crystal_system       triclinic
_cell_length_a                    9.834551
_cell_length_b                    11.042318
_cell_length_c                    13.488444
_cell_angle_alpha                 95.095597
_cell_angle_beta                  81.75909
_cell_angle_gamma                 111.096761
_cell_volume                      1351.40376225

loop_
_atom_site_label
_atom_site_type_symbol
_atom_type_description
_atom_site_fract_x
_atom_site_fract_y
_atom_site_fract_z
_atom_type_partial_charge
C1    C     C_R   0.556956 0.745240 0.506940 0.532782
C2    C     C_R   0.378295 0.481881 0.799476 -0.071584
C3    C     C_2   0.587497 0.883705 0.518278 -0.128969
C4    C     C_R   0.424155 0.493843 0.690666 0.539702
C5    C     C_2   0.494612 0.933816 0.491274 -0.156054
C6    C     C_2   0.416042 0.115957 0.486581 -0.108162
C7    C     C_2   0.508962 0.068041 0.518732 0.243563
C8    C     C_2   0.933315 0.509599 0.481824 0.025517
C9    C     C_2   0.081982 0.516707 0.506902 0.455089
C10   C     C_R   0.443482 0.254647 0.493776 0.555915
C11   C     C_R   0.577284 0.511916 0.309938 0.533142
C12   C     C_R   0.444881 0.472812 0.966519 -0.021991
C13   C     C_R   0.809834 0.618973 0.066301 -0.146279
C14   C     C_R   0.623764 0.526429 0.202375 -0.015907
C15   C     C_R   0.232421 0.407226 0.831302 -0.169824
C16   C     C_R   0.192662 0.358512 0.926752 0.271923
C17   C     C_R   0.301132 0.378655 0.989969 0.277095
C18   C     C_3   0.157654 0.722051 0.581738 -0.116781
C19   C     C_3   0.119194 0.277440 0.348517 -0.024800
C20   C     C_R   0.885273 0.731317 0.868870 0.012516
C21   C     C_R   0.004202 0.686961 0.851233 -0.096755
C22   C     C_R   0.146591 0.774211 0.826158 -0.111683
C23   C     C_R   0.482517 0.524908 0.869767 -0.044872
C24   C     C_R   0.170534 0.905227 0.814957 -0.137835
C25   C     C_R   0.052219 0.949230 0.829063 -0.110525
C26   C     C_R   0.909971 0.862773 0.856211 -0.091779
C27   C     C_3   0.310624 0.192884 0.042573 -0.121500
C28   C     C_3   0.974616 0.338591 0.018375 -0.097434
C29   C     C_3   0.571826 0.140774 0.674553 -0.106357
C30   C     C_R   0.553554 0.514045 0.034204 0.017967
C31   C     C_R   0.701823 0.589118 0.000272 0.038315
C32   C     C_R   0.736040 0.641627 0.904620 -0.019001
C33   C     C_R   0.624142 0.617038 0.844514 -0.112902
C34   C     C_R   0.516689 0.492177 0.136970 -0.114552
C35   C     C_R   0.771312 0.584548 0.165702 -0.149248
Cu1   Cu    Cu3+1 0.362000 0.479240 0.482530 1.018708
Cu2   Cu    Cu3+1 0.638000 0.520760 0.517470 0.946593
H1    H     H_    0.855876 0.612235 0.215339 0.132742
H2    H     H_    0.650314 0.670917 0.776956 0.140895
H3    H     H_    0.067224 0.746706 0.626878 0.122097
H4    H     H_    0.167670 0.750896 0.503139 0.091196
H5    H     H_    0.259158 0.782655 0.614029 0.147161
H6    H     H_    0.232210 0.282574 0.319317 0.167386
H7    H     H_    0.048295 0.225879 0.289769 0.123013
H8    H     H_    0.077133 0.218677 0.416696 0.120931
H9    H     H_    0.986904 0.585621 0.859292 0.113784
H10   H     H_    0.238166 0.739998 0.814439 0.122549
H11   H     H_    0.280589 0.972535 0.794968 0.086397
H12   H     H_    0.405093 0.874342 0.449861 0.107127
H13   H     H_    0.071002 0.050643 0.820057 0.146665
H14   H     H_    0.819606 0.898607 0.869190 0.113020
H15   H     H_    0.431797 0.224543 0.022799 0.105394
H16   H     H_    0.253830 0.134304 0.979226 0.145308
H17   H     H_    0.280878 0.129075 0.107233 0.130080
H18   H     H_    0.971417 0.425601 0.984353 0.096510
H19   H     H_    0.022615 0.366649 0.090508 0.164063
H20   H     H_    0.859570 0.271981 0.035468 0.135733
H21   H     H_    0.663030 0.202760 0.716684 0.146224
H22   H     H_    0.535982 0.040288 0.701359 0.087552
H23   H     H_    0.323125 0.052791 0.449462 0.031984
H24   H     H_    0.480952 0.179926 0.691879 0.114616
H25   H     H_    0.682892 0.943545 0.554346 0.148562
H26   H     H_    0.897374 0.465877 0.410518 0.168413
H27   H     H_    0.870249 0.575726 0.616062 0.232600
H28   H     H_    0.923969 0.674031 0.043651 0.123609
H29   H     H_    0.403558 0.457613 0.169091 0.200100
H30   H     H_    0.150532 0.377378 0.779520 0.162401
N1    N     N_2   0.845330 0.551960 0.543750 -0.380920
N2    N     N_2   0.154690 0.448120 0.456210 -0.032386
O1    O     O_R   0.426290 0.668220 0.490680 -0.471771
O2    O     O_3   0.111953 0.402486 0.365177 -0.545595
O3    O     O_3   0.265082 0.299695 0.070828 -0.583148
O4    O     O_3   0.051467 0.273195 0.951505 -0.564225
O5    O     O_3   0.623577 0.145126 0.571367 -0.533636
O6    O     O_R   0.659360 0.703290 0.520190 -0.502390
O7    O     O_R   0.326580 0.473880 0.629020 -0.461277
O8    O     O_R   0.559660 0.508940 0.658530 -0.509455
O9    O     O_R   0.340640 0.296710 0.479810 -0.541260
O10   O     O_R   0.573710 0.331780 0.509320 -0.427731
O11   O     O_R   0.440340 0.491060 0.341470 -0.494546
O12   O     O_R   0.673420 0.526120 0.370980 -0.510943
O13   O     O_3   0.138252 0.589845 0.590540 -0.562863

loop_
_geom_bond_atom_site_label_1
_geom_bond_atom_site_label_2
_ccdc_geom_bond_type
C19   O2    S    
C5    H12   S    
C34   H29   S    
C10   O9    A    
C27   H17   S    
C13   H28   S    
C28   H20   S    
C11   O12   A    
Cu2   O10   S    
C12   C23   A    
C33   H2    S    
H27   N1    S    
Cu1   Cu2   S    
C9    N2    D    
C13   C35   A    
C18   H5    S    
C30   C31   A    
C11   C14   S    
C15   C16   A    
Cu2   N1    S    
N2    O2    S    
C18   H3    S    
C25   H13   S    
Cu1   O7    S    
C29   H22   S    
Cu1   O1    S    
C8    C9    S    
C23   C33   A    
C12   C17   A    
C9    O13   S    
C22   H10   S    
Cu2   O6    S    
C21   C22   A    
Cu2   O12   S    
C28   O4    S    
C28   H18   S    
C19   H6    S    
C7    O5    S    
C28   H19   S    
C29   H24   S    
C30   C34   A    
C16   O4    S    
C1    O6    A    
C6    H23   S    
C35   H1    S    
C24   C25   A    
Cu1   O11   S    
C18   H4    S    
C14   C35   A    
C5    C7    S    
C16   C17   A    
C29   O5    S    
C25   C26   A    
Cu2   O8    S    
C1    C3    S    
C24   H11   S    
C2    C4    S    
C6    C10   S    
C31   C32   A    
C15   H30   S    
C19   H8    S    
C29   H21   S    
C2    C15   A    
C8    N1    D    
C22   C24   A    
C19   H7    S    
C27   H15   S    
C21   H9    S    
C20   C32   S    
C3    H25   S    
C12   C30   A    
C13   C31   A    
C3    C5    D    
C14   C34   A    
C10   O10   A    
C27   H16   S    
C6    C7    D    
C1    O1    A    
C32   C33   A    
C4    O8    A    
Cu1   O9    S    
C26   H14   S    
C20   C26   A    
C18   O13   S    
Cu1   N2    S    
C4    O7    A    
C11   O11   A    
C8    H26   S    
C20   C21   A    
C17   O3    S    
C2    C23   A    
C27   O3    S    
