data_mof_unit_65106.cif
_audit_creation_date              2012-12-10T19:52:17-0500
_audit_creation_method            fapswitch 2.2
_symmetry_space_group_name_H-M    P1
_symmetry_Int_Tables_number       1
_space_group_crystal_system       triclinic
_cell_length_a                    18.276998
_cell_length_b                    18.277556
_cell_length_c                    31.900208
_cell_angle_alpha                 90.000124
_cell_angle_beta                  90.001291
_cell_angle_gamma                 90.001494
_cell_volume                      10656.5469351

loop_
_atom_site_label
_atom_site_type_symbol
_atom_type_description
_atom_site_fract_x
_atom_site_fract_y
_atom_site_fract_z
_atom_type_partial_charge
C1    C     C_R   0.641228 0.500021 0.999999 0.932739
C2    C     C_1   0.500067 0.500067 0.163188 0.035861
C3    C     C_3   0.367346 0.435295 0.280660 -0.896296
C4    C     C_3   0.126754 0.924457 0.220012 -0.861120
C5    C     C_3   0.122567 0.917852 0.780006 -0.861061
C6    C     C_3   0.868435 0.933133 0.219317 -0.896327
C7    C     C_3   0.865073 0.940186 0.780655 -0.896142
C8    C     C_3   0.468721 0.308911 0.752421 -0.284454
C9    C     C_3   0.478238 0.307588 0.247573 -0.284438
C10   C     C_3   0.981422 0.807254 0.252421 -0.284464
C11   C     C_3   0.971229 0.808517 0.747576 -0.284439
C12   C     C_1   0.000047 0.000065 0.336812 0.035873
C13   C     C_1   0.000077 0.000067 0.663188 0.035850
C14   C     C_1   0.499912 0.500184 0.663189 0.002642
C15   C     C_1   0.499896 0.500167 0.336811 0.002659
C16   C     C_1   0.999907 0.000170 0.163189 0.002663
C17   C     C_1   0.999900 0.000177 0.836811 0.002636
C18   C     C_1   0.717654 0.500058 0.999999 -0.187261
C19   C     C_1   0.282346 0.500053 0.000001 -0.187132
C20   C     C_1   0.217654 0.000058 0.499999 -0.187222
C21   C     C_R   0.358772 0.500019 0.000000 0.932870
C22   C     C_1   0.782346 0.000053 0.500001 -0.187171
C23   C     C_1   0.782399 0.500049 0.999999 -0.185702
C24   C     C_1   0.217601 0.500045 0.000001 -0.185547
C25   C     C_1   0.282399 0.000049 0.499999 -0.185674
C26   C     C_1   0.717601 0.000045 0.500001 -0.185563
C27   C     C_R   0.499999 0.358650 0.500000 0.932223
C28   C     C_R   0.999999 0.858650 1.000000 0.932218
C29   C     C_R   0.499999 0.499896 0.581359 0.903258
C30   C     C_R   0.499997 0.499895 0.418641 0.903252
C31   C     C_R   0.999999 0.999896 0.081359 0.903246
C32   C     C_R   0.141228 0.000021 0.499999 0.932798
C33   C     C_R   0.999997 0.999895 0.918641 0.903252
C34   C     C_R   0.500001 0.641070 0.500000 0.933261
C35   C     C_R   0.000001 0.141070 0.000000 0.933254
C36   C     C_R   0.999999 0.641140 0.000000 0.931849
C37   C     C_R   0.499999 0.141140 0.500000 0.931840
C38   C     C_R   0.858826 0.500018 1.000000 0.932238
C39   C     C_R   0.141174 0.500017 0.000000 0.932318
C40   C     C_R   0.358826 0.000018 0.499999 0.932231
C41   C     C_R   0.641174 0.000017 0.500000 0.932308
C42   C     C_R   0.500005 0.499999 0.918641 0.900137
C43   C     C_R   0.858772 0.000019 0.500000 0.932817
C44   C     C_R   0.500009 0.499999 0.081358 0.900135
C45   C     C_R   0.000005 0.999999 0.418641 0.900139
C46   C     C_R   0.000009 0.999999 0.581358 0.900139
C47   C     C_R   0.000000 0.358807 1.000000 0.932683
C48   C     C_R   0.500000 0.858807 0.500000 0.932674
C49   C     C_1   0.499998 0.282258 0.500000 -0.191939
C50   C     C_1   0.999998 0.782258 1.000000 -0.191944
C51   C     C_1   0.999998 0.717533 0.000000 -0.188451
C52   C     C_1   0.499998 0.217533 0.500000 -0.188438
C53   C     C_1   0.500002 0.717550 0.500000 -0.187893
C54   C     C_3   0.506310 0.569887 0.735766 -0.218170
C55   C     C_1   0.000002 0.217550 0.000000 -0.187896
C56   C     C_1   0.000002 0.282327 1.000000 -0.184957
C57   C     C_1   0.500001 0.782327 0.500000 -0.184949
C58   C     C_3   0.556602 0.460230 0.736136 0.098992
C59   C     C_3   0.558508 0.463079 0.263869 0.098960
C60   C     C_3   0.436549 0.471247 0.736146 0.092519
C61   C     C_3   0.438056 0.468124 0.263847 0.092582
C62   C     C_3   0.059109 0.964046 0.236137 0.098927
C63   C     C_3   0.057124 0.960974 0.763871 0.098973
C64   C     C_3   0.938590 0.967113 0.236144 0.092619
C65   C     C_3   0.502836 0.570104 0.264237 -0.218101
C66   C     C_3   0.936936 0.970413 0.763845 0.092532
C67   C     C_3   0.562511 0.529168 0.763736 0.141409
C68   C     C_3   0.560996 0.532226 0.236272 0.141159
C69   C     C_3   0.443722 0.540136 0.763800 0.142081
C70   C     C_3   0.441809 0.537285 0.236195 0.142305
C71   C     C_3   0.060451 0.033223 0.263737 0.141183
C72   C     C_3   0.062137 0.029984 0.736274 0.141425
C73   C     C_3   0.941197 0.036325 0.263798 0.142308
C74   C     C_3   0.943214 0.039391 0.736194 0.142091
C75   C     C_1   0.500030 0.500005 0.874248 -0.169504
C76   C     C_3   0.001686 0.070143 0.235765 -0.218108
C77   C     C_1   0.500042 0.500005 0.125752 -0.169498
C78   C     C_1   0.000028 0.000004 0.374248 -0.169504
C79   C     C_1   0.000046 0.000005 0.625752 -0.169506
C80   C     C_1   0.499983 0.500058 0.625753 -0.185350
C81   C     C_1   0.499974 0.500049 0.374247 -0.185339
C82   C     C_1   0.999981 0.000052 0.125753 -0.185342
C83   C     C_1   0.999975 0.000054 0.874247 -0.185345
C84   C     C_3   0.493577 0.431666 0.763742 0.506069
C85   C     C_3   0.496986 0.431425 0.236256 0.506089
C86   C     C_3   0.998105 0.931383 0.263742 0.506066
C87   C     C_3   0.005397 0.069960 0.764237 -0.218170
C88   C     C_3   0.994489 0.931587 0.736256 0.506095
C89   C     C_3   0.500073 0.500275 0.791401 0.014698
C90   C     C_3   0.500076 0.500274 0.208599 0.014673
C91   C     C_3   0.000055 0.000273 0.291401 0.014690
C92   C     C_3   0.000093 0.000276 0.708599 0.014677
C93   C     C_3   0.499756 0.500147 0.708574 0.025920
C94   C     C_3   0.499744 0.500123 0.291426 0.025884
C95   C     C_3   0.999753 0.000122 0.208574 0.025900
C96   C     C_3   0.999749 0.000138 0.791426 0.025898
C97   C     C_3   0.633357 0.562375 0.779930 -0.876490
C98   C     C_1   0.500053 0.500066 0.836812 0.035860
C99   C     C_3   0.630113 0.568909 0.220087 -0.876019
C100  C     C_3   0.380415 0.585902 0.780197 -0.871633
C101  C     C_3   0.376314 0.579858 0.219792 -0.872043
C102  C     C_3   0.128949 0.071034 0.279934 -0.876081
C103  C     C_3   0.132548 0.064119 0.720091 -0.876535
C104  C     C_3   0.875006 0.077813 0.280193 -0.872041
C105  C     C_3   0.879319 0.084325 0.719788 -0.871654
C106  C     C_3   0.621483 0.416259 0.720008 -0.861164
C107  C     C_3   0.625486 0.422379 0.280003 -0.861075
C108  C     C_3   0.364301 0.441974 0.719321 -0.896134
H1    H     H_    0.511495 0.626697 0.723814 0.161840
H2    H     H_    0.615253 0.617086 0.200706 0.242118
H3    H     H_    0.348963 0.608644 0.753450 0.246213
H4    H     H_    0.343856 0.551231 0.799609 0.246361
H5    H     H_    0.401892 0.631505 0.799588 0.241889
H6    H     H_    0.343764 0.601006 0.246536 0.246256
H7    H     H_    0.395509 0.626473 0.200406 0.241883
H8    H     H_    0.341528 0.543418 0.200373 0.246309
H9    H     H_    0.162723 0.089721 0.253085 0.244964
H10   H     H_    0.113291 0.118955 0.299318 0.242141
H11   H     H_    0.161187 0.032251 0.299305 0.247534
H12   H     H_    0.505193 0.627100 0.276190 0.161888
H13   H     H_    0.167251 0.080986 0.746947 0.244996
H14   H     H_    0.162697 0.023688 0.700722 0.247610
H15   H     H_    0.119458 0.112806 0.700709 0.241977
H16   H     H_    0.842124 0.098430 0.253445 0.246266
H17   H     H_    0.840813 0.040804 0.299604 0.246325
H18   H     H_    0.893424 0.124733 0.299585 0.241861
H19   H     H_    0.847561 0.106650 0.746531 0.246221
H20   H     H_    0.900204 0.130206 0.700401 0.241876
H21   H     H_    0.843225 0.049178 0.700370 0.246367
H22   H     H_    0.650586 0.390729 0.746800 0.255686
H23   H     H_    0.003111 0.127171 0.223814 0.161884
H24   H     H_    0.602455 0.372987 0.698227 0.231490
H25   H     H_    0.659600 0.453057 0.703021 0.245694
H26   H     H_    0.655861 0.398379 0.253210 0.255613
H27   H     H_    0.661697 0.461009 0.297025 0.245675
H28   H     H_    0.608620 0.378174 0.301753 0.231567
H29   H     H_    0.329926 0.422460 0.745718 0.249102
H30   H     H_    0.334944 0.486228 0.702461 0.255644
H31   H     H_    0.374607 0.396339 0.697171 0.232699
H32   H     H_    0.333993 0.414101 0.254256 0.249137
H33   H     H_    0.379897 0.390225 0.302808 0.232650
H34   H     H_    0.009831 0.126833 0.776190 0.161835
H35   H     H_    0.335820 0.478033 0.297517 0.255621
H36   H     H_    0.157466 0.900886 0.246804 0.255607
H37   H     H_    0.110630 0.880036 0.198221 0.231580
H38   H     H_    0.162370 0.963696 0.203037 0.245702
H39   H     H_    0.152047 0.892759 0.753215 0.255652
H40   H     H_    0.160163 0.955132 0.797030 0.245678
H41   H     H_    0.104093 0.874292 0.801755 0.231521
H42   H     H_    0.835422 0.911388 0.245713 0.249163
H43   H     H_    0.836220 0.975351 0.202457 0.255620
H44   H     H_    0.881734 0.888280 0.197167 0.232620
H45   H     H_    0.668289 0.578789 0.753080 0.245006
H46   H     H_    0.830972 0.920224 0.754250 0.249116
H47   H     H_    0.875967 0.894686 0.802803 0.232672
H48   H     H_    0.835125 0.984045 0.797511 0.255639
H49   H     H_    0.490882 0.319202 0.720473 0.148876
H50   H     H_    0.408135 0.305647 0.751371 0.177148
H51   H     H_    0.489254 0.254659 0.762628 0.191258
H52   H     H_    0.417890 0.301290 0.248586 0.177188
H53   H     H_    0.499792 0.318990 0.279535 0.148828
H54   H     H_    0.501488 0.254432 0.237388 0.191240
H55   H     H_    0.002880 0.818979 0.220477 0.148880
H56   H     H_    0.620898 0.611226 0.799314 0.241960
H57   H     H_    0.921184 0.800003 0.251357 0.177173
H58   H     H_    0.005479 0.754475 0.262636 0.191240
H59   H     H_    0.910691 0.804407 0.748574 0.177178
H60   H     H_    0.993154 0.819142 0.779543 0.148815
H61   H     H_    0.992550 0.754552 0.737404 0.191242
H62   H     H_    0.662964 0.521549 0.799302 0.247628
H63   H     H_    0.664181 0.587029 0.246942 0.244996
H64   H     H_    0.661715 0.529605 0.200717 0.247536
O1    O     O_R   0.607370 0.439420 0.000000 -0.617349
O2    O     O_R   0.392710 0.560580 0.000000 -0.620282
O3    O     O_R   0.107290 0.060580 0.500000 -0.620544
O4    O     O_R   0.892710 0.060580 0.500000 -0.620269
O5    O     O_R   0.500000 0.439420 0.938390 -0.608537
O6    O     O_R   0.500000 0.439420 0.061610 -0.608541
O7    O     O_R   1.000000 0.939420 0.438390 -0.608545
O8    O     O_R   0.000000 0.939420 0.561610 -0.608535
O9    O     O_R   0.500000 0.560580 0.938390 -0.621326
O10   O     O_R   0.500000 0.560580 0.061610 -0.621315
O11   O     O_R   0.000000 0.060580 0.438390 -0.621317
O12   O     O_R   0.392630 0.439420 0.000000 -0.617467
O13   O     O_R   0.000000 0.060580 0.561610 -0.621330
O14   O     O_R   0.560550 0.392540 0.500000 -0.619576
O15   O     O_R   0.439450 0.392540 0.500000 -0.620001
O16   O     O_R   0.060550 0.892540 0.000000 -0.619596
O17   O     O_R   0.939450 0.892540 0.000000 -0.619975
O18   O     O_R   0.560580 0.499860 0.561610 -0.617148
O19   O     O_R   0.560580 0.499860 0.438390 -0.617220
O20   O     O_R   0.439420 0.499860 0.561610 -0.617095
O21   O     O_R   0.439420 0.499860 0.438390 -0.617012
O22   O     O_R   0.060580 0.999860 0.061610 -0.617227
O23   O     O_R   0.107370 0.939420 0.500000 -0.617290
O24   O     O_R   0.060580 0.999860 0.938390 -0.617153
O25   O     O_R   0.939420 0.999860 0.061610 -0.616998
O26   O     O_R   0.939420 0.999860 0.938390 -0.617085
O27   O     O_R   0.560630 0.607160 0.500000 -0.618617
O28   O     O_R   0.439370 0.607160 0.500000 -0.618332
O29   O     O_R   0.060630 0.107160 0.000000 -0.618598
O30   O     O_R   0.939370 0.107160 0.000000 -0.618351
O31   O     O_R   0.000000 0.607310 0.965210 -0.621779
O32   O     O_R   0.000000 0.607310 0.034790 -0.621821
O33   O     O_R   0.500000 0.107310 0.465210 -0.621812
O34   O     O_R   0.892630 0.939420 0.500000 -0.617527
O35   O     O_R   0.500000 0.107310 0.534790 -0.621770
O36   O     O_R   0.892680 0.500000 0.965220 -0.620703
O37   O     O_R   0.892680 0.500000 0.034780 -0.620602
O38   O     O_R   0.107320 0.500000 0.965220 -0.620491
O39   O     O_R   0.107320 0.500000 0.034780 -0.620619
O40   O     O_R   0.392680 1.000000 0.465220 -0.620595
O41   O     O_R   0.392680 0.000000 0.534780 -0.620696
O42   O     O_R   0.607320 1.000000 0.465220 -0.620615
O43   O     O_R   0.607320 0.000000 0.534780 -0.620494
O44   O     O_3   0.490535 0.361487 0.782188 -0.594711
O45   O     O_R   0.000000 0.392690 0.965220 -0.620098
O46   O     O_3   0.497438 0.361181 0.217810 -0.594710
O47   O     O_3   0.999701 0.861158 0.282190 -0.594716
O48   O     O_3   0.992378 0.861371 0.717813 -0.594703
O49   O     O_R   0.000000 0.392690 0.034780 -0.620094
O50   O     O_R   0.500000 0.892690 0.465220 -0.620089
O51   O     O_R   0.500000 0.892690 0.534780 -0.620096
O52   O     O_R   0.607290 0.560580 0.000000 -0.620527
Zn1   Zn    Zn3+2 0.500000 0.419100 0.000000 0.989258
Zn2   Zn    Zn3+2 0.000000 0.500000 0.046450 0.966711
Zn3   Zn    Zn3+2 0.500000 0.000000 0.453550 0.966759
Zn4   Zn    Zn3+2 0.500000 0.000000 0.546450 0.966832
Zn5   Zn    Zn3+2 1.000000 0.919100 0.500000 0.989247
Zn6   Zn    Zn3+2 0.500000 0.580900 0.000000 0.969248
Zn7   Zn    Zn3+2 0.000000 0.080900 0.500000 0.969230
Zn8   Zn    Zn3+2 0.580910 0.499830 0.500000 0.972090
Zn9   Zn    Zn3+2 0.419090 0.499830 0.500000 0.972153
Zn10  Zn    Zn3+2 0.080910 0.999830 0.000000 0.972094
Zn11  Zn    Zn3+2 0.919090 0.999830 0.000000 0.972175
Zn12  Zn    Zn3+2 0.000000 0.500000 0.953550 0.966794

loop_
_geom_bond_atom_site_label_1
_geom_bond_atom_site_label_2
_ccdc_geom_bond_type
C61   C70   S    
C9    O46   S    
C21   O12   A    
C55   C56   T    
C13   C79   T    
C10   H55   S    
C5    H39   S    
O11   Zn7   S    
C63   C88   S    
C12   C91   S    
C3    H33   S    
O27   Zn8   S    
C103  H15   S    
C28   O17   A    
C15   C94   S    
O25   Zn11  S    
C70   C101  S    
C48   C57   S    
C15   C81   T    
C99   H2    S    
C106  H24   S    
C47   O45   A    
O23   Zn5   S    
C1    C18   S    
C31   C82   S    
O24   Zn10  S    
C1    O52   A    
C7    H46   S    
C33   O26   A    
C44   C77   S    
C19   C21   S    
C58   C93   S    
C39   O39   A    
C107  H26   S    
O52   Zn6   S    
O26   Zn11  S    
C28   O16   A    
C76   C95   S    
C66   C88   S    
C108  H29   S    
C41   O43   A    
C76   H23   S    
C30   O21   A    
O14   Zn8   S    
C20   C25   T    
C42   O5    A    
C74   C92   S    
C65   C70   S    
C66   C74   S    
C4    C62   S    
C67   C89   S    
C24   C39   S    
C5    H41   S    
C5    C63   S    
O43   Zn4   S    
C6    C64   S    
C2    C90   S    
C54   C93   S    
C107  H27   S    
O30   Zn11  S    
O40   Zn3   S    
C28   C50   S    
C34   O27   A    
O10   Zn6   S    
C73   C104  S    
C104  H17   S    
C88   C92   S    
C33   O24   A    
O19   Zn8   S    
O6    Zn1   S    
O39   Zn2   S    
C12   C78   T    
C40   O41   A    
C68   C90   S    
C64   C73   S    
C45   C78   S    
C36   O31   A    
O38   Zn12  S    
C74   C87   S    
O7    Zn5   S    
O36   Zn12  S    
C14   C93   S    
C102  H10   S    
C67   C97   S    
C6    H44   S    
C60   C93   S    
C49   C52   T    
C84   C89   S    
C47   O49   A    
C8    H50   S    
C46   O13   A    
C5    H40   S    
C62   C95   S    
C43   O34   A    
C11   H59   S    
C101  H6    S    
C37   O35   A    
C104  H18   S    
C70   C90   S    
O12   Zn1   S    
O22   Zn10  S    
C32   O23   A    
C69   C89   S    
C8    H49   S    
O45   Zn12  S    
O21   Zn9   S    
C10   O47   S    
C3    C61   S    
C42   O9    A    
O13   Zn7   S    
C32   O3    A    
O8    Zn5   S    
C64   C86   S    
O3    Zn7   S    
C105  H19   S    
C35   C55   S    
C18   C23   T    
C46   O8    A    
C84   O44   S    
O20   Zn9   S    
C3    H35   S    
O28   Zn9   S    
C73   C91   S    
C72   C103  S    
C44   O6    A    
C37   C52   S    
C53   C57   T    
C61   C94   S    
C35   O29   A    
C105  H21   S    
C99   H64   S    
C9    H52   S    
O4    Zn7   S    
C63   C96   S    
C75   C98   T    
C59   C107  S    
C97   H62   S    
C88   O48   S    
C39   O38   A    
C58   C106  S    
C27   O14   A    
C85   O46   S    
C59   C85   S    
C107  H28   S    
C58   C84   S    
C59   C68   S    
C108  H31   S    
C62   C86   S    
C43   O4    A    
O35   Zn4   S    
C22   C43   S    
O9    Zn6   S    
C10   H58   S    
C65   C68   S    
C1    O1    A    
C87   C96   S    
C16   C82   T    
C50   C51   T    
C42   C75   S    
C29   O20   A    
C7    H47   S    
C17   C96   S    
C27   O15   A    
C30   O19   A    
C7    H48   S    
C71   C91   S    
C9    H53   S    
O42   Zn3   S    
O2    Zn6   S    
O15   Zn9   S    
C36   C51   S    
C61   C85   S    
C34   C53   S    
C6    H43   S    
C102  H9    S    
C65   C94   S    
C59   C94   S    
C71   C102  S    
C11   H61   S    
C97   H45   S    
C14   C80   T    
C13   C92   S    
C11   H60   S    
C101  H7    S    
C73   C76   S    
O37   Zn2   S    
O32   Zn2   S    
C103  H13   S    
C44   O10   A    
C31   O25   A    
C72   C87   S    
O16   Zn10  S    
C29   O18   A    
C45   O11   A    
C66   C96   S    
C20   C32   S    
C38   O37   A    
C106  H22   S    
C16   C95   S    
C105  H20   S    
O51   Zn4   S    
O50   Zn3   S    
C37   O33   A    
C100  H5    S    
C64   C95   S    
C8    O44   S    
C33   C83   S    
C60   C108  S    
C4    H36   S    
C31   O22   A    
C85   C90   S    
C35   O30   A    
C100  H4    S    
C104  H16   S    
C48   O51   A    
C23   C38   S    
C40   O40   A    
C89   C98   S    
C86   C91   S    
C97   H56   S    
C25   C40   S    
C106  H25   S    
C30   C81   S    
C19   C24   T    
C68   C99   S    
O31   Zn12  S    
C54   C67   S    
O41   Zn4   S    
O1    Zn1   S    
C74   C105  S    
C108  H30   S    
C41   O42   A    
C60   C84   S    
C29   C80   S    
O29   Zn10  S    
C71   C76   S    
C54   C69   S    
C48   O50   A    
C60   C69   S    
C10   H57   S    
C72   C92   S    
C4    H37   S    
O49   Zn2   S    
C46   C79   S    
C65   H12   S    
C62   C71   S    
O33   Zn3   S    
O18   Zn8   S    
C86   O47   S    
C87   H34   S    
C9    H54   S    
O17   Zn11  S    
C8    H51   S    
C45   O7    A    
O5    Zn1   S    
C6    H42   S    
C69   C100  S    
C34   O28   A    
C58   C67   S    
C99   H63   S    
C63   C72   S    
C54   H1    S    
C100  H3    S    
C21   O2    A    
C22   C26   T    
C2    C77   T    
C101  H8    S    
C4    H38   S    
C3    H32   S    
C36   O32   A    
C17   C83   T    
C38   O36   A    
C103  H14   S    
C11   O48   S    
C102  H11   S    
C27   C49   S    
C26   C41   S    
C47   C56   S    
O34   Zn5   S    
C7    C66   S    
