data_mof_unit_30675.cif
_audit_creation_date              2013-03-05T16:31:07-0500
_audit_creation_method            fapswitch 2.2
_symmetry_space_group_name_H-M    P1
_symmetry_Int_Tables_number       1
_space_group_crystal_system       triclinic
_cell_length_a                    10.892323
_cell_length_b                    10.937136
_cell_length_c                    9.530197
_cell_angle_alpha                 92.48112
_cell_angle_beta                  87.344811
_cell_angle_gamma                 90.95825
_cell_volume                      1132.93485391

loop_
_atom_site_label
_atom_site_type_symbol
_atom_site_description
_atom_site_fract_x
_atom_site_fract_y
_atom_site_fract_z
_atom_type_partial_charge
O1    O     O_R   0.500000 0.319640 0.618810 -0.574620
O2    O     O_R   0.500010 0.319680 0.381230 -0.542273
C1    C     C_R   0.497085 0.262794 0.497331 0.932735
O3    O     O_R   0.319640 0.499980 0.618820 -0.604888
O4    O     O_R   0.319650 0.500020 0.381230 -0.579866
C2    C     C_R   0.261335 0.499805 0.504046 0.826760
Cu1   Cu    Cu3+1 0.499990 0.499980 0.640670 1.020938
Cu2   Cu    Cu3+1 0.500010 0.500020 0.359330 1.086377
O5    O     O_R   0.499990 0.680320 0.618770 -0.572838
O6    O     O_R   0.500000 0.680360 0.381190 -0.549989
O7    O     O_R   0.680350 0.499980 0.618770 -0.557443
O8    O     O_R   0.680360 0.500020 0.381180 -0.539037
C3    C     C_R   0.498456 0.738229 0.502511 0.928271
C4    C     C_R   0.737281 0.488996 0.495696 0.895355
H1    H     H_    0.125379 0.556616 0.298782 0.232571
C5    C     C_R   0.096030 0.428036 0.759443 -0.234833
H2    H     H_    0.181620 0.465762 0.793041 0.212696
C6    C     C_R   0.025699 0.362040 0.858500 0.317864
C7    C     C_R   0.912109 0.312937 0.822067 -0.201615
H3    H     H_    0.859259 0.255772 0.893392 0.222397
C8    C     C_R   0.863023 0.341466 0.695864 0.582675
C9    C     C_R   0.927331 0.419915 0.602815 -0.055106
C10   C     C_R   0.052134 0.448765 0.624905 -0.016750
C11   C     C_R   0.125797 0.495825 0.510924 -0.107990
C12   C     C_R   0.070151 0.524055 0.387347 -0.164607
C13   C     C_R   0.944828 0.509412 0.372565 0.329139
C14   C     C_R   0.870725 0.467581 0.486747 -0.178543
C15   C     C_R   0.548510 0.072470 0.602465 -0.000637
C16   C     C_R   0.500640 0.130588 0.491725 -0.286504
C17   C     C_R   0.457194 0.058536 0.378592 0.565780
C18   C     C_R   0.452620 0.930758 0.385839 0.560414
C19   C     C_R   0.496457 0.872506 0.503775 -0.286242
C20   C     C_R   0.551552 0.947066 0.608151 -0.037084
C21   C     C_3   0.543673 0.962011 0.768102 0.507720
C22   C     C_3   0.533793 0.098969 0.755940 -0.351773
H4    H     H_    0.441337 0.135403 0.787581 0.186842
H5    H     H_    0.611931 0.153135 0.798359 0.254653
C23   C     C_R   0.592695 0.556505 0.071871 0.231930
N1    N     N_R   0.500790 0.500930 0.147930 -0.245807
C24   C     C_R   0.419622 0.428588 0.075389 0.053456
H6    H     H_    0.354471 0.371518 0.132469 0.211462
C25   C     C_R   0.418882 0.429349 0.926223 -0.007785
H7    H     H_    0.353019 0.372781 0.871018 0.141009
N2    N     N_R   0.500790 0.500890 0.852020 -0.193644
C26   C     C_R   0.595535 0.551747 0.923863 0.119581
C27   C     C_3   0.635133 0.680338 0.917225 -0.417985
C28   C     C_3   0.622763 0.689781 0.075921 0.478514
H8    H     H_    0.731170 0.688309 0.873542 0.263328
H9    H     H_    0.565256 0.731279 0.865667 0.207378
H10   H     H_    0.545710 0.747978 0.117139 0.180903
N3    N     N_R   0.658704 0.933649 0.833437 0.091303
O9    O     O_R   0.753878 0.896535 0.756377 -0.331091
O10   O     O_R   0.672874 0.965165 0.965045 -0.267461
F1    F     F_    0.732699 0.717297 0.136960 -0.553387
N4    N     N_R   0.069986 0.344812 0.995632 0.155328
O11   O     O_R   0.142339 0.426458 0.052682 -0.388021
O12   O     O_R   0.029027 0.254360 0.069804 -0.269833
F2    F     F_    0.756287 0.285441 0.660509 -0.667147
N5    N     N_R   0.897397 0.529349 0.237397 0.179119
O13   O     O_R   0.835064 0.442007 0.175019 -0.313299
O14   O     O_R   0.946442 0.614858 0.161123 -0.235707
F3    F     F_    0.410350 0.111104 0.266565 -0.578310
F4    F     F_    0.397873 0.865135 0.281285 -0.585424
N6    N     N_R   0.433732 0.909308 0.839292 0.086143
O15   O     O_R   0.413907 0.930866 0.973696 -0.225338
O16   O     O_R   0.347793 0.855011 0.768156 -0.339764

loop_
_geom_bond_atom_site_label_1
_geom_bond_atom_site_label_2
_geom_bond_distance
_ccdc_geom_bond_type
C21   N3    1.468267 S    
O4    Cu2   1.965957 S    
N3    O10   1.301734 A    
N4    O11   1.299318 A    
C11   C12   1.397715 A    
C16   C17   1.403097 A    
Cu2   N1    2.014762 S    
C4    C14   1.474110 S    
C28   H10   1.108835 S    
C13   N5    1.436520 S    
C3    C19   1.468645 S    
C18   C19   1.420933 A    
C7    H3    1.082967 S    
Cu2   O8    1.985007 S    
C2    C11   1.474738 S    
C19   C20   1.408310 A    
C24   C25   1.422360 A    
O2    C1    1.291533 A    
C13   C14   1.412205 A    
C8    F2    1.354702 S    
N4    O12   1.301522 A    
O1    Cu1   1.974387 S    
Cu1   N2    2.014224 S    
N6    O15   1.301095 A    
Cu1   O7    1.965957 S    
C27   H9    1.097131 S    
C23   C28   1.487904 S    
C17   C18   1.402161 A    
C25   N2    1.369081 A    
C6    N4    1.434902 S    
O3    Cu1   1.985005 S    
O3    C2    1.289925 A    
C24   H6    1.080707 S    
C7    C8    1.388334 A    
O8    C4    1.290965 A    
C15   C20   1.375987 A    
C20   C21   1.524639 S    
C5    C10   1.417594 A    
Cu1   O5    1.992380 S    
C9    C14   1.413992 A    
C28   F1    1.378477 S    
C17   F3    1.358009 S    
O4    C2    1.305658 A    
C21   C22   1.513402 S    
O7    C4    1.302928 A    
C27   H8    1.111263 S    
N5    O14   1.301765 A    
H1    C12   1.083016 S    
C25   H7    1.079909 S    
C10   C11   1.429157 A    
N3    O9    1.302504 A    
C18   F4    1.357352 S    
N5    O13   1.301326 A    
C23   N1    1.359248 A    
N2    C26   1.362529 A    
Cu2   O6    1.974387 S    
C6    C7    1.393281 A    
N1    C24   1.368022 A    
C1    C16   1.445723 S    
Cu1   Cu2   2.681235 S    
O5    C3    1.300709 A    
C27   C28   1.511369 S    
C15   C16   1.381988 A    
C23   C26   1.408173 A    
C22   H5    1.110425 S    
C12   C13   1.384721 A    
C26   C27   1.467282 S    
C8    C9    1.414716 A    
C21   N6    1.470403 S    
C5    C6    1.404478 A    
O2    Cu2   1.992381 S    
C9    C10   1.413599 A    
C22   H4    1.113004 S    
C15   C22   1.480598 S    
C5    H2    1.070167 S    
O1    C1    1.291623 A    
O6    C3    1.293409 A    
N6    O16   1.301481 A    
