data_mof_unit_23888.cif
_audit_creation_date              2012-12-11T14:45:29-0500
_audit_creation_method            fapswitch 2.2
_symmetry_space_group_name_H-M    P1
_symmetry_Int_Tables_number       1
_space_group_crystal_system       triclinic
_cell_length_a                    24.969788
_cell_length_b                    7.314358
_cell_length_c                    14.388119
_cell_angle_alpha                 89.999053
_cell_angle_beta                  102.760529
_cell_angle_gamma                 89.999972
_cell_volume                      2562.91434228

loop_
_atom_site_label
_atom_site_type_symbol
_atom_type_description
_atom_site_fract_x
_atom_site_fract_y
_atom_site_fract_z
_atom_type_partial_charge
O1    O     O_R   0.319150 0.364170 0.330530 -0.537090
O2    O     O_R   0.680850 0.635830 0.669470 -0.537306
O3    O     O_R   0.180850 0.864170 0.169470 -0.537090
O4    O     O_R   0.819150 0.135830 0.830530 -0.537305
O5    O     O_R   0.210330 0.696850 0.354180 -0.541297
O6    O     O_R   0.789670 0.303150 0.645820 -0.538897
O7    O     O_R   0.289670 0.196850 0.145820 -0.541296
O8    O     O_R   0.710330 0.803150 0.854180 -0.538898
C1    C     C_R   0.196244 0.525981 0.376191 0.668832
C2    C     C_R   0.803909 0.474539 0.624080 0.671050
C3    C     C_R   0.303755 0.025981 0.123807 0.668838
C4    C     C_R   0.696091 0.974537 0.875919 0.671047
O9    O     O_R   0.320550 0.694110 0.341970 -0.541096
O10   O     O_R   0.679450 0.305890 0.658030 -0.541108
O11   O     O_R   0.179450 0.194110 0.158030 -0.541098
O12   O     O_R   0.820550 0.805890 0.841970 -0.541110
O13   O     O_R   0.291860 0.861000 0.157170 -0.535761
O14   O     O_R   0.708140 0.139000 0.842830 -0.538759
O15   O     O_R   0.208140 0.361000 0.342830 -0.535762
O16   O     O_R   0.791860 0.639000 0.657170 -0.538758
C5    C     C_R   0.342539 0.526405 0.356687 0.716150
C6    C     C_R   0.657942 0.474180 0.641851 0.716288
C7    C     C_R   0.157461 0.026405 0.143312 0.716148
C8    C     C_R   0.842057 0.974179 0.858151 0.716291
O17   O     O_3   0.240460 0.529330 0.189380 -0.379682
O18   O     O_3   0.759540 0.470670 0.810620 -0.379473
O19   O     O_3   0.259540 0.029330 0.310620 -0.379682
O20   O     O_3   0.740460 0.970670 0.689380 -0.379472
V1    V     V_3+5 0.251770 0.805510 0.261240 1.376585
V2    V     V_3+5 0.748230 0.194490 0.738760 1.377670
V3    V     V_3+5 0.248230 0.305510 0.238760 1.376584
V4    V     V_3+5 0.751770 0.694490 0.761240 1.377670
C9    C     C_R   0.101558 0.019565 0.082993 -0.056063
C10   C     C_R   0.897682 0.984815 0.918488 -0.052726
C11   C     C_R   0.398441 0.519561 0.417011 -0.056066
C12   C     C_R   0.602317 0.484822 0.581516 -0.052727
C13   C     C_R   0.948433 0.035822 0.081644 0.095628
C14   C     C_R   0.049782 0.041156 0.918198 0.095591
C15   C     C_R   0.551565 0.535851 0.418362 0.095632
C16   C     C_R   0.450215 0.541141 0.581807 0.095580
C17   C     C_R   0.899577 0.024811 0.012545 -0.235735
C18   C     C_R   0.098729 0.048654 0.987490 -0.234791
C19   C     C_R   0.600421 0.524845 0.487461 -0.235736
C20   C     C_R   0.401268 0.548639 0.512512 -0.234784
C21   C     C_R   0.946463 0.976540 0.883769 0.078369
C22   C     C_R   0.052957 0.999786 0.117780 0.077487
C23   C     C_R   0.553535 0.476535 0.616235 0.078371
C24   C     C_R   0.447043 0.499782 0.382227 0.077499
C25   C     C_R   0.998702 0.011392 0.949303 0.012292
C26   C     C_R   0.000141 0.015897 0.051302 0.013335
C27   C     C_R   0.501297 0.511388 0.550702 0.012292
C28   C     C_R   0.499858 0.515905 0.448705 0.013338
H1    H     H_    0.137423 0.076213 0.968668 0.108647
H2    H     H_    0.860287 0.046264 0.030290 0.106092
H3    H     H_    0.362574 0.576190 0.531333 0.108646
H4    H     H_    0.639710 0.546320 0.469718 0.106095
C29   C     C_R   0.663935 0.988331 0.949325 -0.017780
C30   C     C_R   0.336099 0.023677 0.050333 -0.020150
C31   C     C_R   0.836064 0.488335 0.550674 -0.017774
C32   C     C_R   0.163899 0.523677 0.449663 -0.020154
C33   C     C_R   0.658488 0.096067 0.104938 -0.177159
C34   C     C_R   0.342356 0.106018 0.891230 -0.177313
C35   C     C_R   0.841507 0.596042 0.395052 -0.177152
C36   C     C_R   0.157643 0.606027 0.608763 -0.177340
C37   C     C_R   0.689027 0.059922 0.037415 -0.177248
C38   C     C_R   0.311584 0.084561 0.959722 -0.176345
C39   C     C_R   0.810969 0.559903 0.462578 -0.177249
C40   C     C_R   0.188414 0.584558 0.540273 -0.176341
C41   C     C_R   0.606826 0.965502 0.926280 -0.232365
C42   C     C_R   0.392958 0.995462 0.074305 -0.231060
C43   C     C_R   0.893173 0.465522 0.573719 -0.232364
C44   C     C_R   0.107040 0.495480 0.425689 -0.231057
C45   C     C_R   0.574297 0.014526 0.991936 0.062635
C46   C     C_R   0.425952 0.029370 0.007273 0.063870
C47   C     C_R   0.925700 0.514540 0.508059 0.062640
C48   C     C_R   0.074046 0.529390 0.492720 0.063873
C49   C     C_R   0.601563 0.060518 0.087359 0.120884
C50   C     C_R   0.399156 0.067242 0.910397 0.119868
C51   C     C_R   0.898433 0.560509 0.412633 0.120879
C52   C     C_R   0.100842 0.567261 0.589596 0.119874
C53   C     C_R   0.515730 0.024908 0.964214 0.041994
C54   C     C_R   0.484624 0.032181 0.034900 0.043132
C55   C     C_R   0.984267 0.524931 0.535780 0.041987
C56   C     C_R   0.015373 0.532197 0.465093 0.043136
C57   C     C_R   0.512794 0.054840 0.130937 -0.263758
C58   C     C_R   0.487962 0.042750 0.867752 -0.266852
C59   C     C_R   0.987202 0.554839 0.369054 -0.263753
C60   C     C_R   0.012036 0.542783 0.632241 -0.266861
C61   C     C_R   0.570366 0.074365 0.159177 0.055213
C62   C     C_R   0.430715 0.070210 0.838683 0.059642
C63   C     C_R   0.929630 0.574349 0.340813 0.055202
C64   C     C_R   0.069282 0.570237 0.661309 0.059660
H5    H     H_    0.410708 0.951806 0.146254 0.103930
H6    H     H_    0.588472 0.914673 0.855912 0.102973
H7    H     H_    0.089290 0.451829 0.353739 0.103929
H8    H     H_    0.911528 0.414707 0.644090 0.102967
H9    H     H_    0.268293 0.119478 0.942279 0.104481
H10   H     H_    0.732502 0.092165 0.053350 0.103244
H11   H     H_    0.231706 0.619466 0.557716 0.104483
H12   H     H_    0.767493 0.592133 0.446641 0.103239
H13   H     H_    0.680545 0.164164 0.166865 0.120255
H14   H     H_    0.320293 0.164851 0.826714 0.120303
H15   H     H_    0.819448 0.664121 0.333119 0.120256
H16   H     H_    0.179706 0.664859 0.673277 0.120301
H17   H     H_    0.489942 0.068998 0.186037 0.122562
H18   H     H_    0.511183 0.047327 0.812785 0.124413
H19   H     H_    0.010053 0.568991 0.313953 0.122555
H20   H     H_    0.988815 0.547367 0.687208 0.124415
C65   C     C_3   0.055212 0.954397 0.222483 -0.457169
C66   C     C_3   0.105735 0.877802 0.288787 -0.676998
H21   H     H_    0.117434 0.748507 0.258438 0.234583
H22   H     H_    0.139216 0.980025 0.306315 0.234115
H23   H     H_    0.095046 0.844566 0.357760 0.207731
H24   H     H_    0.045247 0.079335 0.258781 0.192617
H25   H     H_    0.026077 0.839327 0.220556 0.188186
C67   C     C_3   0.944834 0.924195 0.780165 -0.453041
C68   C     C_3   0.895528 0.835029 0.715930 -0.686340
H26   H     H_    0.885765 0.705692 0.748747 0.234602
H27   H     H_    0.860318 0.930219 0.696235 0.235884
H28   H     H_    0.906764 0.800739 0.647633 0.210555
H29   H     H_    0.952158 0.048941 0.741062 0.192507
H30   H     H_    0.976189 0.815445 0.784296 0.187174
C69   C     C_3   0.444791 0.454373 0.277529 -0.457183
C70   C     C_3   0.394275 0.377718 0.211241 -0.677048
H31   H     H_    0.382579 0.248437 0.241610 0.234579
H32   H     H_    0.360789 0.479916 0.193692 0.234133
H33   H     H_    0.404969 0.344455 0.142277 0.207734
H34   H     H_    0.454745 0.579311 0.241217 0.192616
H35   H     H_    0.473935 0.339331 0.279465 0.188198
C71   C     C_3   0.555164 0.424175 0.719838 -0.453049
C72   C     C_3   0.604472 0.335016 0.784073 -0.686343
H36   H     H_    0.614237 0.205683 0.751256 0.234605
H37   H     H_    0.639680 0.430210 0.803766 0.235881
H38   H     H_    0.593236 0.300719 0.852370 0.210561
H39   H     H_    0.547839 0.548914 0.758941 0.192511
H40   H     H_    0.523811 0.315420 0.715705 0.187177
C73   C     C_3   0.942768 0.088813 0.183478 -0.377675
C74   C     C_3   0.884544 0.104635 0.202748 -0.350569
C75   C     C_3   0.885510 0.118367 0.309243 -0.742095
H41   H     H_    0.893737 0.981786 0.343154 0.228841
H42   H     H_    0.918226 0.212450 0.345309 0.247414
H43   H     H_    0.845176 0.167660 0.319621 0.218502
H44   H     H_    0.863397 0.223281 0.164806 0.212372
H45   H     H_    0.859985 0.982528 0.176184 0.195885
H46   H     H_    0.960414 0.986245 0.236133 0.186053
H47   H     H_    0.965009 0.218685 0.203369 0.167217
C76   C     C_3   0.054210 0.087178 0.814814 -0.379138
C77   C     C_3   0.112035 0.107432 0.794459 -0.350347
C78   C     C_3   0.110691 0.114425 0.687648 -0.740451
H48   H     H_    0.102875 0.975731 0.656191 0.229522
H49   H     H_    0.077656 0.206072 0.650161 0.246656
H50   H     H_    0.150787 0.163675 0.676122 0.218884
H51   H     H_    0.131894 0.230483 0.829444 0.212369
H52   H     H_    0.137956 0.989921 0.823921 0.195629
H53   H     H_    0.037933 0.979205 0.764775 0.187206
H54   H     H_    0.030082 0.212566 0.791770 0.166396
C79   C     C_3   0.557228 0.588862 0.316528 -0.377676
C80   C     C_3   0.615452 0.604680 0.297257 -0.350565
C81   C     C_3   0.614486 0.618401 0.190761 -0.742115
H55   H     H_    0.606264 0.481815 0.156858 0.228837
H56   H     H_    0.581767 0.712468 0.154690 0.247418
H57   H     H_    0.654818 0.667703 0.180381 0.218507
H58   H     H_    0.636598 0.723329 0.335194 0.212374
H59   H     H_    0.640011 0.482575 0.323826 0.195886
H60   H     H_    0.539581 0.486310 0.263869 0.186052
H61   H     H_    0.534987 0.718736 0.296642 0.167217
C82   C     C_3   0.445786 0.587153 0.685190 -0.379131
C83   C     C_3   0.387961 0.607389 0.705544 -0.350343
C84   C     C_3   0.389302 0.614365 0.812355 -0.740513
H62   H     H_    0.397144 0.475688 0.843817 0.229540
H63   H     H_    0.422319 0.706071 0.849838 0.246671
H64   H     H_    0.349199 0.663523 0.823879 0.218883
H65   H     H_    0.368099 0.730439 0.670561 0.212373
H66   H     H_    0.362042 0.489876 0.676080 0.195632
H67   H     H_    0.462066 0.479180 0.735229 0.187207
H68   H     H_    0.469912 0.712545 0.708234 0.166401
C85   C     C_3   0.591938 0.095358 0.267968 -0.337272
C86   C     C_3   0.653518 0.085755 0.316314 -0.357750
C87   C     C_3   0.662272 0.067375 0.424712 -0.740675
H69   H     H_    0.646423 0.190329 0.454777 0.233148
H70   H     H_    0.640959 0.945747 0.445140 0.224813
H71   H     H_    0.706841 0.054771 0.456866 0.221990
H72   H     H_    0.673775 0.969653 0.288352 0.204393
H73   H     H_    0.674429 0.214238 0.304910 0.186608
H74   H     H_    0.575887 0.223533 0.290539 0.176143
H75   H     H_    0.571582 0.988553 0.302050 0.184484
C88   C     C_3   0.410101 0.090589 0.729558 -0.337088
C89   C     C_3   0.348739 0.088970 0.679388 -0.360551
C90   C     C_3   0.341053 0.071209 0.571149 -0.740215
H76   H     H_    0.360028 0.189585 0.542387 0.234955
H77   H     H_    0.359981 0.943891 0.551435 0.224754
H78   H     H_    0.296544 0.068859 0.537309 0.223433
H79   H     H_    0.326650 0.975688 0.705938 0.200623
H80   H     H_    0.329167 0.220053 0.690574 0.188685
H81   H     H_    0.427871 0.215658 0.707028 0.173641
H82   H     H_    0.429613 0.980335 0.696297 0.185232
C91   C     C_3   0.908057 0.595313 0.232020 -0.337269
C92   C     C_3   0.846476 0.585708 0.183674 -0.357755
C93   C     C_3   0.837723 0.567319 0.075277 -0.740664
H83   H     H_    0.853571 0.690272 0.045208 0.233149
H84   H     H_    0.859037 0.445690 0.054854 0.224811
H85   H     H_    0.793154 0.554711 0.043123 0.221989
H86   H     H_    0.826220 0.469607 0.211641 0.204390
H87   H     H_    0.825565 0.714191 0.195073 0.186606
H88   H     H_    0.924108 0.723479 0.209435 0.176146
H89   H     H_    0.928412 0.488493 0.197949 0.184483
C94   C     C_3   0.089896 0.590615 0.770433 -0.337089
C95   C     C_3   0.151258 0.589008 0.820605 -0.360549
C96   C     C_3   0.158943 0.571265 0.928846 -0.740211
H90   H     H_    0.139970 0.689651 0.957601 0.234951
H91   H     H_    0.140014 0.443954 0.948567 0.224754
H92   H     H_    0.203453 0.568909 0.962686 0.223431
H93   H     H_    0.173349 0.475722 0.794063 0.200615
H94   H     H_    0.170828 0.720092 0.809410 0.188685
H95   H     H_    0.072123 0.715679 0.792963 0.173640
H96   H     H_    0.070386 0.480354 0.803696 0.185234

loop_
_geom_bond_atom_site_label_1
_geom_bond_atom_site_label_2
_ccdc_geom_bond_type
O17   V3    S    
O1    C5    A    
C95   H93   S    
C69   H35   S    
C59   C63   A    
C88   H82   S    
O19   V1    S    
O13   V1    S    
C84   H62   S    
C91   H88   S    
C76   C77   S    
C20   H3    S    
C56   C59   A    
C44   C48   A    
C72   H38   S    
O15   V3    S    
C48   C56   A    
C24   C69   S    
C53   C54   A    
O4    V2    S    
C69   C70   S    
C14   C25   A    
C35   C51   A    
C50   C62   A    
O7    C3    A    
C80   H58   S    
C49   C61   A    
O5    C1    A    
C79   C80   S    
C67   H30   S    
C55   C56   A    
C9    C18   A    
C36   C40   A    
C38   H9    S    
O9    V1    S    
C46   C54   A    
C37   H10   S    
C14   C18   A    
C74   H44   S    
C68   H27   S    
C18   H1    S    
O4    C8    A    
C75   H43   S    
C62   C88   S    
C32   C44   A    
O1    V3    S    
C96   H92   S    
C85   H74   S    
C67   C68   S    
C12   C23   A    
O2    V4    S    
O3    V1    S    
C66   H21   S    
C16   C82   S    
C31   C39   A    
C44   H7    S    
O3    C7    A    
C30   C38   A    
C71   H39   S    
C2    O16   A    
C95   C96   S    
C7    C9    S    
C42   C46   A    
C93   H85   S    
C81   H56   S    
C41   C45   A    
C92   C93   S    
O14   V2    S    
C61   C85   S    
C91   C92   S    
C3    C30   S    
C76   H53   S    
C65   C66   S    
C16   C20   A    
C51   C63   A    
C86   H72   S    
C80   H59   S    
C87   H71   S    
O11   C7    A    
C55   C60   A    
C89   H80   S    
C93   H83   S    
O12   C8    A    
C13   C73   S    
C15   C79   S    
C9    C22   A    
C36   C52   A    
C91   H89   S    
C58   H18   S    
C10   C17   A    
C77   H52   S    
O10   V2    S    
C57   H17   S    
C11   C24   A    
C45   C53   A    
C1    O15   A    
C86   C87   S    
O5    V1    S    
C83   H65   S    
C17   H2    S    
C35   C39   A    
O7    V3    S    
C67   H29   S    
C34   C38   A    
C23   C71   S    
C27   C28   A    
O8    V4    S    
C60   C64   A    
C73   H47   S    
C42   H5    S    
C77   C78   S    
C35   H15   S    
C41   H6    S    
C58   C62   A    
C78   H50   S    
C33   C49   A    
C82   C83   S    
C57   C61   A    
O18   V4    S    
C30   C42   A    
C15   C19   A    
C43   H8    S    
C8    C10   S    
C85   H75   S    
C94   C95   S    
C15   C28   A    
C89   C90   S    
C52   C64   A    
C90   H78   S    
C83   H66   S    
O2    C6    A    
C11   C20   A    
C81   H55   S    
C21   C25   A    
O8    C4    A    
C33   H13   S    
C94   H95   S    
C96   H90   S    
C81   H57   S    
O9    C5    A    
C10   C21   A    
C76   H54   S    
C66   H23   S    
C39   H12   S    
C70   H33   S    
C4    C29   S    
C65   H24   S    
C83   C84   S    
O6    V2    S    
C89   H79   S    
C85   C86   S    
C92   H87   S    
C80   C81   S    
C84   H64   S    
C68   H28   S    
C90   H77   S    
C77   H51   S    
C79   H60   S    
C72   H36   S    
C54   C57   A    
C70   H32   S    
O16   V4    S    
C73   H46   S    
C36   H16   S    
C3    O13   A    
C95   H94   S    
C88   H81   S    
C34   C50   A    
C71   H40   S    
C48   C52   A    
C29   C37   A    
C72   H37   S    
C79   H61   S    
O6    C2    A    
C23   C27   A    
C75   H41   S    
O11   V3    S    
C5    C11   S    
O12   V4    S    
C16   C27   A    
C6    C12   S    
C73   C74   S    
C22   C26   A    
C53   C58   A    
C1    C32   S    
O10   C6    A    
C78   H49   S    
C2    C31   S    
C40   H11   S    
C88   C89   S    
C64   C94   S    
C74   H45   S    
C78   H48   S    
C43   C47   A    
C13   C26   A    
C75   H42   S    
C21   C67   S    
C47   C55   A    
C69   H34   S    
C60   H20   S    
O20   V2    S    
C94   H96   S    
C96   H91   S    
C71   C72   S    
C82   H67   S    
C13   C17   A    
C90   H76   S    
C66   H22   S    
C14   C76   S    
C74   C75   S    
C65   H25   S    
C87   H69   S    
C63   C91   S    
C33   C37   A    
C19   H4    S    
C24   C28   A    
C59   H19   S    
C32   C40   A    
C25   C26   A    
C46   C50   A    
C22   C65   S    
C4    O14   A    
C92   H86   S    
C93   H84   S    
C45   C49   A    
C82   H68   S    
C12   C19   A    
C87   H70   S    
C29   C41   A    
C68   H26   S    
C47   C51   A    
C86   H73   S    
C31   C43   A    
C70   H31   S    
C34   H14   S    
C84   H63   S    
