data_mof_unit_30880.cif
_audit_creation_date              2012-10-26T20:07:08-0400
_audit_creation_method            fapswitch 2.2
_symmetry_space_group_name_H-M    P1
_symmetry_Int_Tables_number       1
_space_group_crystal_system       triclinic
_cell_length_a                    10.94192
_cell_length_b                    9.731831
_cell_length_c                    27.638757
_cell_angle_alpha                 89.846618
_cell_angle_beta                  90.939123
_cell_angle_gamma                 89.792076
_cell_volume                      2942.68499039

loop_
_atom_site_label
_atom_site_type_symbol
_atom_type_description
_atom_site_fract_x
_atom_site_fract_y
_atom_site_fract_z
_atom_type_partial_charge
C1    C     C_R   0.263049 0.500508 0.503516 0.540156
C2    C     C_R   0.412658 0.385537 0.869340 0.024760
C3    C     C_R   0.487337 0.499820 0.354506 -0.010719
C4    C     C_R   0.511889 0.499607 0.645372 -0.009236
C5    C     C_R   0.392663 0.388241 0.971068 0.025758
C6    C     C_R   0.607289 0.389619 0.029090 0.025659
C7    C     C_R   0.615927 0.408817 0.978408 -0.008209
C8    C     C_R   0.383500 0.403941 0.021855 -0.008191
C9    C     C_R   0.508575 0.402154 0.949414 0.026106
C10   C     C_R   0.491051 0.398739 0.050811 0.025982
C11   C     C_R   0.290252 0.360274 0.941048 -0.146309
C12   C     C_R   0.737479 0.500248 0.497692 0.537197
C13   C     C_R   0.710514 0.362779 0.058948 -0.146279
C14   C     C_R   0.301176 0.354822 0.891012 -0.115554
C15   C     C_R   0.699863 0.354256 0.108957 -0.115033
C16   C     C_R   0.498700 0.500206 0.407726 0.540497
C17   C     C_R   0.501973 0.499878 0.592209 0.540157
C18   C     C_R   0.270955 0.428464 0.044472 -0.137102
C19   C     C_R   0.727648 0.438288 0.955964 -0.137237
C20   C     C_R   0.063641 0.377759 0.508240 0.124113
C21   C     C_R   0.936404 0.628352 0.500810 0.104683
C22   C     C_R   0.939051 0.377638 0.495510 0.122233
C23   C     C_R   0.482981 0.405183 0.101808 -0.063886
C24   C     C_R   0.063691 0.628167 0.506518 0.102356
C25   C     C_R   0.872718 0.502304 0.496351 -0.030683
C26   C     C_R   0.128501 0.502465 0.507476 -0.027504
C27   C     C_R   0.458733 0.073719 0.460412 0.206887
C28   C     C_R   0.544471 0.924748 0.539036 0.222263
C29   C     C_R   0.540204 0.072687 0.539737 0.205729
C30   C     C_R   0.455688 0.925721 0.460939 0.221154
C31   C     C_R   0.372612 0.466257 0.173982 0.386772
C32   C     C_R   0.625260 0.478778 0.826517 0.386167
C33   C     C_R   0.578119 0.385780 0.181170 0.427807
C34   C     C_R   0.516484 0.411657 0.898455 -0.063702
C35   C     C_R   0.422310 0.392349 0.818985 0.427530
C36   C     C_R   0.573697 0.540612 0.274910 0.216536
C37   C     C_R   0.423207 0.543405 0.724256 0.218105
C38   C     C_R   0.584414 0.546314 0.325673 0.077511
C39   C     C_R   0.412067 0.542403 0.673439 0.079555
C40   C     C_R   0.378613 0.451742 0.332138 0.084062
C41   C     C_R   0.622219 0.457831 0.668319 0.079892
C42   C     C_R   0.379511 0.423259 0.282309 -0.087338
C43   C     C_R   0.622023 0.433451 0.718481 -0.088496
C44   C     C_R   0.475917 0.467373 0.253315 0.182176
C45   C     C_R   0.371203 0.438170 0.123778 0.044071
C46   C     C_R   0.523620 0.475899 0.746837 0.182042
C47   C     C_3   0.152079 0.432845 0.335607 -0.322867
C48   C     C_3   0.848772 0.430857 0.664727 -0.324577
C49   C     C_3   0.296376 0.149843 0.403866 -0.274214
C50   C     C_3   0.554949 0.859387 0.625907 -0.282262
C51   C     C_3   0.694061 0.154548 0.598477 -0.273410
C52   C     C_3   0.447468 0.865957 0.373618 -0.285862
C53   C     C_3   0.088117 0.351973 0.133453 -0.271133
C54   C     C_3   0.913711 0.372762 0.867246 -0.271520
C55   C     C_3   0.213148 0.466959 0.648348 -0.315259
C56   C     C_R   0.627272 0.449049 0.876663 0.044430
C57   C     C_3   0.786992 0.498356 0.355944 -0.318001
C58   C     C_3   0.375088 0.736672 0.775306 -0.297235
C59   C     C_3   0.616661 0.733740 0.222984 -0.296084
C60   C     C_3   0.144122 0.140509 0.504288 -0.286380
C61   C     C_3   0.855317 0.806622 0.448409 -0.289790
C62   C     C_3   0.862949 0.139794 0.502122 -0.286316
C63   C     C_3   0.136557 0.797982 0.564163 -0.296936
C64   C     C_R   0.263922 0.447851 0.094566 0.146070
C65   C     C_R   0.734124 0.460739 0.905976 0.145994
C66   C     C_R   0.587635 0.380765 0.130790 0.024885
Cu1   Cu    Cu3+1 0.500000 0.640660 0.500000 0.972581
Cu2   Cu    Cu3+1 0.500000 0.359340 0.500000 0.957146
H1    H     H_    0.304266 0.368998 0.265438 0.153210
H2    H     H_    0.078803 0.429073 0.362921 0.127578
H3    H     H_    0.142452 0.339614 0.312873 0.148821
H4    H     H_    0.139503 0.527178 0.313315 0.173213
H5    H     H_    0.733234 0.497439 0.608790 0.259784
H6    H     H_    0.921370 0.424461 0.637240 0.130231
H7    H     H_    0.854466 0.335444 0.686729 0.146035
H8    H     H_    0.865453 0.522653 0.687683 0.172672
H9    H     H_    0.484166 0.132817 0.389156 0.239075
H10   H     H_    0.247453 0.055178 0.414160 0.100029
H11   H     H_    0.286230 0.162402 0.364071 0.149690
H12   H     H_    0.699027 0.383503 0.736099 0.153846
H13   H     H_    0.253680 0.239369 0.421485 0.201638
H14   H     H_    0.696990 0.839427 0.574960 0.242028
H15   H     H_    0.601326 0.940337 0.647324 0.120850
H16   H     H_    0.574634 0.762307 0.645348 0.159568
H17   H     H_    0.454437 0.876534 0.624790 0.139640
H18   H     H_    0.506451 0.124530 0.611046 0.235226
H19   H     H_    0.747238 0.060409 0.590925 0.097544
H20   H     H_    0.700131 0.173274 0.638026 0.153009
H21   H     H_    0.734746 0.242967 0.579519 0.206399
H22   H     H_    0.307341 0.831779 0.424954 0.243261
H23   H     H_    0.220484 0.332259 0.869289 0.148085
H24   H     H_    0.394941 0.942823 0.352163 0.123027
H25   H     H_    0.436032 0.767598 0.354299 0.160729
H26   H     H_    0.546184 0.892552 0.374804 0.135437
H27   H     H_    0.089652 0.531270 0.093185 0.239774
H28   H     H_    0.003043 0.382212 0.152059 0.154140
H29   H     H_    0.148491 0.297556 0.160003 0.171026
H30   H     H_    0.064239 0.281375 0.103219 0.114388
H31   H     H_    0.905148 0.550689 0.907753 0.240291
H32   H     H_    0.998132 0.406686 0.849024 0.153947
H33   H     H_    0.855811 0.317153 0.840379 0.170882
H34   H     H_    0.781210 0.332921 0.130564 0.148154
H35   H     H_    0.939416 0.302012 0.897406 0.113650
H36   H     H_    0.307141 0.630434 0.618588 0.263180
H37   H     H_    0.254023 0.379399 0.628616 0.141927
H38   H     H_    0.128516 0.500122 0.629036 0.120559
H39   H     H_    0.188482 0.432185 0.685215 0.181895
H40   H     H_    0.677628 0.663200 0.376242 0.261129
H41   H     H_    0.757292 0.425125 0.384186 0.137999
H42   H     H_    0.872426 0.549187 0.368322 0.125617
H43   H     H_    0.807011 0.441023 0.322250 0.177036
H44   H     H_    0.248186 0.621591 0.737003 0.279024
H45   H     H_    0.201474 0.337911 0.955577 0.100884
H46   H     H_    0.301876 0.778658 0.798430 0.146770
H47   H     H_    0.397154 0.813963 0.747106 0.136974
H48   H     H_    0.457115 0.717635 0.798570 0.175395
H49   H     H_    0.747120 0.618784 0.260323 0.281601
H50   H     H_    0.687748 0.775700 0.198895 0.147050
H51   H     H_    0.595974 0.811197 0.251213 0.139315
H52   H     H_    0.533140 0.714108 0.200734 0.173571
H53   H     H_    0.175554 0.279912 0.560400 0.247217
H54   H     H_    0.244221 0.125951 0.503128 0.166450
H55   H     H_    0.104302 0.146207 0.467241 0.161756
H56   H     H_    0.799865 0.343816 0.044285 0.100849
H57   H     H_    0.105959 0.050521 0.522644 0.126000
H58   H     H_    0.899024 0.830460 0.521755 0.237318
H59   H     H_    0.940002 0.855659 0.435260 0.109593
H60   H     H_    0.779119 0.882255 0.447362 0.141979
H61   H     H_    0.831543 0.721523 0.423835 0.157454
H62   H     H_    0.828642 0.274783 0.444098 0.248054
H63   H     H_    0.763596 0.119307 0.501844 0.158310
H64   H     H_    0.898113 0.151612 0.539717 0.163319
H65   H     H_    0.908503 0.050513 0.485958 0.127241
H66   H     H_    0.105033 0.832288 0.489942 0.236655
H67   H     H_    0.187144 0.439111 0.023606 0.098757
H68   H     H_    0.064890 0.874589 0.572697 0.105561
H69   H     H_    0.227865 0.844509 0.570540 0.153829
H70   H     H_    0.124913 0.710621 0.589363 0.152253
H71   H     H_    0.811050 0.450417 0.976924 0.099110
H72   H     H_    0.268881 0.486608 0.392394 0.259059
N1    N     N_R   0.474777 0.437928 0.201904 -0.393638
N2    N     N_2   0.399054 0.853308 0.421965 -0.460200
N3    N     N_2   0.147492 0.473516 0.115055 -0.455244
N4    N     N_2   0.849703 0.491432 0.885687 -0.454963
N5    N     N_2   0.298809 0.579695 0.651035 -0.544675
N6    N     N_2   0.692774 0.600433 0.347097 -0.542199
N7    N     N_2   0.333541 0.610724 0.752856 -0.465722
N8    N     N_2   0.660876 0.608099 0.245310 -0.464349
N9    N     N_2   0.115504 0.260824 0.532183 -0.506449
N10   N     N_2   0.872951 0.756186 0.497307 -0.489010
N11   N     N_2   0.887956 0.258988 0.472918 -0.506003
N12   N     N_R   0.524326 0.447802 0.798407 -0.394267
N13   N     N_2   0.125811 0.754768 0.514136 -0.489723
N14   N     N_R   0.500000 0.852070 0.500000 -0.225506
N15   N     N_R   0.500000 0.147930 0.500000 -0.235479
N16   N     N_2   0.270259 0.434293 0.360017 -0.528046
N17   N     N_2   0.730804 0.441388 0.640473 -0.531192
N18   N     N_2   0.424545 0.144436 0.417345 -0.448355
N19   N     N_2   0.603741 0.851461 0.577486 -0.455519
N20   N     N_2   0.567391 0.141630 0.583662 -0.453268
O1    O     O_R   0.319640 0.618740 0.500000 -0.465203
O2    O     O_2   0.721308 0.542373 0.806411 -0.487337
O3    O     O_2   0.329621 0.345374 0.790828 -0.505668
O4    O     O_2   0.672382 0.341056 0.209210 -0.504976
O5    O     O_R   0.680360 0.381260 0.500000 -0.502886
O6    O     O_R   0.680360 0.618740 0.500000 -0.458733
O7    O     O_R   0.319640 0.381260 0.500000 -0.500676
O8    O     O_R   0.500020 0.618770 0.430260 -0.486957
O9    O     O_R   0.499980 0.381230 0.569740 -0.464118
O10   O     O_R   0.499980 0.618770 0.569740 -0.485727
O11   O     O_R   0.500020 0.381230 0.430260 -0.465562
O12   O     O_2   0.274729 0.526071 0.194304 -0.487615

loop_
_geom_bond_atom_site_label_1
_geom_bond_atom_site_label_2
_ccdc_geom_bond_type
C2    C35   A    
Cu1   O8    S    
C54   N4    S    
C28   N14   A    
H27   N3    S    
C59   H52   S    
C23   C45   A    
C41   C43   A    
C48   H8    S    
C54   H33   S    
C46   N12   S    
Cu2   N15   S    
C50   H16   S    
C57   H43   S    
C49   H10   S    
C27   N18   S    
C34   C56   A    
C52   N2    S    
C55   H37   S    
Cu1   N14   S    
C62   H65   S    
C60   H57   S    
C24   C26   A    
C5    C11   A    
C12   O6    A    
Cu2   O11   S    
C17   O9    A    
C55   N5    S    
H66   N13   S    
C4    C41   A    
C1    O7    A    
C56   C65   A    
H5    N17   S    
C51   N20   S    
C20   N9    S    
C49   H13   S    
Cu1   O1    S    
C38   N6    S    
C50   H17   S    
C53   H30   S    
C36   N8    S    
C57   H41   S    
C3    C38   A    
C44   N1    S    
C22   C25   A    
C32   O2    S    
C50   H15   S    
C52   H26   S    
C61   N10   S    
C61   H61   S    
H9    N18   S    
C29   N15   A    
Cu2   O5    S    
C2    C34   A    
C40   C42   A    
C1    O1    A    
C57   N6    S    
C27   C30   A    
C58   H48   S    
C63   H69   S    
C48   H7    S    
C54   H32   S    
C42   C44   A    
C2    C14   A    
C62   H63   S    
C33   C66   A    
C29   N20   S    
H40   N6    S    
Cu1   O10   S    
C27   N15   A    
C47   H4    S    
C62   N11   S    
C55   H38   S    
Cu1   Cu2   S    
C62   H64   S    
C54   H35   S    
C52   H25   S    
C33   O4    S    
C63   N13   S    
C51   H19   S    
C12   O5    A    
C65   N4    S    
C58   N7    S    
C53   H29   S    
C43   H12   S    
C15   C66   A    
C28   N19   S    
C8    C18   A    
C49   H11   S    
C55   H39   S    
C53   N3    S    
C31   N1    A    
C60   H55   S    
C47   H2    S    
C5    C9    A    
C48   H6    S    
Cu2   O9    S    
H31   N4    S    
C57   H42   S    
C32   N12   A    
C4    C39   A    
C39   N5    S    
C18   H67   S    
C61   H59   S    
C21   N10   S    
C37   N7    S    
C60   H54   S    
C47   H3    S    
H22   N2    S    
H72   N16   S    
C41   N17   S    
C4    C17   S    
Cu1   O6    S    
C19   H71   S    
C20   C22   A    
C3    C40   A    
C59   H50   S    
C7    C19   A    
H49   N8    S    
C31   C45   A    
C1    C26   S    
C10   C23   A    
C63   H70   S    
C49   N18   S    
C36   C44   A    
C35   N12   A    
C24   N13   S    
C23   C66   A    
C7    C9    A    
C21   C25   A    
C22   N11   S    
C28   C29   A    
C59   H51   S    
C17   O10   A    
H36   N5    S    
C31   O12   S    
C51   H20   S    
C6    C10   A    
C5    C8    A    
C6    C7    A    
C64   N3    S    
C50   N19   S    
C48   N17   S    
C45   C64   A    
C30   N2    S    
H44   N7    S    
C12   C25   S    
C33   N1    A    
C63   H68   S    
C13   C15   A    
C37   C39   A    
C59   N8    S    
C6    C13   A    
H14   N19   S    
H58   N10   S    
C16   O11   A    
C18   C64   A    
C58   H47   S    
C9    C34   A    
C20   C26   A    
C16   O8    A    
C36   C38   A    
C11   C14   A    
H53   N9    S    
C13   H56   S    
C61   H60   S    
C60   N9    S    
C42   H1    S    
C15   H34   S    
C11   H45   S    
C43   C46   A    
C35   O3    S    
C14   H23   S    
C52   H24   S    
C19   C65   A    
Cu2   O7    S    
C30   N14   A    
C8    C10   A    
C47   N16   S    
C21   C24   A    
H62   N11   S    
C58   H46   S    
C40   N16   S    
C37   C46   A    
H18   N20   S    
C32   C56   A    
C51   H21   S    
C3    C16   S    
C53   H28   S    
