data_mof_unit_8047.cif
_audit_creation_date              2012-10-26T20:38:02-0400
_audit_creation_method            fapswitch 2.2
_symmetry_space_group_name_H-M    P1
_symmetry_Int_Tables_number       1
_space_group_crystal_system       triclinic
_cell_length_a                    9.846526
_cell_length_b                    11.03007
_cell_length_c                    12.986794
_cell_angle_alpha                 90.006175
_cell_angle_beta                  75.7574
_cell_angle_gamma                 110.875489
_cell_volume                      1271.38815172

loop_
_atom_site_label
_atom_site_type_symbol
_atom_type_description
_atom_site_fract_x
_atom_site_fract_y
_atom_site_fract_z
_atom_type_partial_charge
C1    C     C_R   0.439777 0.254056 0.507759 0.582804
C2    C     C_R   0.665176 0.647662 0.011774 -0.015406
C3    C     C_R   0.347887 0.366239 0.878834 -0.091530
C4    C     C_R   0.652142 0.633701 0.121147 -0.091519
C5    C     C_R   0.549949 0.578459 0.861354 0.205958
C6    C     C_R   0.450035 0.421506 0.138653 0.205960
C7    C     C_R   0.554794 0.557680 0.967697 -0.011598
C8    C     C_R   0.445206 0.442261 0.032300 -0.011589
C9    C     C_2   0.405852 0.114777 0.512075 -0.078438
C10   C     C_2   0.594148 0.885223 0.487926 -0.078450
C11   C     C_2   0.516951 0.069574 0.497937 -0.138513
C12   C     C_R   0.560223 0.745944 0.492241 0.582798
C13   C     C_2   0.483049 0.930426 0.502065 -0.138507
C14   C     C_1   0.750788 0.735448 0.169399 0.222473
C15   C     C_1   0.249274 0.264481 0.830562 0.222445
C16   C     C_1   0.200100 0.251296 0.053298 0.307438
C17   C     C_1   0.799968 0.748554 0.946657 0.307423
C18   C     C_2   0.082831 0.511377 0.491486 -0.001708
C19   C     C_2   0.917169 0.488623 0.508513 -0.001713
C20   C     C_R   0.472726 0.492141 0.702187 0.595498
C21   C     C_R   0.527273 0.507854 0.297812 0.595492
C22   C     C_R   0.543873 0.521401 0.183734 0.000066
C23   C     C_R   0.456124 0.478570 0.816264 0.000070
C24   C     C_R   0.334851 0.352258 0.988207 -0.015422
Cl1   Cl    Cl    0.359098 0.266507 0.214554 -0.560121
Cl2   Cl    Cl    0.640841 0.733487 0.785493 -0.560101
Cu1   Cu    Cu3+1 0.647370 0.522180 0.481340 1.028847
Cu2   Cu    Cu3+1 0.352630 0.477820 0.518660 1.028862
H1    H     H_    0.366172 0.864620 0.516827 0.162885
H2    H     H_    0.633827 0.135379 0.483175 0.162881
H3    H     H_    0.710832 0.951323 0.473147 0.134812
H4    H     H_    0.289168 0.048677 0.526853 0.134821
H5    H     H_    0.835276 0.413364 0.569615 0.149115
H6    H     H_    0.164724 0.586636 0.430385 0.149118
H7    H     H_    0.949156 0.627028 0.396369 0.220295
H8    H     H_    0.050844 0.372972 0.603631 0.220288
N1    N     N_2   0.131210 0.444490 0.546730 -0.343396
N2    N     N_2   0.868790 0.555510 0.453270 -0.343399
N3    N     N_1   0.829167 0.816436 0.207770 -0.240616
N4    N     N_1   0.170921 0.183486 0.792174 -0.240632
N5    N     N_1   0.091755 0.170800 0.104151 -0.192182
N6    N     N_1   0.908347 0.828989 0.895780 -0.192221
O1    O     O_R   0.578710 0.332530 0.490040 -0.512027
O2    O     O_R   0.421290 0.667470 0.509960 -0.512022
O3    O     O_R   0.329810 0.295070 0.521560 -0.465070
O4    O     O_R   0.670190 0.704930 0.478440 -0.465080
O5    O     O_R   0.604230 0.515670 0.637800 -0.471898
O6    O     O_R   0.395770 0.484330 0.362200 -0.471877
O7    O     O_R   0.355330 0.478200 0.669330 -0.487656
O8    O     O_R   0.644670 0.521800 0.330670 -0.487662

loop_
_geom_bond_atom_site_label_1
_geom_bond_atom_site_label_2
_ccdc_geom_bond_type
C2    C4    A    
C20   C23   S    
C20   O7    A    
C19   N2    D    
C4    C22   A    
Cu2   O7    S    
C3    C23   A    
C2    C7    A    
C5    C23   A    
Cu1   O8    S    
C21   O6    A    
C1    C9    S    
C7    C8    A    
C16   C24   S    
C21   C22   S    
C2    C17   S    
C9    C11   D    
C1    O3    A    
C3    C24   A    
C10   C12   S    
Cu2   N1    S    
C10   H3    S    
Cu1   O4    S    
C13   H1    S    
H8    N1    S    
C8    C24   A    
C18   N1    D    
C1    O1    A    
C21   O8    A    
C18   H6    S    
C4    C14   S    
C15   N4    T    
Cu2   O3    S    
C6    Cl1   S    
Cu1   N2    S    
C5    Cl2   S    
C20   O5    A    
Cu1   O1    S    
C11   C13   S    
H7    N2    S    
C3    C15   S    
C12   O4    A    
C18   C19   S    
C19   H5    S    
Cu1   O5    S    
Cu1   Cu2   S    
C5    C7    A    
C17   N6    T    
C12   O2    A    
C6    C8    A    
C9    H4    S    
C14   N3    T    
C16   N5    T    
Cu2   O2    S    
Cu2   O6    S    
C11   H2    S    
C10   C13   D    
C6    C22   A    
