data_mof_unit_54529.cif
_audit_creation_date              2012-12-10T18:44:25-0500
_audit_creation_method            fapswitch 2.2
_symmetry_space_group_name_H-M    P1
_symmetry_Int_Tables_number       1
_space_group_crystal_system       triclinic
_cell_length_a                    12.8991
_cell_length_b                    10.695882
_cell_length_c                    9.929081
_cell_angle_alpha                 91.38469
_cell_angle_beta                  97.026952
_cell_angle_gamma                 92.653968
_cell_volume                      1357.52520634

loop_
_atom_site_label
_atom_site_type_symbol
_atom_type_description
_atom_site_fract_x
_atom_site_fract_y
_atom_site_fract_z
_atom_type_partial_charge
C1    C     C_R   0.511957 0.260854 0.500009 0.927866
C2    C     C_R   0.488044 0.739146 0.499992 0.927858
C3    C     C_R   0.474733 0.873154 0.501566 -0.172007
C4    C     C_R   0.525270 0.126847 0.498436 -0.172012
C5    C     C_R   0.568964 0.577983 0.083867 0.187624
C6    C     C_R   0.431030 0.422023 0.916133 0.187629
C7    C     C_R   0.569395 0.576630 0.940522 0.188339
C8    C     C_R   0.430603 0.423373 0.059478 0.188340
C9    C     C_R   0.298700 0.507253 0.473904 0.925682
C10   C     C_R   0.701301 0.492753 0.526097 0.925680
C11   C     C_R   0.813368 0.482742 0.541725 -0.156331
C12   C     C_R   0.186631 0.517279 0.458283 -0.156333
C13   C     C_R   0.021410 0.493689 0.316441 0.208705
C14   C     C_R   0.978588 0.506349 0.683570 0.208701
C15   C     C_R   0.129561 0.498055 0.330487 -0.189582
C16   C     C_R   0.870438 0.501981 0.669520 -0.189574
C17   C     C_R   0.135791 0.545525 0.571189 0.111853
C18   C     C_R   0.864213 0.454495 0.428825 0.111842
C19   C     C_R   0.029215 0.513313 0.564969 0.041303
C20   C     C_R   0.970788 0.486719 0.435044 0.041307
C21   C     C_R   0.506365 0.056532 0.374531 0.102686
C22   C     C_R   0.493638 0.943469 0.625471 0.102690
C23   C     C_R   0.468389 0.933462 0.376812 0.142866
C24   C     C_R   0.531614 0.066539 0.623190 0.142873
H1    H     H_    0.831075 0.507383 0.759586 0.207681
H2    H     H_    0.168921 0.492657 0.240420 0.207682
N1    N     N_R   0.499970 0.499970 0.857200 -0.114978
N2    N     N_R   0.500030 0.500030 0.142800 -0.114982
O1    O     O_R   0.499990 0.316750 0.614620 -0.613756
O2    O     O_R   0.500010 0.683250 0.385380 -0.613756
O3    O     O_R   0.499990 0.316780 0.385290 -0.591567
O4    O     O_R   0.500010 0.683220 0.614710 -0.591567
O5    O     O_R   0.346360 0.499970 0.595710 -0.618930
O6    O     O_R   0.653640 0.500030 0.404290 -0.618934
O7    O     O_R   0.346360 0.499990 0.366380 -0.589670
O8    O     O_R   0.653640 0.500010 0.633620 -0.589675
Zn1   Zn    Zn3+2 0.500000 0.499980 0.653120 1.002613
Zn2   Zn    Zn3+2 0.500000 0.500020 0.346880 1.002612
I1    I     I_    0.791392 0.319578 0.278482 -0.358047
I2    I     I_    0.208630 0.680413 0.721551 -0.358071
C25   C     C_3   0.965961 0.510190 0.175823 -0.823118
H3    H     H_    0.008393 0.583666 0.123776 0.239358
H4    H     H_    0.963516 0.421079 0.115722 0.264390
H5    H     H_    0.886107 0.543058 0.178445 0.253174
C26   C     C_3   0.034032 0.489844 0.824190 -0.823112
H6    H     H_    0.991580 0.416394 0.876248 0.239351
H7    H     H_    0.113873 0.456936 0.821567 0.253164
H8    H     H_    0.036507 0.578965 0.884280 0.264403
C27   C     C_3   0.538542 0.102066 0.241881 -0.695683
H9    H     H_    0.469335 0.114623 0.167072 0.266923
H10   H     H_    0.588238 0.188963 0.253408 0.269546
H11   H     H_    0.586877 0.031392 0.198949 0.237954
C28   C     C_3   0.461461 0.897937 0.758121 -0.695684
H12   H     H_    0.530666 0.885394 0.832936 0.266922
H13   H     H_    0.413117 0.968607 0.801044 0.237957
H14   H     H_    0.411773 0.811035 0.746600 0.269552
I3    I     I_    0.388384 0.848281 0.190949 -0.324063
I4    I     I_    0.611612 0.151725 0.809055 -0.324050
C29   C     C_3   0.645501 0.669120 0.166810 -0.722835
H15   H     H_    0.631304 0.765893 0.133569 0.232657
H16   H     H_    0.641834 0.671106 0.275305 0.282328
H17   H     H_    0.726531 0.646403 0.152872 0.221947
C30   C     C_3   0.354477 0.330909 0.833186 -0.722817
H18   H     H_    0.368627 0.234132 0.866446 0.232641
H19   H     H_    0.273452 0.353676 0.847094 0.221948
H20   H     H_    0.358167 0.328895 0.724698 0.282329
I5    I     I_    0.682728 0.694951 0.857638 -0.344930
I6    I     I_    0.317261 0.305060 0.142359 -0.344915

loop_
_geom_bond_atom_site_label_1
_geom_bond_atom_site_label_2
_ccdc_geom_bond_type
C6    C30   S    
C12   C17   A    
C10   O8    A    
C18   I1    S    
C30   H19   S    
C11   C18   A    
C9    C12   S    
C14   C16   A    
C12   C15   A    
C14   C26   S    
C5    N2    A    
C5    C7    A    
C11   C16   A    
C28   H13   S    
C3    C23   A    
C19   C20   A    
O3    Zn2   S    
N2    Zn2   S    
C2    O2    A    
C27   H11   S    
C1    C4    S    
C13   C25   S    
C2    C3    S    
C30   H20   S    
C29   H15   S    
C10   O6    A    
C28   H12   S    
C28   H14   S    
C9    O5    A    
C4    C21   A    
C25   H4    S    
C6    N1    A    
N1    Zn1   S    
C4    C24   A    
C21   C27   S    
C14   C19   A    
C1    O1    A    
O8    Zn1   S    
C17   C19   A    
C8    I6    S    
C22   C28   S    
C18   C20   A    
C26   H7    S    
C13   C15   A    
C8    N2    A    
C25   H5    S    
C22   C24   A    
C29   H16   S    
O4    Zn1   S    
C10   C11   S    
C5    C29   S    
C7    I5    S    
C30   H18   S    
C24   I4    S    
C26   H6    S    
C1    O3    A    
O7    Zn2   S    
C7    N1    A    
O2    Zn2   S    
C2    O4    A    
C27   H9    S    
C25   H3    S    
C26   H8    S    
O1    Zn1   S    
C16   H1    S    
C23   I3    S    
C15   H2    S    
C3    C22   A    
C6    C8    A    
C13   C20   A    
C27   H10   S    
O6    Zn2   S    
C21   C23   A    
O5    Zn1   S    
C9    O7    A    
C29   H17   S    
C17   I2    S    
