data_mof_unit_5820.cif
_audit_creation_date              2012-12-11T17:36:21-0500
_audit_creation_method            fapswitch 2.2
_symmetry_space_group_name_H-M    P1
_symmetry_Int_Tables_number       1
_space_group_crystal_system       triclinic
_cell_length_a                    25.964864
_cell_length_b                    6.888983
_cell_length_c                    21.733728
_cell_angle_alpha                 90.00002
_cell_angle_beta                  95.58876
_cell_angle_gamma                 90.0
_cell_volume                      3869.06532373

loop_
_atom_site_label
_atom_site_type_symbol
_atom_type_description
_atom_site_fract_x
_atom_site_fract_y
_atom_site_fract_z
_atom_type_partial_charge
O1    O     O_R   0.208650 0.594520 0.175450 -0.531225
O2    O     O_R   0.791350 0.405480 0.824550 -0.540412
O3    O     O_R   0.291350 0.094520 0.324550 -0.531225
O4    O     O_R   0.708650 0.905480 0.675450 -0.540412
O5    O     O_R   0.192980 0.260780 0.300160 -0.541582
O6    O     O_R   0.807020 0.739220 0.699840 -0.541731
O7    O     O_R   0.307020 0.760780 0.199840 -0.541582
O8    O     O_R   0.692980 0.239220 0.800160 -0.541730
C1    C     C_R   0.179027 0.432744 0.318762 0.673718
C2    C     C_R   0.820640 0.567387 0.680785 0.701384
C3    C     C_R   0.320973 0.932744 0.181238 0.673720
C4    C     C_R   0.679360 0.067387 0.819215 0.701384
O9    O     O_R   0.202550 0.264660 0.174420 -0.538672
O10   O     O_R   0.797450 0.735340 0.825580 -0.538586
O11   O     O_R   0.297450 0.764660 0.325580 -0.538672
O12   O     O_R   0.702550 0.235340 0.674420 -0.538586
O13   O     O_R   0.300990 0.096480 0.197920 -0.538740
O14   O     O_R   0.699010 0.903520 0.802080 -0.539590
O15   O     O_R   0.199010 0.596480 0.302080 -0.538740
O16   O     O_R   0.800990 0.403520 0.697920 -0.539590
C5    C     C_R   0.191046 0.433008 0.151257 0.702799
C6    C     C_R   0.809229 0.566327 0.848371 0.718557
C7    C     C_R   0.308954 0.933008 0.348743 0.702798
C8    C     C_R   0.690771 0.066327 0.651629 0.718558
O17   O     O_3   0.282290 0.427760 0.257860 -0.358688
O18   O     O_3   0.717710 0.572240 0.742140 -0.369636
O19   O     O_3   0.217710 0.927760 0.242140 -0.358689
O20   O     O_3   0.782290 0.072240 0.757860 -0.369636
V1    V     V_3+5 0.244010 0.152080 0.248540 1.430086
V2    V     V_3+5 0.755990 0.847920 0.751460 1.402248
V3    V     V_3+5 0.255990 0.652080 0.251460 1.430086
V4    V     V_3+5 0.744010 0.347920 0.748540 1.402248
C9    C     C_R   0.656139 0.058091 0.593549 -0.079271
C10   C     C_R   0.343327 0.931614 0.407242 -0.079155
C11   C     C_R   0.843861 0.558091 0.906451 -0.079272
C12   C     C_R   0.156673 0.431614 0.092758 -0.079155
C13   C     C_R   0.646408 0.114674 0.483340 -0.160737
C14   C     C_R   0.360290 0.776102 0.506807 -0.178230
C15   C     C_R   0.853592 0.614675 0.016660 -0.160736
C16   C     C_R   0.139709 0.276102 0.993193 -0.178231
C17   C     C_R   0.677473 0.102954 0.538857 -0.188909
C18   C     C_R   0.327537 0.814020 0.454231 -0.177235
C19   C     C_R   0.822527 0.602954 0.961142 -0.188909
C20   C     C_R   0.172462 0.314020 0.045769 -0.177234
C21   C     C_R   0.602222 0.020193 0.592543 -0.063509
C22   C     C_R   0.393510 0.017354 0.413941 -0.083339
C23   C     C_R   0.897778 0.520193 0.907457 -0.063509
C24   C     C_R   0.106490 0.517354 0.086059 -0.083339
C25   C     C_R   0.570317 0.016345 0.534311 0.040016
C26   C     C_R   0.430223 0.958175 0.464832 0.023030
C27   C     C_R   0.929683 0.516346 0.965689 0.040016
C28   C     C_R   0.069777 0.458175 0.035168 0.023030
C29   C     C_R   0.593367 0.074770 0.480646 0.129593
C30   C     C_R   0.411321 0.842589 0.512027 0.130868
C31   C     C_R   0.906633 0.574771 0.019354 0.129593
C32   C     C_R   0.088679 0.342589 0.987973 0.130868
C33   C     C_R   0.516676 0.958200 0.526593 0.057361
C34   C     C_R   0.485096 0.999355 0.470103 0.049701
C35   C     C_R   0.983324 0.458200 0.973407 0.057361
C36   C     C_R   0.014904 0.499355 0.029896 0.049701
C37   C     C_R   0.510812 0.055002 0.418774 -0.183686
C38   C     C_R   0.495374 0.838939 0.570067 -0.172606
C39   C     C_R   0.989188 0.555002 0.081226 -0.183686
C40   C     C_R   0.004626 0.338939 0.929933 -0.172606
C41   C     C_R   0.563647 0.090088 0.423872 -0.194663
C42   C     C_R   0.443990 0.783788 0.563184 -0.205849
C43   C     C_R   0.936353 0.590088 0.076128 -0.194664
C44   C     C_R   0.056010 0.283788 0.936816 -0.205849
H1    H     H_    0.581532 0.129174 0.382549 0.123670
H2    H     H_    0.429980 0.689087 0.597781 0.122684
H3    H     H_    0.918468 0.629175 0.117450 0.123670
H4    H     H_    0.070020 0.189087 0.902219 0.122684
H5    H     H_    0.289355 0.748749 0.449786 0.117281
H6    H     H_    0.718399 0.134908 0.539492 0.111345
H7    H     H_    0.210645 0.248748 0.050214 0.117281
H8    H     H_    0.781601 0.634909 0.960508 0.111345
H9    H     H_    0.664077 0.155426 0.442039 0.116692
H10   H     H_    0.346319 0.685190 0.542365 0.117798
H11   H     H_    0.835923 0.655427 0.057961 0.116692
H12   H     H_    0.153681 0.185189 0.957635 0.117799
H13   H     H_    0.491946 0.056135 0.372604 0.141088
H14   H     H_    0.518764 0.770561 0.607300 0.144212
H15   H     H_    0.008054 0.556135 0.127396 0.141088
H16   H     H_    0.981236 0.270561 0.892700 0.144212
C45   C     C_R   0.432649 0.797055 0.086982 -0.136417
C46   C     C_R   0.570232 0.205009 0.917190 -0.149196
C47   C     C_R   0.067351 0.297055 0.413018 -0.136417
C48   C     C_R   0.929768 0.705009 0.582810 -0.149196
H17   H     H_    0.455248 0.669629 0.078151 0.106318
H18   H     H_    0.548490 0.333357 0.927351 0.106511
H19   H     H_    0.044751 0.169629 0.421849 0.106318
H20   H     H_    0.951510 0.833357 0.572649 0.106511
C49   C     C_R   0.392999 0.781978 0.126437 -0.180126
C50   C     C_R   0.609487 0.220015 0.877200 -0.164368
C51   C     C_R   0.107000 0.281978 0.373563 -0.180126
C52   C     C_R   0.890513 0.720015 0.622800 -0.164368
H21   H     H_    0.386047 0.642827 0.147291 0.117307
H22   H     H_    0.616949 0.360028 0.857229 0.116442
H23   H     H_    0.113953 0.142827 0.352709 0.117307
H24   H     H_    0.883051 0.860028 0.642771 0.116442
C53   C     C_R   0.363027 0.945257 0.139014 -0.055904
C54   C     C_R   0.638156 0.055325 0.862617 -0.038424
C55   C     C_R   0.136973 0.445257 0.360986 -0.055905
C56   C     C_R   0.861844 0.555325 0.637383 -0.038423
C57   C     C_R   0.373575 0.122964 0.110503 -0.185011
C58   C     C_R   0.626852 0.876363 0.889901 -0.180497
C59   C     C_R   0.126424 0.622964 0.389497 -0.185011
C60   C     C_R   0.873147 0.376363 0.610099 -0.180497
H25   H     H_    0.351250 0.251719 0.118531 0.122045
H26   H     H_    0.648079 0.746365 0.880223 0.120429
H27   H     H_    0.148750 0.751719 0.381469 0.122044
H28   H     H_    0.851921 0.246365 0.619776 0.120430
C61   C     C_R   0.413193 0.137718 0.071332 -0.143145
C62   C     C_R   0.587632 0.861761 0.929628 -0.150152
C63   C     C_R   0.086807 0.637718 0.428668 -0.143145
C64   C     C_R   0.912368 0.361761 0.570372 -0.150153
H29   H     H_    0.420519 0.276463 0.050369 0.108331
H30   H     H_    0.579583 0.721990 0.949455 0.109324
H31   H     H_    0.079480 0.776464 0.449631 0.108331
H32   H     H_    0.920417 0.221990 0.550545 0.109324
C65   C     C_R   0.443025 0.975214 0.059301 0.133498
C66   C     C_R   0.558985 0.025576 0.943472 0.126855
C67   C     C_R   0.056975 0.475214 0.440699 0.133498
C68   C     C_R   0.941015 0.525576 0.556528 0.126856
C69   C     C_1   0.484006 0.992401 0.018536 -0.065123
C70   C     C_1   0.518119 0.008262 0.984382 -0.063936
C71   C     C_1   0.015994 0.492401 0.481464 -0.065123
C72   C     C_1   0.981881 0.508262 0.515618 -0.063936
C73   C     C_R   0.404008 0.180880 0.372354 0.069342
C74   C     C_R   0.404778 0.152105 0.308336 -0.112753
C75   C     C_R   0.415419 0.307215 0.270043 -0.093993
C76   C     C_R   0.425457 0.491502 0.295140 -0.103701
C77   C     C_R   0.425312 0.520714 0.358679 -0.107508
C78   C     C_R   0.414446 0.366648 0.397236 -0.093898
H33   H     H_    0.398205 0.009093 0.288442 0.071792
H34   H     H_    0.416473 0.284419 0.221011 0.108096
H35   H     H_    0.433843 0.611287 0.265460 0.095646
H36   H     H_    0.434061 0.662497 0.378012 0.117873
H37   H     H_    0.414452 0.391699 0.446446 0.117703
C79   C     C_R   0.579573 0.015204 0.652653 0.052790
C80   C     C_R   0.589396 0.857759 0.693305 -0.153691
C81   C     C_R   0.564166 0.845337 0.747080 -0.126946
C82   C     C_R   0.530470 0.992819 0.761759 -0.082879
C83   C     C_R   0.521916 0.153031 0.722643 -0.129135
C84   C     C_R   0.546127 0.163975 0.668040 -0.109156
H38   H     H_    0.614583 0.740642 0.681845 0.128500
H39   H     H_    0.570636 0.721003 0.777285 0.113067
H40   H     H_    0.511153 0.983271 0.803587 0.119976
H41   H     H_    0.496033 0.267595 0.734258 0.107804
H42   H     H_    0.538361 0.286725 0.637378 0.108232
C85   C     C_R   0.095991 0.680880 0.127646 0.069342
C86   C     C_R   0.095222 0.652106 0.191664 -0.112753
C87   C     C_R   0.084581 0.807216 0.229957 -0.093994
C88   C     C_R   0.074543 0.991502 0.204860 -0.103701
C89   C     C_R   0.074688 0.020715 0.141320 -0.107509
C90   C     C_R   0.085554 0.866648 0.102764 -0.093897
H43   H     H_    0.101794 0.509094 0.211558 0.071791
H44   H     H_    0.083527 0.784419 0.278989 0.108096
H45   H     H_    0.066157 0.111287 0.234540 0.095646
H46   H     H_    0.065939 0.162497 0.121988 0.117873
H47   H     H_    0.085548 0.891699 0.053554 0.117703
C91   C     C_R   0.920427 0.515203 0.847347 0.052790
C92   C     C_R   0.910604 0.357759 0.806695 -0.153691
C93   C     C_R   0.935834 0.345337 0.752920 -0.126946
C94   C     C_R   0.969530 0.492818 0.738241 -0.082879
C95   C     C_R   0.978083 0.653030 0.777357 -0.129135
C96   C     C_R   0.953873 0.663974 0.831960 -0.109156
H48   H     H_    0.885417 0.240641 0.818154 0.128499
H49   H     H_    0.929363 0.221002 0.722715 0.113067
H50   H     H_    0.988847 0.483270 0.696413 0.119976
H51   H     H_    0.003967 0.767595 0.765742 0.107804
H52   H     H_    0.961639 0.786725 0.862622 0.108232

loop_
_geom_bond_atom_site_label_1
_geom_bond_atom_site_label_2
_ccdc_geom_bond_type
O17   V3    S    
C91   C96   A    
C48   C52   A    
O1    C5    A    
C94   C95   A    
C47   H19   S    
O19   V1    S    
C9    C21   A    
O3    C7    A    
C92   C93   A    
C10   C18   A    
C48   C68   A    
C11   C23   A    
C22   C73   S    
C25   C33   A    
C33   C38   A    
C5    C12   S    
C42   H2    S    
O7    C3    A    
C6    C11   S    
O5    C1    A    
C26   C30   A    
C58   C62   A    
C36   C39   A    
C40   C44   A    
C57   C61   A    
C93   C94   A    
C14   C18   A    
C24   C28   A    
C58   H26   S    
O4    C8    A    
C51   H23   S    
C50   H22   S    
C82   C83   A    
O1    V3    S    
O13   V1    S    
C31   C43   A    
O2    V4    S    
C87   H44   S    
O3    V1    S    
C40   H16   S    
C46   C50   A    
C17   H6    S    
C23   C91   S    
C45   C49   A    
C1    O15   A    
C15   C31   A    
C48   H20   S    
C2    O16   A    
C76   C77   A    
C16   C32   A    
C47   C51   A    
O2    C6    A    
C85   C86   A    
C16   H12   S    
C45   C65   A    
C10   C22   A    
C11   C19   A    
C16   C20   A    
C43   H3    S    
C84   H42   S    
C1    C55   S    
C68   C72   S    
C13   C29   A    
C34   C37   A    
O11   C7    A    
C38   H14   S    
O15   V3    S    
C35   C36   A    
O12   C8    A    
C53   C57   A    
C93   H49   S    
O10   V2    S    
C51   C55   A    
O5    V1    S    
O17   V1    S    
C82   H40   S    
C39   C43   A    
C63   C67   A    
C38   C42   A    
O19   V3    S    
C26   C34   A    
O20   V4    S    
O7    V3    S    
C79   C80   A    
C75   H34   S    
C46   H18   S    
C49   C53   A    
C78   H37   S    
C45   H17   S    
O18   V4    S    
C15   C19   A    
C14   H10   S    
C76   H35   S    
C32   C44   A    
C13   H9    S    
C21   C79   S    
C64   H32   S    
C39   H15   S    
C44   H4    S    
O8    V4    S    
C66   C70   S    
C20   H7    S    
C4    C54   S    
C83   H41   S    
C37   C41   A    
C67   C71   S    
C14   C30   A    
C21   C25   A    
O8    C4    A    
C7    C10   S    
C35   C40   A    
O9    C5    A    
C3    C53   S    
C85   C90   A    
C59   C63   A    
C88   C89   A    
C62   H30   S    
C95   H51   S    
C80   H38   S    
C61   H29   S    
O6    V2    S    
C74   H33   S    
C65   C69   S    
O18   V2    S    
C63   H31   S    
C52   C56   A    
C69   C70   T    
C12   C20   A    
C27   C35   A    
C71   C72   T    
C49   H21   S    
C56   C60   A    
C29   C41   A    
C91   C92   A    
O16   V4    S    
O9    V1    S    
C94   H50   S    
C57   H25   S    
C86   H43   S    
C3    O13   A    
C18   H5    S    
C64   C68   A    
C89   H46   S    
C59   H27   S    
C81   H39   S    
C83   C84   A    
C79   C84   A    
C90   H47   S    
C23   C27   A    
O11   V3    S    
C96   H52   S    
C30   C42   A    
O12   V4    S    
C22   C26   A    
C8    C9    S    
C9    C17   A    
C60   C64   A    
C2    C56   S    
C74   C75   A    
C73   C74   A    
C92   H48   S    
C88   H45   S    
C37   H13   S    
C80   C81   A    
C47   C67   A    
O10   C6    A    
C33   C34   A    
C77   C78   A    
C95   C96   A    
C28   C32   A    
C41   H1    S    
C52   H24   S    
O20   V2    S    
C12   C24   A    
C27   C31   A    
C13   C17   A    
C46   C66   A    
C25   C29   A    
O6    C2    A    
C24   C85   S    
O14   V2    S    
C73   C78   A    
C62   C66   A    
C60   H28   S    
C77   H36   S    
C61   C65   A    
C86   C87   A    
C50   C54   A    
C28   C36   A    
C54   C58   A    
C4    O14   A    
C89   C90   A    
C81   C82   A    
C19   H8    S    
C55   C59   A    
C87   C88   A    
O4    V2    S    
C75   C76   A    
C15   H11   S    
