data_mof_unit_48395.cif
_audit_creation_date              2012-12-10T17:43:22-0500
_audit_creation_method            fapswitch 2.2
_symmetry_space_group_name_H-M    P1
_symmetry_Int_Tables_number       1
_space_group_crystal_system       triclinic
_cell_length_a                    15.065359
_cell_length_b                    13.727978
_cell_length_c                    10.629982
_cell_angle_alpha                 90.621107
_cell_angle_beta                  89.148542
_cell_angle_gamma                 90.128019
_cell_volume                      2198.08346811

loop_
_atom_site_label
_atom_site_type_symbol
_atom_type_description
_atom_site_fract_x
_atom_site_fract_y
_atom_site_fract_z
_atom_type_partial_charge
C1    C     C_R   0.329029 0.500032 0.505510 0.807102
C2    C     C_R   0.670971 0.499968 0.494490 0.807104
C3    C     C_R   0.953124 0.500061 0.497483 -0.011071
C4    C     C_R   0.046876 0.499935 0.502521 -0.011066
C5    C     C_R   0.909478 0.448099 0.399878 0.077579
C6    C     C_R   0.090522 0.551897 0.600125 0.077583
C7    C     C_R   0.946725 0.605041 0.685965 0.158233
C8    C     C_R   0.053274 0.394951 0.314043 0.158238
C9    C     C_R   0.039195 0.605191 0.688270 -0.259006
C10   C     C_R   0.960804 0.394803 0.311735 -0.258993
C11   C     C_R   0.451460 0.793376 0.588141 0.008802
C12   C     C_R   0.548543 0.206624 0.411862 0.008802
C13   C     C_R   0.548147 0.792078 0.411670 0.013272
C14   C     C_R   0.451849 0.207922 0.588326 0.013272
C15   C     C_R   0.549295 0.895507 0.407231 -0.042152
C16   C     C_R   0.450702 0.104492 0.592766 -0.042153
C17   C     C_R   0.449090 0.896972 0.591343 -0.040623
C18   C     C_R   0.550910 0.103027 0.408658 -0.040620
C19   C     C_R   0.499808 0.948295 0.499878 0.016106
C20   C     C_R   0.500191 0.051705 0.500121 0.016106
C21   C     C_R   0.598486 0.946366 0.312919 0.065037
C22   C     C_R   0.401507 0.053633 0.687074 0.065038
C23   C     C_R   0.397921 0.949551 0.683450 0.066203
C24   C     C_R   0.602075 0.050448 0.316546 0.066201
C25   C     C_R   0.500413 0.499571 0.259118 0.781972
C26   C     C_R   0.499587 0.500429 0.740882 0.781971
C27   C     C_3   0.425565 0.542405 0.044921 -0.169871
C28   C     C_3   0.574435 0.457596 0.955079 -0.169869
C29   C     C_3   0.496450 0.592612 0.961213 -0.141335
C30   C     C_3   0.503549 0.407389 0.038786 -0.141332
C31   C     C_3   0.428757 0.450750 0.959152 -0.171328
C32   C     C_3   0.571243 0.549251 0.040848 -0.171323
C33   C     C_3   0.499604 0.500991 0.877721 0.033836
C34   C     C_3   0.500395 0.499010 0.122279 0.033837
C35   C     C_R   0.815488 0.450825 0.392365 0.124737
C36   C     C_R   0.184512 0.549173 0.607637 0.124741
C37   C     C_R   0.767414 0.499794 0.488916 -0.099723
C38   C     C_R   0.232586 0.500205 0.511085 -0.099718
C39   C     C_R   0.810649 0.550233 0.584071 -0.290745
C40   C     C_R   0.189351 0.449767 0.415929 -0.290755
C41   C     C_R   0.903120 0.552253 0.589849 0.093240
C42   C     C_R   0.096880 0.447744 0.410155 0.093226
Cu1   Cu    Cu3+1 0.500000 0.597420 0.500000 0.925350
Cu2   Cu    Cu3+1 0.500000 0.402580 0.500000 0.925350
H1    H     H_    0.371240 0.409105 0.923158 0.123884
H2    H     H_    0.628759 0.590895 0.076843 0.123881
H3    H     H_    0.364957 0.577003 0.085599 0.126872
H4    H     H_    0.635043 0.422998 0.914402 0.126870
H5    H     H_    0.494779 0.668246 0.926491 0.140350
H6    H     H_    0.505219 0.331755 0.073509 0.140348
H7    H     H_    0.770030 0.587207 0.654270 0.163059
H8    H     H_    0.229970 0.412797 0.345727 0.163065
H9    H     H_    0.070185 0.647450 0.761702 0.156035
H10   H     H_    0.929815 0.352543 0.238305 0.156033
H11   H     H_    0.415958 0.750139 0.656319 0.137077
H12   H     H_    0.584049 0.249861 0.343688 0.137074
H13   H     H_    0.586155 0.747867 0.346303 0.144721
H14   H     H_    0.413838 0.252133 0.653689 0.144721
N1    N     N_R   0.500000 0.743810 0.500000 -0.188255
N2    N     N_R   0.500000 0.256190 0.500000 -0.188254
O1    O     O_R   0.370260 0.582280 0.500030 -0.588362
O2    O     O_R   0.629740 0.417720 0.499970 -0.588363
O3    O     O_R   0.629740 0.582280 0.499970 -0.579966
O4    O     O_R   0.370260 0.417720 0.500030 -0.579966
O5    O     O_R   0.499980 0.582260 0.316850 -0.587094
O6    O     O_R   0.500020 0.417740 0.683150 -0.587093
O7    O     O_R   0.500020 0.582260 0.683150 -0.599721
O8    O     O_R   0.499980 0.417740 0.316850 -0.599720
C43   C     C_3   0.767441 0.409131 0.277926 -0.418664
C44   C     C_3   0.784120 0.472230 0.162404 -0.871442
H15   H     H_    0.761085 0.547669 0.182050 0.250167
H16   H     H_    0.855437 0.474913 0.135804 0.263196
H17   H     H_    0.747222 0.442101 0.081329 0.241333
H18   H     H_    0.787427 0.332564 0.259182 0.186927
H19   H     H_    0.694631 0.405561 0.291452 0.211129
C45   C     C_3   0.232559 0.590865 0.722077 -0.418672
C46   C     C_3   0.215881 0.527765 0.837597 -0.871435
H20   H     H_    0.144565 0.525080 0.864197 0.263197
H21   H     H_    0.238917 0.452327 0.817949 0.250160
H22   H     H_    0.252778 0.557894 0.918673 0.241330
H23   H     H_    0.305369 0.594436 0.708549 0.211127
H24   H     H_    0.212573 0.667432 0.740823 0.186931
C47   C     C_3   0.897597 0.660756 0.789710 -0.406231
C48   C     C_3   0.863897 0.591802 0.891674 -0.845452
H25   H     H_    0.818132 0.536097 0.852709 0.250844
H26   H     H_    0.920783 0.554383 0.935500 0.253173
H27   H     H_    0.827683 0.633972 0.965536 0.247633
H28   H     H_    0.942080 0.715030 0.835118 0.195939
H29   H     H_    0.842361 0.704118 0.751245 0.194150
C49   C     C_3   0.102403 0.339227 0.210308 -0.406238
C50   C     C_3   0.136100 0.408170 0.108329 -0.845425
H30   H     H_    0.079208 0.445544 0.064451 0.253162
H31   H     H_    0.181828 0.463914 0.147295 0.250849
H32   H     H_    0.172355 0.365998 0.034508 0.247624
H33   H     H_    0.157642 0.295872 0.248781 0.194148
H34   H     H_    0.057922 0.284945 0.164912 0.195937
C51   C     C_3   0.644562 0.889267 0.206374 -0.424833
C52   C     C_3   0.736124 0.852619 0.246271 -0.338112
C53   C     C_3   0.778854 0.789489 0.143309 -0.868251
H35   H     H_    0.735991 0.725592 0.122792 0.242031
H36   H     H_    0.788823 0.832196 0.056045 0.255150
H37   H     H_    0.844349 0.762994 0.174944 0.248824
H38   H     H_    0.780407 0.915499 0.266387 0.213287
H39   H     H_    0.730307 0.809128 0.333491 0.219376
H40   H     H_    0.602016 0.827937 0.174487 0.183921
H41   H     H_    0.651823 0.932551 0.119637 0.200691
C54   C     C_3   0.355414 0.110734 0.793604 -0.424821
C55   C     C_3   0.263855 0.147369 0.753679 -0.338123
C56   C     C_3   0.221108 0.210506 0.856615 -0.868246
H42   H     H_    0.211150 0.167818 0.943897 0.255147
H43   H     H_    0.263951 0.274422 0.877109 0.242026
H44   H     H_    0.155607 0.236971 0.824967 0.248836
H45   H     H_    0.269679 0.190850 0.666451 0.219381
H46   H     H_    0.219580 0.084483 0.733564 0.213290
H47   H     H_    0.348146 0.067453 0.880344 0.200681
H48   H     H_    0.397953 0.172069 0.825498 0.183919
C57   C     C_3   0.338751 0.894501 0.776689 -0.415090
C58   C     C_3   0.392149 0.861207 0.890326 -0.351486
C59   C     C_3   0.336209 0.797350 0.977393 -0.868876
H49   H     H_    0.276508 0.837579 0.011504 0.257614
H50   H     H_    0.315237 0.730110 0.926979 0.254899
H51   H     H_    0.376036 0.776343 0.059850 0.245073
H52   H     H_    0.451483 0.819788 0.857962 0.209306
H53   H     H_    0.416016 0.925483 0.944502 0.212613
H54   H     H_    0.281283 0.938578 0.809404 0.199029
H55   H     H_    0.305867 0.831863 0.729715 0.177904
C60   C     C_3   0.661243 0.105497 0.223303 -0.415090
C61   C     C_3   0.607839 0.138798 0.109675 -0.351488
C62   C     C_3   0.663782 0.202642 0.022594 -0.868868
H56   H     H_    0.684776 0.269876 0.073003 0.254900
H57   H     H_    0.723469 0.162397 0.988466 0.257612
H58   H     H_    0.623948 0.223661 0.940149 0.245073
H59   H     H_    0.583956 0.074527 0.055507 0.212613
H60   H     H_    0.548515 0.180230 0.142049 0.209304
H61   H     H_    0.694134 0.168131 0.270276 0.177901
H62   H     H_    0.718705 0.061416 0.190578 0.199036

loop_
_geom_bond_atom_site_label_1
_geom_bond_atom_site_label_2
_ccdc_geom_bond_type
C39   H7    S    
C27   C29   S    
Cu2   O6    S    
C19   C20   A    
C48   H27   S    
C61   C62   S    
C6    C9    A    
C51   C52   S    
C49   C50   S    
Cu1   O3    S    
C49   H33   S    
C39   C41   A    
C29   H5    S    
C46   H20   S    
Cu2   O4    S    
C15   C19   A    
C17   C23   A    
C18   C24   A    
C26   O7    A    
C35   C37   A    
C8    C42   A    
C29   C32   S    
C56   H43   S    
C30   C31   S    
C46   H22   S    
C13   H13   S    
C52   H38   S    
C29   C33   S    
C55   C56   S    
C55   H46   S    
C58   C59   S    
C36   C45   S    
C48   H25   S    
C28   H4    S    
C53   H35   S    
C14   H14   S    
C24   C60   S    
C54   C55   S    
C31   C33   S    
C44   H15   S    
C57   H55   S    
Cu1   O5    S    
C25   C34   S    
C62   H58   S    
C51   H40   S    
C40   C42   A    
C47   H28   S    
C30   H6    S    
C25   O8    A    
C11   N1    A    
C59   H50   S    
C27   C34   S    
C47   H29   S    
C30   C34   S    
C27   C31   S    
C26   O6    A    
C28   C32   S    
C25   O5    A    
C60   H62   S    
C4    C6    A    
C56   H42   S    
C56   H44   S    
C45   H24   S    
C50   H30   S    
Cu2   O2    S    
C40   H8    S    
C32   C34   S    
C55   H45   S    
Cu1   Cu2   S    
C61   H60   S    
C50   H31   S    
C21   C51   S    
C26   C33   S    
C47   C48   S    
C16   C20   A    
C44   H17   S    
C46   H21   S    
C43   H18   S    
C58   H53   S    
C45   C46   S    
C54   H47   S    
C12   H12   S    
C1    C38   S    
C51   H41   S    
Cu1   O7    S    
C53   H36   S    
C28   C33   S    
C13   C15   A    
C14   C16   A    
Cu2   O8    S    
C9    H9    S    
C3    C4    A    
C1    O4    A    
C11   H11   S    
C2    O3    A    
Cu1   O1    S    
C62   H56   S    
C59   H51   S    
C27   H3    S    
C7    C9    A    
C11   C17   A    
C16   C22   A    
C32   H2    S    
C48   H26   S    
C3    C5    A    
C1    O1    A    
C45   H23   S    
C23   C57   S    
C59   H49   S    
C49   H34   S    
C60   C61   S    
C13   N1    A    
Cu1   N1    S    
C14   N2    A    
C36   C38   A    
C5    C10   A    
C37   C39   A    
C61   H59   S    
C50   H32   S    
C38   C40   A    
C2    C37   S    
C7    C47   S    
C60   H61   S    
C4    C42   A    
Cu2   N2    S    
C52   H39   S    
C5    C35   A    
C28   C30   S    
C17   C19   A    
C6    C36   A    
C43   H19   S    
C18   C20   A    
C58   H52   S    
C7    C41   A    
C43   C44   S    
C10   H10   S    
C54   H48   S    
C3    C41   A    
C12   N2    A    
C2    O2    A    
C15   C21   A    
C53   H37   S    
C8    C49   S    
C35   C43   S    
C8    C10   A    
C52   C53   S    
C31   H1    S    
C21   C24   A    
C12   C18   A    
C22   C23   A    
C44   H16   S    
C57   C58   S    
C57   H54   S    
C22   C54   S    
C62   H57   S    
