data_mof_unit_50307.cif
_audit_creation_date              2012-12-11T15:37:34-0500
_audit_creation_method            fapswitch 2.2
_symmetry_space_group_name_H-M    P1
_symmetry_Int_Tables_number       1
_space_group_crystal_system       triclinic
_cell_length_a                    17.521436
_cell_length_b                    24.729763
_cell_length_c                    14.751896
_cell_angle_alpha                 90.000236
_cell_angle_beta                  126.273073
_cell_angle_gamma                 90.000874
_cell_volume                      5153.28004811

loop_
_atom_site_label
_atom_site_type_symbol
_atom_type_description
_atom_site_fract_x
_atom_site_fract_y
_atom_site_fract_z
_atom_type_partial_charge
C1    C     C_R   0.813655 0.629606 0.904392 -0.068919
C2    C     C_3   0.597036 0.499331 0.532883 0.176060
C3    C     C_3   0.068072 0.987223 0.415234 -0.131005
C4    C     C_3   0.681522 0.254308 0.729788 0.226517
C5    C     C_3   0.707470 0.267157 0.650396 -0.816766
C6    C     C_3   0.231742 0.787857 0.248074 0.222185
C7    C     C_3   0.208764 0.769242 0.327720 -0.806252
C8    C     C_3   0.232056 0.212084 0.248153 0.221814
C9    C     C_3   0.209071 0.230627 0.327830 -0.805160
C10   C     C_3   0.680969 0.744954 0.729467 0.226075
C11   C     C_3   0.707120 0.732291 0.650199 -0.813644
C12   C     C_3   0.180970 0.755043 0.729472 0.226053
C13   C     C_3   0.923426 0.999430 0.354941 0.172879
C14   C     C_3   0.207126 0.767699 0.650207 -0.813649
C15   C     C_3   0.732046 0.287937 0.248168 0.221786
C16   C     C_3   0.709104 0.269376 0.327874 -0.805118
C17   C     C_3   0.731736 0.712141 0.248068 0.222191
C18   C     C_3   0.708765 0.730759 0.327718 -0.806275
C19   C     C_3   0.181671 0.245848 0.729867 0.226535
C20   C     C_3   0.207577 0.232941 0.650456 -0.816761
C21   C     C_3   0.096949 0.000652 0.532976 0.176087
C22   C     C_R   0.733125 0.266667 0.913175 0.592048
C23   C     C_R   0.186172 0.771662 0.067362 0.593133
C24   C     C_R   0.186543 0.228472 0.067505 0.593082
C25   C     C_R   0.732651 0.732930 0.912909 0.591947
C26   C     C_R   0.232655 0.767064 0.912915 0.591948
C27   C     C_R   0.686523 0.271539 0.067515 0.593111
C28   C     C_R   0.686172 0.728339 0.067360 0.593137
C29   C     C_R   0.149706 0.348314 0.092171 -0.147486
C30   C     C_R   0.233194 0.233381 0.913211 0.592075
C31   C     C_R   0.182332 0.726058 0.917610 -0.413177
C32   C     C_R   0.739396 0.312764 0.064761 -0.416888
C33   C     C_R   0.738795 0.686968 0.064512 -0.416725
C34   C     C_R   0.182577 0.274235 0.917789 -0.414411
C35   C     C_R   0.682541 0.225797 0.917768 -0.414264
C36   C     C_R   0.238801 0.813031 0.064517 -0.416705
C37   C     C_R   0.239442 0.187262 0.064764 -0.416893
C38   C     C_R   0.682333 0.773939 0.917604 -0.413197
C39   C     C_R   0.157919 0.728850 0.991781 -0.026402
C40   C     C_R   0.149720 0.651698 0.092133 -0.147824
C41   C     C_R   0.765176 0.308810 0.991612 -0.020176
C42   C     C_R   0.764550 0.690779 0.991319 -0.020753
C43   C     C_R   0.158064 0.271270 0.991859 -0.025911
C44   C     C_R   0.658052 0.228742 0.991862 -0.025960
C45   C     C_R   0.264556 0.809216 0.991325 -0.020766
C46   C     C_R   0.265241 0.191233 0.991635 -0.020130
C47   C     C_R   0.657922 0.771150 0.991778 -0.026385
C48   C     C_R   0.114819 0.451094 0.638316 -0.151140
C49   C     C_R   0.117895 0.548933 0.546593 -0.155621
C50   C     C_R   0.117900 0.451069 0.546595 -0.156447
C51   C     C_R   0.813990 0.370016 0.904463 -0.068955
C52   C     C_R   0.114818 0.548906 0.638317 -0.151404
C53   C     C_R   0.614811 0.951095 0.638312 -0.151389
C54   C     C_R   0.617903 0.048932 0.546598 -0.156431
C55   C     C_R   0.617885 0.951068 0.546586 -0.155632
C56   C     C_R   0.614826 0.048907 0.638323 -0.151118
C57   C     C_R   0.109226 0.500001 0.493039 0.127090
C58   C     C_R   0.101895 0.500000 0.675822 0.136871
C59   C     C_R   0.609222 1.000000 0.493037 0.127065
C60   C     C_R   0.601897 0.000001 0.675824 0.136858
C61   C     C_R   0.914101 0.364250 0.092967 0.206780
C62   C     C_R   0.314024 0.130021 0.904462 -0.068964
C63   C     C_R   0.050352 0.650887 0.905374 0.149784
C64   C     C_R   0.050279 0.349093 0.905411 0.149474
C65   C     C_R   0.913763 0.635529 0.092894 0.207240
C66   C     C_R   0.413767 0.864468 0.092896 0.207239
C67   C     C_R   0.550285 0.150905 0.905412 0.149477
C68   C     C_R   0.550356 0.849114 0.905372 0.149782
C69   C     C_R   0.414132 0.135772 0.092971 0.206746
C70   C     C_R   0.055429 0.544913 0.309209 -0.097998
C71   C     C_R   0.022921 0.454570 0.755347 -0.095911
C72   C     C_R   0.022916 0.545427 0.755337 -0.096448
C73   C     C_R   0.649723 0.848304 0.092132 -0.147823
C74   C     C_R   0.055409 0.455090 0.309203 -0.098734
C75   C     C_R   0.555406 0.044911 0.309202 -0.098738
C76   C     C_R   0.522919 0.954574 0.755341 -0.096446
C77   C     C_R   0.522922 0.045430 0.755347 -0.095908
C78   C     C_R   0.555427 0.955088 0.309208 -0.098015
C79   C     C_R   0.739292 0.454792 0.698735 -0.129065
C80   C     C_R   0.267725 0.545328 0.247127 -0.122484
C81   C     C_R   0.267921 0.455080 0.246290 -0.136866
C82   C     C_R   0.739383 0.544735 0.697620 -0.140189
C83   C     C_R   0.239340 0.955258 0.697678 -0.140077
C84   C     C_R   0.649711 0.151686 0.092173 -0.147464
C85   C     C_R   0.767910 0.044924 0.246249 -0.136674
C86   C     C_R   0.767721 0.954682 0.247074 -0.122690
C87   C     C_R   0.239242 0.045203 0.698786 -0.129206
C88   C     C_R   0.825452 0.650522 0.997461 0.047485
C89   C     C_R   0.114621 0.318336 0.997332 0.140184
C90   C     C_R   0.114713 0.681650 0.997280 0.140005
C91   C     C_R   0.825984 0.349044 0.997582 0.048409
C92   C     C_R   0.326036 0.151000 0.997587 0.048490
C93   C     C_R   0.614720 0.818352 0.997277 0.139982
C94   C     C_R   0.614631 0.181663 0.997335 0.140135
C95   C     C_R   0.313659 0.870387 0.904395 -0.068901
C96   C     C_R   0.325459 0.849472 0.997464 0.047497
C97   C     C_R   0.073224 0.500002 0.374446 0.014367
C98   C     C_R   0.055135 0.499999 0.731803 0.006986
C99   C     C_R   0.573220 0.999999 0.374444 0.014347
C100  C     C_R   0.555137 0.000002 0.731806 0.006985
C101  C     C_R   0.689160 0.499590 0.638957 0.034994
C102  C     C_R   0.322643 0.500391 0.270422 0.031069
C103  C     C_R   0.189072 0.000399 0.639061 0.034987
C104  C     C_R   0.822629 0.999622 0.270315 0.031021
C105  C     C_3   0.531476 0.450085 0.488695 -0.163419
C106  C     C_3   0.423456 0.500591 0.354967 0.172935
C107  C     C_3   0.489000 0.549894 0.398888 -0.161201
C108  C     C_3   0.499876 0.463803 0.368872 -0.149625
C109  C     C_3   0.520125 0.535940 0.518102 -0.155642
C110  C     C_3   0.020166 0.963730 0.517697 -0.155888
C111  C     C_3   0.999724 0.036531 0.369360 -0.149925
C112  C     C_3   0.989176 0.950232 0.398349 -0.161148
C113  C     C_3   0.031171 0.049789 0.489294 -0.163380
C114  C     C_3   0.454076 0.486806 0.473545 -0.132404
C115  C     C_3   0.568016 0.513218 0.415260 -0.131209
C116  C     C_3   0.953898 0.012758 0.473638 -0.132142
H1    H     H_    0.755269 0.635368 0.817305 0.124085
H2    H     H_    0.037439 0.413172 0.748703 0.123122
H3    H     H_    0.037426 0.586824 0.748676 0.123267
H4    H     H_    0.082448 0.415476 0.342127 0.134416
H5    H     H_    0.582442 0.084526 0.342128 0.134430
H6    H     H_    0.537431 0.913178 0.748683 0.123267
H7    H     H_    0.537439 0.086828 0.748701 0.123137
H8    H     H_    0.582492 0.915473 0.342130 0.134552
H9    H     H_    0.725120 0.413504 0.669050 0.102722
H10   H     H_    0.290346 0.587033 0.264049 0.098834
H11   H     H_    0.291220 0.413477 0.262879 0.105704
H12   H     H_    0.196413 0.335019 0.178587 0.132441
H13   H     H_    0.724434 0.585902 0.667093 0.108535
H14   H     H_    0.224389 0.914092 0.667141 0.108455
H15   H     H_    0.791208 0.086528 0.262853 0.105661
H16   H     H_    0.790361 0.912980 0.264012 0.098971
H17   H     H_    0.225043 0.086488 0.669078 0.102798
H18   H     H_    0.405734 0.476041 0.496182 0.122739
H19   H     H_    0.618000 0.523931 0.395177 0.124975
H20   H     H_    0.905451 0.023165 0.496304 0.122769
H21   H     H_    0.118151 0.976866 0.395106 0.124955
H22   H     H_    0.549880 0.409184 0.527165 0.115615
H23   H     H_    0.196282 0.665060 0.178511 0.132077
H24   H     H_    0.469678 0.590624 0.359657 0.122383
H25   H     H_    0.488679 0.434597 0.304884 0.127142
H26   H     H_    0.530127 0.565280 0.581320 0.118325
H27   H     H_    0.030246 0.934119 0.580553 0.118256
H28   H     H_    0.988454 0.066008 0.305738 0.127147
H29   H     H_    0.970012 0.909616 0.358621 0.122529
H30   H     H_    0.049388 0.090580 0.528251 0.115599
H31   H     H_    0.166241 0.690238 0.866996 0.161551
H32   H     H_    0.761381 0.347612 0.119328 0.165469
H33   H     H_    0.760659 0.652136 0.119093 0.165524
H34   H     H_    0.755703 0.364026 0.817448 0.124593
H35   H     H_    0.166300 0.310070 0.867160 0.161194
H36   H     H_    0.666275 0.189966 0.867130 0.161262
H37   H     H_    0.260667 0.847864 0.119097 0.165527
H38   H     H_    0.261424 0.152410 0.119320 0.165479
H39   H     H_    0.666243 0.809758 0.866990 0.161551
H40   H     H_    0.112116 0.412474 0.670575 0.114015
H41   H     H_    0.116925 0.587593 0.511812 0.129938
H42   H     H_    0.116938 0.412409 0.511819 0.129841
H43   H     H_    0.112115 0.587526 0.670577 0.114320
H44   H     H_    0.612104 0.912475 0.670568 0.114319
H45   H     H_    0.255751 0.136030 0.817447 0.124616
H46   H     H_    0.616946 0.087592 0.511827 0.129857
H47   H     H_    0.616909 0.912408 0.511801 0.129940
H48   H     H_    0.612129 0.087527 0.670588 0.114064
H49   H     H_    0.620794 0.280736 0.706576 0.092199
H50   H     H_    0.659094 0.211254 0.716156 0.117982
H51   H     H_    0.766863 0.240931 0.669835 0.284314
H52   H     H_    0.645590 0.259653 0.562195 0.216432
H53   H     H_    0.728324 0.310237 0.658755 0.250708
H54   H     H_    0.239335 0.832587 0.254655 0.120349
H55   H     H_    0.300270 0.768916 0.276000 0.108229
H56   H     H_    0.696285 0.834942 0.178510 0.132092
H57   H     H_    0.202221 0.724512 0.325009 0.255268
H58   H     H_    0.266206 0.781750 0.415029 0.221234
H59   H     H_    0.141176 0.787646 0.303213 0.275847
H60   H     H_    0.300605 0.231027 0.276159 0.108629
H61   H     H_    0.239616 0.167351 0.254604 0.120711
H62   H     H_    0.141453 0.212229 0.303238 0.275790
H63   H     H_    0.266482 0.218058 0.415105 0.221391
H64   H     H_    0.202588 0.275358 0.325260 0.255108
H65   H     H_    0.658009 0.787914 0.715551 0.118000
H66   H     H_    0.620559 0.718270 0.706406 0.091922
H67   H     H_    0.696411 0.164984 0.178589 0.132481
H68   H     H_    0.728483 0.689297 0.658831 0.251230
H69   H     H_    0.645182 0.739599 0.561941 0.216059
H70   H     H_    0.766228 0.758759 0.669535 0.283610
H71   H     H_    0.120571 0.781733 0.706417 0.091897
H72   H     H_    0.157993 0.712085 0.715550 0.118008
H73   H     H_    0.266228 0.741227 0.669544 0.283610
H74   H     H_    0.145188 0.760392 0.561948 0.216065
H75   H     H_    0.228500 0.810691 0.658841 0.251236
H76   H     H_    0.739545 0.332674 0.254586 0.120704
H77   H     H_    0.800617 0.269028 0.276173 0.108682
H78   H     H_    0.255275 0.864618 0.817310 0.124072
H79   H     H_    0.702679 0.224642 0.325334 0.255100
H80   H     H_    0.766508 0.281966 0.415137 0.221401
H81   H     H_    0.641466 0.287742 0.303284 0.275804
H82   H     H_    0.800271 0.731075 0.275999 0.108247
H83   H     H_    0.739312 0.667410 0.254638 0.120335
H84   H     H_    0.641170 0.712361 0.303206 0.275853
H85   H     H_    0.766202 0.718246 0.415024 0.221228
H86   H     H_    0.702237 0.775490 0.325018 0.255273
H87   H     H_    0.159442 0.288936 0.716348 0.117925
H88   H     H_    0.120821 0.219512 0.706572 0.092325
H89   H     H_    0.082493 0.584529 0.342131 0.134553
H90   H     H_    0.228266 0.189834 0.658730 0.250708
H91   H     H_    0.145729 0.240511 0.562270 0.216470
H92   H     H_    0.267069 0.259091 0.669952 0.284313
I1    I     I_    0.988893 0.319502 0.245024 -0.521867
I2    I     I_    0.943415 0.682414 0.744337 -0.511176
I3    I     I_    0.943383 0.317578 0.744350 -0.510441
I4    I     I_    0.988215 0.680347 0.244868 -0.521969
I5    I     I_    0.488224 0.819651 0.244867 -0.521958
I6    I     I_    0.443388 0.182417 0.744352 -0.510525
I7    I     I_    0.443420 0.817583 0.744334 -0.511158
I8    I     I_    0.488951 0.180510 0.245042 -0.521830
N1    N     N_R   0.892620 0.603790 0.941800 -0.054527
N2    N     N_R   0.047790 0.602400 0.942090 -0.067999
N3    N     N_R   0.047790 0.397600 0.942090 -0.068118
N4    N     N_R   0.952210 0.602400 0.057910 -0.067361
N5    N     N_R   0.452210 0.897600 0.057910 -0.067360
N6    N     N_R   0.547790 0.102400 0.942090 -0.068106
N7    N     N_R   0.547790 0.897600 0.942090 -0.067998
N8    N     N_R   0.452210 0.102400 0.057910 -0.067379
N9    N     N_R   0.026300 0.529110 0.206760 -0.048251
N10   N     N_R   0.973700 0.470890 0.793240 -0.035551
N11   N     N_R   0.973700 0.529110 0.793240 -0.035513
N12   N     N_R   0.107380 0.396210 0.058200 -0.061414
N13   N     N_R   0.026300 0.470890 0.206760 -0.048059
N14   N     N_R   0.526300 0.029110 0.206760 -0.048054
N15   N     N_R   0.473700 0.970890 0.793240 -0.035523
N16   N     N_R   0.473700 0.029110 0.793240 -0.035555
N17   N     N_R   0.526300 0.970890 0.206760 -0.048246
N18   N     N_R   0.818530 0.472270 0.792960 -0.042457
N19   N     N_R   0.181470 0.527730 0.207040 -0.042197
N20   N     N_R   0.181470 0.472270 0.207040 -0.041878
N21   N     N_R   0.818530 0.527730 0.792960 -0.042126
N22   N     N_R   0.318530 0.972270 0.792960 -0.042113
N23   N     N_R   0.107380 0.603790 0.058200 -0.061718
N24   N     N_R   0.681470 0.027730 0.207040 -0.041897
N25   N     N_R   0.681470 0.972270 0.207040 -0.042203
N26   N     N_R   0.318530 0.027730 0.792960 -0.042424
N27   N     N_R   0.892620 0.396210 0.941800 -0.055073
N28   N     N_R   0.392620 0.103790 0.941800 -0.055091
N29   N     N_R   0.607380 0.896210 0.058200 -0.061709
N30   N     N_R   0.607380 0.103790 0.058200 -0.061419
N31   N     N_R   0.392620 0.896210 0.941800 -0.054534
N32   N     N_R   0.952210 0.397600 0.057910 -0.067372
Ni1   Ni    Ni4+2 0.934150 0.565840 0.869060 0.250372
Ni2   Ni    Ni4+2 0.065850 0.434160 0.130940 0.228136
Ni3   Ni    Ni4+2 0.065850 0.565840 0.130940 0.228671
Ni4   Ni    Ni4+2 0.934150 0.434160 0.869060 0.250610
Ni5   Ni    Ni4+2 0.434150 0.065840 0.869060 0.250628
Ni6   Ni    Ni4+2 0.565850 0.934160 0.130940 0.228669
Ni7   Ni    Ni4+2 0.565850 0.065840 0.130940 0.228152
Ni8   Ni    Ni4+2 0.434150 0.934160 0.869060 0.250391
O1    O     O_3   0.761163 0.262823 0.842581 -0.612473
O2    O     O_3   0.156932 0.772840 0.136914 -0.615837
O3    O     O_3   0.157270 0.227161 0.137024 -0.616049
O4    O     O_3   0.760683 0.736689 0.842310 -0.612356
O5    O     O_3   0.260687 0.763302 0.842318 -0.612353
O6    O     O_3   0.657269 0.272831 0.137054 -0.616057
O7    O     O_3   0.656932 0.727165 0.136912 -0.615836
O8    O     O_3   0.261263 0.237234 0.842645 -0.612502

loop_
_geom_bond_atom_site_label_1
_geom_bond_atom_site_label_2
_ccdc_geom_bond_type
C15   H76   S    
C40   H23   S    
C28   C47   A    
C4    O1    S    
C55   C59   A    
C75   N14   A    
C11   H70   S    
C59   C99   S    
C87   H17   S    
C95   C96   A    
C58   C98   S    
C70   N9    A    
C20   H90   S    
C86   C104  A    
C61   N32   A    
C29   C89   A    
C21   C110  S    
C2    C109  S    
C26   O5    S    
C72   C98   A    
N7    N29   A    
N1    N4    A    
N10   Ni4   S    
C22   C35   A    
C24   O3    S    
C43   C89   S    
C80   H10   S    
N14   N17   A    
C77   H7    S    
C33   C42   A    
N2    N23   A    
C108  C115  S    
C40   N23   A    
C13   C112  S    
C74   N13   A    
C32   H32   S    
C16   H79   S    
C25   C38   A    
C62   H45   S    
C73   N29   A    
C106  C107  S    
C15   C16   S    
C12   H72   S    
C7    H58   S    
N26   Ni5   S    
C49   C57   A    
C112  H29   S    
C63   C90   A    
C77   C100  A    
C84   N30   A    
C6    O2    S    
C5    H52   S    
C107  H24   S    
C68   I7    S    
N24   N25   A    
C65   I4    S    
C26   C45   A    
C51   C91   A    
C105  H22   S    
N5    Ni6   S    
C14   H73   S    
C8    H61   S    
C19   C20   S    
C51   H34   S    
C3    C111  S    
C8    C9    S    
N24   Ni7   S    
C72   N11   A    
C62   C92   A    
C67   C94   A    
N19   N20   A    
C64   I3    S    
C17   H83   S    
C109  H26   S    
C3    H21   S    
N19   Ni3   S    
N3    N12   A    
C69   C92   A    
C78   H8    S    
C39   C90   S    
C30   O8    S    
N13   Ni2   S    
C9    H63   S    
C70   C97   A    
C6    H55   S    
C113  C116  S    
C95   N31   A    
N31   Ni8   S    
C106  C108  S    
C52   H43   S    
C48   C50   A    
C48   H40   S    
C83   N22   A    
C26   C31   A    
N9    Ni3   S    
C75   H5    S    
C81   H11   S    
C15   H77   S    
C25   O4    S    
C80   N19   A    
C49   H41   S    
C69   I8    S    
N1    Ni1   S    
C38   H39   S    
C66   N5    A    
C27   C44   A    
C19   H87   S    
C108  H25   S    
N21   Ni1   S    
C53   C60   A    
N32   Ni2   S    
C36   H37   S    
C17   C18   S    
C74   C97   A    
N12   Ni2   S    
C54   C59   A    
C53   C55   A    
C22   O1    S    
C47   C93   S    
C105  C108  S    
C54   C56   A    
C37   C46   A    
C81   C102  A    
C30   C34   A    
N23   Ni3   S    
C78   N17   A    
C105  C114  S    
C17   H82   S    
C23   O2    S    
C83   H14   S    
C18   H86   S    
N14   Ni7   S    
N18   Ni4   S    
N8    N28   A    
C87   N26   A    
C61   I1    S    
N5    N31   A    
C2    C101  S    
C27   O6    S    
C50   H42   S    
C56   C60   A    
N22   Ni8   S    
C73   H56   S    
N18   N21   A    
C21   C103  S    
C113  H30   S    
C17   O7    S    
C67   N6    A    
C82   N21   A    
C64   N3    A    
C16   H80   S    
C22   C41   A    
C2    C115  S    
C31   C39   A    
C3    C112  S    
C32   C41   A    
C49   C52   A    
C57   C97   S    
C76   N15   A    
C75   C99   A    
C24   C37   A    
C114  H18   S    
C81   N20   A    
C36   C45   A    
C111  C113  S    
C84   C94   A    
C54   H46   S    
C82   H13   S    
C62   N28   A    
N15   Ni8   S    
C85   C104  A    
C107  C115  S    
C38   C47   A    
C9    H64   S    
C52   C58   A    
N17   Ni6   S    
C87   C103  A    
C14   H75   S    
C109  C114  S    
C21   C113  S    
C41   C91   S    
C106  C114  S    
C28   C33   A    
N10   N11   A    
C95   H78   S    
N3    Ni4   S    
C18   H84   S    
C10   H66   S    
N2    Ni1   S    
C10   O4    S    
C3    C21   S    
C68   N7    A    
C42   C88   S    
C35   H36   S    
C20   H92   S    
C63   I2    S    
C70   H89   S    
C66   I5    S    
C110  C116  S    
C78   C99   A    
C111  H28   S    
C65   C88   A    
C66   C96   A    
N20   Ni2   S    
C6    H54   S    
N6    Ni5   S    
C64   C89   A    
C24   C43   A    
N22   N26   A    
C71   C98   A    
C53   H44   S    
N27   Ni4   S    
C71   H2    S    
C27   C32   A    
C11   H69   S    
C50   C57   A    
C37   H38   S    
C30   C46   A    
C84   H67   S    
C51   N27   A    
C11   H68   S    
N6    N30   A    
C79   N18   A    
C12   C14   S    
C4    C5    S    
C60   C100  S    
N16   Ni5   S    
C25   C42   A    
N7    Ni8   S    
C65   N4    A    
C34   H35   S    
C8    H60   S    
C48   C58   A    
C6    C7    S    
C116  H20   S    
C23   C36   A    
C76   C100  A    
C28   O7    S    
C74   H4    S    
N29   Ni6   S    
C56   H48   S    
C2    C105  S    
C68   C93   A    
C29   N12   A    
N11   Ni1   S    
N28   Ni5   S    
C69   N8    A    
C76   H6    S    
C83   C103  A    
C85   N24   A    
C8    O3    S    
C7    H59   S    
C31   H31   S    
C13   C111  S    
C15   O6    S    
C33   H33   S    
C85   H15   S    
C12   H71   S    
C86   H16   S    
C107  C109  S    
C115  H19   S    
C1    C88   A    
C86   N25   A    
C23   C39   A    
C73   C93   A    
C7    H57   S    
C72   H3    S    
C19   H88   S    
C71   N10   A    
C82   C101  A    
C4    H50   S    
C102  C106  S    
C18   H85   S    
C63   N2    A    
C12   O5    S    
C5    H51   S    
C79   H9    S    
C110  H27   S    
C110  C112  S    
C13   C116  S    
C44   C94   S    
C10   C11   S    
C16   H81   S    
C55   H47   S    
C14   H74   S    
C46   C92   S    
N9    N13   A    
N27   N32   A    
N30   Ni7   S    
C29   H12   S    
C80   C102  A    
N15   N16   A    
C13   C104  S    
C10   H65   S    
C5    H53   S    
C79   C101  A    
C67   I6    S    
C1    N1    A    
N25   Ni6   S    
C77   N16   A    
C20   H91   S    
C40   C90   A    
C4    H49   S    
C1    H1    S    
C45   C96   S    
N4    Ni3   S    
C34   C43   A    
C9    H62   S    
C61   C91   A    
N8    Ni7   S    
C35   C44   A    
C19   O8    S    
