data_mof_unit_27784.cif
_audit_creation_date              2013-03-05T16:40:03-0500
_audit_creation_method            fapswitch 2.2
_symmetry_space_group_name_H-M    P1
_symmetry_Int_Tables_number       1
_space_group_crystal_system       triclinic
_cell_length_a                    8.730877
_cell_length_b                    17.733322
_cell_length_c                    16.508551
_cell_angle_alpha                 89.371591
_cell_angle_beta                  97.451286
_cell_angle_gamma                 91.133066
_cell_volume                      2533.80631679

loop_
_atom_site_label
_atom_site_type_symbol
_atom_site_description
_atom_site_fract_x
_atom_site_fract_y
_atom_site_fract_z
_atom_type_partial_charge
O1    O     O_R   0.499990 0.391240 0.567930 -0.543731
O2    O     O_R   0.500010 0.608760 0.432070 -0.550390
O3    O     O_R   0.500000 0.391270 0.432120 -0.604699
O4    O     O_R   0.500000 0.608730 0.567880 -0.606021
C1    C     C_R   0.499196 0.355524 0.500336 0.815459
C2    C     C_R   0.498604 0.644697 0.499625 0.822638
O5    O     O_R   0.274830 0.499990 0.552240 -0.543246
O6    O     O_R   0.725170 0.500010 0.447760 -0.541478
O7    O     O_R   0.274840 0.500020 0.416420 -0.591010
O8    O     O_R   0.725160 0.499980 0.583580 -0.592207
C3    C     C_R   0.203617 0.499007 0.479398 0.888802
C4    C     C_R   0.796419 0.500256 0.520646 0.888398
Cu1   Cu    Cu3+1 0.499990 0.499980 0.580420 1.005688
Cu2   Cu    Cu3+1 0.500010 0.500020 0.419580 1.006454
C5    C     C_2   0.038398 0.496165 0.468013 -0.309930
C6    C     C_2   0.961735 0.501898 0.532212 -0.318570
H1    H     H_    0.979692 0.488670 0.406416 0.208507
H2    H     H_    0.020599 0.508754 0.593928 0.203410
C7    C     C_R   0.510831 0.845093 0.575170 0.099638
C8    C     C_R   0.409519 0.155425 0.434025 0.101816
C9    C     C_R   0.518275 0.766516 0.573450 -0.218879
C10   C     C_R   0.419028 0.234187 0.433681 -0.218087
H3    H     H_    0.542639 0.735496 0.630452 0.171388
H4    H     H_    0.362957 0.265594 0.381774 0.159427
C11   C     C_R   0.493270 0.727615 0.499447 -0.097251
C12   C     C_R   0.495072 0.272973 0.500845 -0.081366
C13   C     C_R   0.459045 0.767841 0.426069 -0.141414
C14   C     C_R   0.564935 0.233090 0.568853 -0.133815
H5    H     H_    0.435053 0.736574 0.370045 0.187673
H6    H     H_    0.623401 0.264844 0.619600 0.165061
C15   C     C_R   0.453025 0.847077 0.425346 0.094406
C16   C     C_R   0.561651 0.153789 0.570386 0.098186
C17   C     C_R   0.479671 0.885455 0.500781 0.078067
C18   C     C_R   0.482347 0.115169 0.502323 0.075101
C19   C     C_1   0.478284 0.966487 0.501590 -0.080174
C20   C     C_1   0.478984 0.034106 0.501906 -0.081370
C21   C     C_R   0.585971 0.559030 0.832721 0.264915
C22   C     C_R   0.407961 0.442629 0.167091 0.265153
C23   C     C_R   0.579917 0.555772 0.746185 -0.074397
C24   C     C_R   0.412673 0.446755 0.253538 -0.067748
H7    H     H_    0.641595 0.597994 0.714704 0.182337
H8    H     H_    0.346574 0.406376 0.285023 0.181489
N1    N     N_R   0.499960 0.499970 0.701210 -0.252912
N2    N     N_R   0.500040 0.500030 0.298790 -0.254754
C25   C     C_R   0.424069 0.444991 0.740952 0.522241
C26   C     C_R   0.583873 0.552017 0.259432 0.525631
C27   C     C_R   0.427577 0.445695 0.826518 -0.332080
C28   C     C_R   0.581253 0.550737 0.173940 -0.329240
H9    H     H_    0.366255 0.401652 0.855972 0.214874
H10   H     H_    0.648289 0.592664 0.144740 0.214965
C29   C     C_R   0.507006 0.502487 0.873829 -0.059948
C30   C     C_R   0.494766 0.496288 0.126329 -0.060665
C31   C     C_1   0.502118 0.500975 0.963002 0.140229
C32   C     C_1   0.497410 0.498472 0.036982 0.142252
C33   C     C_3   0.534473 0.884067 0.657239 -0.400054
C34   C     C_3   0.379220 0.907048 0.682743 -0.351012
C35   C     C_3   0.399317 0.938384 0.769262 -0.797446
H11   H     H_    0.447445 0.894779 0.813734 0.269868
H12   H     H_    0.477907 0.988499 0.773653 0.247175
H13   H     H_    0.285389 0.955401 0.785339 0.247017
H14   H     H_    0.325155 0.950641 0.640004 0.223385
H15   H     H_    0.299751 0.857104 0.680482 0.233893
H16   H     H_    0.593052 0.845699 0.704768 0.220336
H17   H     H_    0.612184 0.934167 0.654747 0.194860
C36   C     C_3   0.318156 0.116131 0.361696 -0.398464
C37   C     C_3   0.158131 0.091009 0.381910 -0.346184
C38   C     C_3   0.058341 0.058689 0.307145 -0.812038
H18   H     H_    0.039885 0.102104 0.258013 0.268702
H19   H     H_    0.114248 0.009162 0.283880 0.248463
H20   H     H_    0.944164 0.040492 0.324046 0.244242
H21   H     H_    0.170107 0.047382 0.431030 0.223515
H22   H     H_    0.098344 0.140087 0.403985 0.232505
H23   H     H_    0.303401 0.154931 0.307938 0.215991
H24   H     H_    0.382538 0.067005 0.343499 0.195749
C39   C     C_3   0.417584 0.892388 0.346217 -0.422601
C40   C     C_3   0.393702 0.846728 0.266856 -0.345278
C41   C     C_3   0.362077 0.898399 0.192245 -0.791990
H25   H     H_    0.254703 0.930310 0.194776 0.249789
H26   H     H_    0.460233 0.938740 0.189339 0.254675
H27   H     H_    0.347408 0.863997 0.135876 0.259821
H28   H     H_    0.499275 0.814341 0.261031 0.267997
H29   H     H_    0.293686 0.807054 0.267574 0.232696
H30   H     H_    0.311396 0.924908 0.350170 0.207394
H31   H     H_    0.514611 0.933285 0.342214 0.207268
C42   C     C_3   0.640318 0.108751 0.642841 -0.417375
C43   C     C_3   0.728332 0.155045 0.712762 -0.350320
C44   C     C_3   0.805404 0.103712 0.780249 -0.788426
H32   H     H_    0.717249 0.068603 0.806686 0.250179
H33   H     H_    0.888803 0.066330 0.755769 0.250363
H34   H     H_    0.868869 0.138593 0.829565 0.261742
H35   H     H_    0.819556 0.190432 0.689106 0.233093
H36   H     H_    0.647003 0.192042 0.739534 0.253911
H37   H     H_    0.550306 0.073854 0.668037 0.212189
H38   H     H_    0.723332 0.070070 0.619814 0.201220
N3    N     N_R   0.671844 0.619650 0.876327 0.132509
O9    O     O_R   0.724202 0.612922 0.953464 -0.346605
O10   O     O_R   0.706756 0.680669 0.837622 -0.375840
N4    N     N_R   0.315016 0.384293 0.123262 0.133713
O11   O     O_R   0.340656 0.363545 0.050957 -0.349877
O12   O     O_R   0.209427 0.347972 0.157793 -0.362096
N5    N     N_R   0.340909 0.384992 0.696888 0.140199
O13   O     O_R   0.385626 0.316072 0.711486 -0.387656
O14   O     O_R   0.200685 0.396118 0.662389 -0.371128
N6    N     N_R   0.674775 0.609441 0.303780 0.141622
O15   O     O_R   0.638020 0.679444 0.289486 -0.411471
O16   O     O_R   0.816140 0.594875 0.333818 -0.369042

loop_
_geom_bond_atom_site_label_1
_geom_bond_atom_site_label_2
_geom_bond_distance
_ccdc_geom_bond_type
C44   H32   1.110275 S    
N5    O13   1.300862 A    
C13   H5    1.078469 S    
N3    O9    1.301024 A    
C22   N4    1.443302 S    
N6    O16   1.298857 A    
C23   H7    1.081115 S    
C41   H25   1.110171 S    
O5    C3    1.280252 A    
O1    C1    1.288298 A    
C7    C9    1.397009 A    
C43   H35   1.111842 S    
C21   C29   1.421376 A    
C39   H31   1.112275 S    
C35   H12   1.109174 S    
C2    C11   1.472024 S    
C22   C30   1.422106 A    
C5    C6    1.330652 D    
C36   H23   1.112679 S    
C34   C35   1.525847 S    
C21   N3    1.442587 S    
C25   C27   1.409123 A    
O4    Cu1   1.937319 S    
C42   H37   1.110626 S    
C37   H22   1.112197 S    
C4    C6    1.430929 S    
N2    C26   1.375260 A    
C33   H16   1.112706 S    
C15   C17   1.416095 A    
C24   N2    1.368078 A    
C18   C20   1.437322 S    
C8    C18   1.414042 A    
C28   H10   1.084357 S    
C37   C38   1.525737 S    
N5    O14   1.299381 A    
Cu1   Cu2   2.655252 S    
O2    C2    1.292085 A    
C3    C5    1.430285 S    
N6    O15   1.299768 A    
C30   C32   1.478234 S    
C41   H26   1.110930 S    
C26   C28   1.408994 A    
C13   C15   1.406998 A    
C38   H18   1.110805 S    
C8    C36   1.515535 S    
C14   C16   1.406005 A    
C40   C41   1.526441 S    
C27   H9    1.084316 S    
C7    C17   1.412867 A    
C40   H29   1.111698 S    
O7    Cu2   1.959848 S    
C43   C44   1.526510 S    
C25   N5    1.427526 S    
C35   H13   1.110415 S    
C27   C29   1.397987 A    
C42   C43   1.537082 S    
C26   N6    1.427066 S    
C36   H24   1.110882 S    
C29   C31   1.478198 S    
C19   C20   1.199064 T    
C16   C18   1.416791 A    
C39   C40   1.536653 S    
O7    C3    1.278574 A    
C42   H38   1.112278 S    
C15   C39   1.526359 S    
C37   H21   1.111074 S    
O5    Cu1   1.960556 S    
O6    C4    1.280878 A    
C33   H17   1.110837 S    
C33   C34   1.534379 S    
N1    C25   1.375930 A    
O3    Cu2   1.937319 S    
O8    C4    1.278257 A    
O4    C2    1.287473 A    
C8    C10   1.397536 A    
C36   C37   1.534582 S    
N4    O12   1.301704 A    
C9    H3    1.083853 S    
C34   H15   1.112160 S    
O1    Cu1   1.941560 S    
Cu1   N1    1.994100 S    
Cu2   N2    1.994100 S    
C41   H27   1.110403 S    
C7    C33   1.515988 S    
C5    H1    1.086042 S    
C9    C11   1.399790 A    
O6    Cu2   1.960556 S    
O3    C1    1.286969 A    
O8    Cu1   1.959849 S    
C40   H28   1.110789 S    
C23   N1    1.368274 A    
N3    O10   1.301671 A    
C31   C32   1.227599 T    
C11   C13   1.400397 A    
C12   C14   1.398134 A    
C38   H20   1.110476 S    
C14   H6    1.080543 S    
C21   C23   1.424462 A    
C43   H36   1.111825 S    
C22   C24   1.425012 A    
C39   H30   1.110865 S    
C35   H11   1.110815 S    
C16   C42   1.525789 S    
C24   H8    1.081316 S    
C17   C19   1.437489 S    
C10   H4    1.084277 S    
O2    Cu2   1.941560 S    
C1    C12   1.463591 S    
C28   C30   1.397902 A    
C6    H2    1.086912 S    
N4    O11   1.300958 A    
C10   C12   1.396780 A    
C44   H34   1.110384 S    
C44   H33   1.110975 S    
C34   H14   1.111006 S    
C38   H19   1.109097 S    
