data_mof_unit_15033.cif
_audit_creation_date              2013-03-05T16:10:47-0500
_audit_creation_method            fapswitch 2.2
_symmetry_space_group_name_H-M    P1
_symmetry_Int_Tables_number       1
_space_group_crystal_system       triclinic
_cell_length_a                    22.356382
_cell_length_b                    7.094257
_cell_length_c                    19.408484
_cell_angle_alpha                 89.863591
_cell_angle_beta                  99.750148
_cell_angle_gamma                 89.86571
_cell_volume                      3033.73941958

loop_
_atom_site_label
_atom_site_type_symbol
_atom_site_description
_atom_site_fract_x
_atom_site_fract_y
_atom_site_fract_z
_atom_type_partial_charge
O1    O     O_R   0.443980 0.494320 0.557430 -0.586813
O2    O     O_R   0.556020 0.994320 0.442570 -0.588353
O3    O     O_R   0.441210 0.822520 0.414610 -0.592673
O4    O     O_R   0.558790 0.322520 0.585390 -0.586074
C1    C     C_R   0.426817 0.655786 0.388481 0.905720
C2    C     C_R   0.573186 0.154871 0.611455 0.903971
O5    O     O_R   0.436920 0.823940 0.555180 -0.573586
O6    O     O_R   0.563080 0.323940 0.444820 -0.571949
O7    O     O_R   0.551700 0.995760 0.584140 -0.589143
O8    O     O_R   0.448300 0.495760 0.415860 -0.583039
C3    C     C_R   0.421720 0.655493 0.574988 0.953591
C4    C     C_R   0.578266 0.155455 0.425007 0.953487
O9    O     O_3   0.537660 0.661290 0.509340 -0.271483
O10   O     O_3   0.462340 0.161290 0.490660 -0.271919
V1    V     V_3+5 0.493010 0.935560 0.498270 1.198823
V2    V     V_3+5 0.506990 0.435560 0.501730 1.202049
H1    H     H_    0.677743 0.849505 0.260431 0.217130
H2    H     H_    0.322168 0.348585 0.739398 0.216825
C5    C     C_R   0.752334 0.940449 0.210746 0.381848
C6    C     C_R   0.247597 0.439914 0.789122 0.389693
C7    C     C_R   0.793260 0.089452 0.204555 -0.093104
C8    C     C_R   0.206707 0.589477 0.795396 -0.099688
C9    C     C_R   0.789765 0.255266 0.243032 -0.211882
C10   C     C_R   0.210233 0.755872 0.757001 -0.209754
H3    H     H_    0.820887 0.369156 0.237695 0.219167
H4    H     H_    0.179133 0.870171 0.762391 0.221076
C11   C     C_R   0.746254 0.278269 0.287305 0.390987
C12   C     C_R   0.253751 0.778906 0.712742 0.388767
C13   C     C_R   0.705454 0.129064 0.293684 -0.092868
C14   C     C_R   0.294521 0.629153 0.706289 -0.091245
C15   C     C_R   0.708855 0.963399 0.255079 -0.206770
C16   C     C_R   0.291081 0.462899 0.744806 -0.211082
C17   C     C_1   0.838270 0.079090 0.158177 0.186838
C18   C     C_1   0.161712 0.579065 0.841789 0.188220
C19   C     C_1   0.660856 0.138919 0.340615 0.203162
C20   C     C_1   0.339119 0.639059 0.659364 0.202263
C21   C     C_1   0.623446 0.146574 0.379366 -0.228722
C22   C     C_1   0.376532 0.646700 0.620618 -0.230471
C23   C     C_1   0.876117 0.071127 0.120004 -0.204774
C24   C     C_1   0.123878 0.571068 0.879978 -0.202703
C25   C     C_R   0.630637 0.115054 0.806165 -0.067394
C26   C     C_R   0.366904 0.690812 0.194128 -0.066924
H5    H     H_    0.611290 0.097315 0.853054 0.207530
H6    H     H_    0.384377 0.729322 0.147528 0.207415
C27   C     C_R   0.614072 0.144105 0.679966 -0.194297
C28   C     C_R   0.385774 0.650176 0.319953 -0.196825
C29   C     C_R   0.911983 0.077828 0.757539 -0.236851
C30   C     C_R   0.089349 0.540485 0.242272 -0.236450
C31   C     C_R   0.873340 0.092871 0.692258 0.326426
C32   C     C_R   0.128460 0.539749 0.307487 0.325084
C33   C     C_R   0.810530 0.108861 0.689060 -0.249399
C34   C     C_R   0.191035 0.562565 0.310673 -0.251423
C35   C     C_R   0.783327 0.107859 0.749590 0.050525
C36   C     C_R   0.217337 0.589743 0.250243 0.050333
C37   C     C_R   0.822158 0.088744 0.815531 0.105755
C38   C     C_R   0.177764 0.594780 0.184415 0.106433
C39   C     C_R   0.718676 0.122189 0.746363 0.108425
C40   C     C_R   0.281606 0.615583 0.253502 0.107809
C41   C     C_R   0.694289 0.116677 0.809611 0.082945
C42   C     C_R   0.304763 0.647769 0.190449 0.083377
C43   C     C_R   0.734010 0.106565 0.874880 -0.090956
C44   C     C_R   0.264940 0.642514 0.125193 -0.092438
C45   C     C_R   0.796414 0.088203 0.876665 -0.271301
C46   C     C_R   0.202668 0.620868 0.123385 -0.276106
C47   C     C_R   0.677204 0.140021 0.682207 -0.187964
C48   C     C_R   0.323752 0.612592 0.317508 -0.188879
C49   C     C_R   0.590446 0.129232 0.742472 -0.121160
C50   C     C_R   0.407480 0.692333 0.257749 -0.115883
C51   C     C_R   0.886382 0.073889 0.819621 -0.227770
C52   C     C_R   0.113889 0.569672 0.180301 -0.229981
H7    H     H_    0.692138 0.149758 0.632439 0.114338
H8    H     H_    0.310060 0.583534 0.367018 0.115529
H9    H     H_    0.784032 0.117553 0.637488 0.167449
H10   H     H_    0.217808 0.563148 0.362199 0.168039
H11   H     H_    0.825230 0.077698 0.927388 0.085791
H12   H     H_    0.173562 0.620547 0.072703 0.087058
O11   O     O_R   0.051730 0.724670 0.084120 -0.577240
O12   O     O_R   0.948270 0.224670 0.915880 -0.597518
O13   O     O_R   0.063080 0.393540 0.944820 -0.571938
O14   O     O_R   0.936920 0.893540 0.055180 -0.556473
C53   C     C_R   0.078232 0.562066 0.924977 0.940249
C54   C     C_R   0.921776 0.062087 0.075020 0.937083
O15   O     O_R   0.058800 0.395030 0.085390 -0.600165
O16   O     O_R   0.941200 0.895030 0.914610 -0.575695
O17   O     O_R   0.943980 0.223310 0.057440 -0.576211
O18   O     O_R   0.056020 0.723310 0.942560 -0.561562
C55   C     C_R   0.072790 0.563155 0.111530 1.020795
C56   C     C_R   0.927352 0.063965 0.888408 1.021415
O19   O     O_3   0.962360 0.556290 0.990650 -0.270755
O20   O     O_3   0.037640 0.056290 0.009350 -0.274797
V3    V     V_3+5 0.006980 0.281990 0.001730 1.230616
V4    V     V_3+5 0.993020 0.781990 0.998270 1.255265
N1    N     N_R   0.897026 0.086961 0.627788 0.235025
O21   O     O_R   0.936859 0.959667 0.618388 -0.342532
O22   O     O_R   0.872523 0.189972 0.574844 -0.329181
N2    N     N_R   0.105182 0.521347 0.371938 0.234736
O23   O     O_R   0.058321 0.619863 0.382226 -0.338050
O24   O     O_R   0.135888 0.428300 0.424191 -0.333468
N3    N     N_R   0.753884 0.765946 0.173009 0.241824
O25   O     O_R   0.803863 0.705561 0.154621 -0.388814
O26   O     O_R   0.706213 0.658135 0.161745 -0.356852
N4    N     N_R   0.246004 0.264801 0.826761 0.245043
O27   O     O_R   0.195989 0.204818 0.845027 -0.399739
O28   O     O_R   0.293672 0.156122 0.838037 -0.355459
N5    N     N_R   0.744556 0.453013 0.324841 0.249492
O29   O     O_R   0.694447 0.513517 0.342870 -0.401892
O30   O     O_R   0.792160 0.561117 0.336071 -0.344678
N6    N     N_R   0.255488 0.954233 0.675288 0.249236
O31   O     O_R   0.305619 0.014250 0.657321 -0.399851
O32   O     O_R   0.207895 0.063235 0.664066 -0.348389
C57   C     C_2   0.523758 0.128106 0.741939 0.567142
H13   H     H_    0.492044 0.140024 0.693210 0.002561
O33   O     O_2   0.503194 0.114120 0.796149 -0.523414
C58   C     C_2   0.472611 0.737437 0.258442 0.570785
H14   H     H_    0.504884 0.735531 0.306932 0.000166
O34   O     O_2   0.491271 0.777154 0.204611 -0.529996
C59   C     C_2   0.713610 0.119012 0.943741 0.563686
H15   H     H_    0.737952 0.041306 0.988128 0.028520
O35   O     O_2   0.672724 0.225271 0.953076 -0.533842
C60   C     C_2   0.285408 0.653789 0.056329 0.561696
H16   H     H_    0.256305 0.719924 0.012395 0.028043
O36   O     O_2   0.332344 0.578441 0.046411 -0.531249
C61   C     C_2   0.979015 0.077449 0.759533 0.594408
H17   H     H_    0.998058 0.147938 0.718568 0.082440
O37   O     O_2   0.013601 0.996105 0.805556 -0.571235
C62   C     C_2   0.023531 0.500797 0.240101 0.594987
H18   H     H_    0.009185 0.413586 0.280274 0.073862
O38   O     O_2   0.984575 0.567426 0.194827 -0.561861

loop_
_geom_bond_atom_site_label_1
_geom_bond_atom_site_label_2
_geom_bond_distance
_ccdc_geom_bond_type
O15   C55   1.314797 A    
O11   V4    1.979380 S    
O4    V2    1.993292 S    
N1    O21   1.301479 A    
C2    C27   1.482203 S    
C11   C13   1.417719 A    
N5    O29   1.301108 A    
C57   H13   1.084690 S    
O1    C3    1.314450 A    
C5    C15   1.412419 A    
C2    O7    1.305783 A    
C58   H14   1.084597 S    
O17   V3    1.960237 S    
C61   H17   1.084992 S    
C29   C31   1.411110 A    
O5    C3    1.317301 A    
N5    O30   1.301666 A    
C17   C23   1.216695 T    
C18   C24   1.216700 T    
C5    C7    1.417786 A    
C10   H4    1.083631 S    
C28   C48   1.405508 A    
C34   H10   1.075009 S    
C59   O35   1.220683 D    
C6    C16   1.412352 A    
C39   C41   1.425569 A    
C7    C17   1.461139 S    
C11   N5    1.443066 S    
C40   C42   1.425327 A    
N6    O31   1.301100 A    
C42   C44   1.420073 A    
C4    C21   1.453233 S    
C43   C45   1.395461 A    
C29   C51   1.419054 A    
C44   C46   1.395509 A    
C33   H9    1.074850 S    
O20   V4    2.183233 S    
C40   C48   1.426471 A    
C48   H8    1.076353 S    
C34   C36   1.411237 A    
C12   C14   1.417704 A    
C31   C33   1.399369 A    
N2    O24   1.301675 A    
C27   C49   1.406599 A    
C32   C34   1.399621 A    
C38   C46   1.403603 A    
C9    C11   1.412183 A    
O19   V3    2.178147 S    
C44   C60   1.486252 S    
C53   O18   1.314598 A    
C30   C32   1.411285 A    
O2    C4    1.314736 A    
O6    V2    1.971830 S    
C26   C50   1.403000 A    
C25   H5    1.078942 S    
C26   H6    1.078990 S    
C52   C55   1.487612 S    
C60   O36   1.220701 D    
C35   C37   1.425562 A    
C8    C18   1.461129 S    
C36   C38   1.425861 A    
C41   C43   1.420105 A    
C43   C59   1.486209 S    
C10   C12   1.412184 A    
C25   C41   1.413312 A    
C25   C49   1.403004 A    
C26   C42   1.413092 A    
O13   C53   1.317701 A    
C5    N3    1.443227 S    
C47   H7    1.076218 S    
C37   C45   1.403714 A    
C33   C35   1.411399 A    
O14   V4    1.971794 S    
C3    C22   1.453211 S    
C28   C50   1.407084 A    
C29   C61   1.492513 S    
N3    O25   1.301121 A    
O6    C4    1.317693 A    
C39   C47   1.426090 A    
N2    O23   1.301517 A    
C46   H12   1.083622 S    
C57   O33   1.221368 D    
O1    V2    1.960104 S    
O19   V4    1.739944 S    
N4    O28   1.301673 A    
O2    V1    1.960412 S    
C37   C51   1.428149 A    
C51   C56   1.487061 S    
C49   C57   1.489222 S    
N3    O26   1.301649 A    
C6    C8    1.417783 A    
C38   C52   1.428287 A    
C7    C9    1.403936 A    
C27   C47   1.404935 A    
H1    C15   1.083583 S    
C8    C10   1.403969 A    
O4    C2    1.309286 A    
H2    C16   1.083582 S    
O3    V1    1.998580 S    
C60   H16   1.085952 S    
C36   C40   1.439623 A    
O12   C56   1.312903 A    
C62   O38   1.221051 D    
C19   C21   1.217016 T    
O13   V3    1.972044 S    
C24   C53   1.452632 S    
O16   C56   1.316369 A    
C23   C54   1.452632 S    
C30   C52   1.418917 A    
O3    C1    1.307377 A    
C35   C39   1.439427 A    
C58   O34   1.221371 D    
O12   V3    1.982270 S    
C54   O17   1.314982 A    
O15   V3    1.998776 S    
C1    C28   1.483084 S    
C13   C19   1.461576 S    
C14   C20   1.461544 S    
C20   C22   1.217005 T    
O7    V1    1.986685 S    
C1    O8    1.307675 A    
C13   C15   1.404112 A    
O8    V2    1.983656 S    
C59   H15   1.086156 S    
C14   C16   1.404112 A    
C32   N2    1.439666 S    
O20   V3    1.736335 S    
C45   H11   1.083667 S    
C12   N6    1.443077 S    
C62   H18   1.084854 S    
O5    V1    1.972080 S    
O14   C54   1.317987 A    
N6    O32   1.301671 A    
C9    H3    1.083636 S    
N4    O27   1.301087 A    
C61   O37   1.220767 D    
C30   C62   1.492385 S    
C6    N4    1.443232 S    
O11   C55   1.314289 A    
N1    O22   1.301509 A    
O9    V2    1.740220 S    
O10   V1    1.736612 S    
O18   V4    1.959933 S    
O16   V4    1.993490 S    
C31   N1    1.439578 S    
C50   C58   1.489407 S    
