data_mof_unit_54022.cif
_audit_creation_date              2013-03-05T15:41:33-0500
_audit_creation_method            fapswitch 2.2
_symmetry_space_group_name_H-M    P1
_symmetry_Int_Tables_number       1
_space_group_crystal_system       triclinic
_cell_length_a                    24.764338
_cell_length_b                    17.552033
_cell_length_c                    15.680602
_cell_angle_alpha                 90.165169
_cell_angle_beta                  130.27942
_cell_angle_gamma                 89.991735
_cell_volume                      5199.74361592

loop_
_atom_site_label
_atom_site_type_symbol
_atom_site_description
_atom_site_fract_x
_atom_site_fract_y
_atom_site_fract_z
_atom_type_partial_charge
C1    C     C_R   0.347774 0.362592 0.231205 -0.134118
C2    C     C_R   0.333226 0.607935 0.197880 -0.130770
C3    C     C_R   0.852192 0.857549 0.245671 -0.082773
C4    C     C_R   0.848268 0.137792 0.232467 -0.135053
H1    H     H_    0.296104 0.351279 0.204220 0.137537
H2    H     H_    0.280149 0.604698 0.168906 0.113374
H3    H     H_    0.805243 0.842953 0.233314 0.119430
H4    H     H_    0.797076 0.149718 0.206972 0.135776
N1    N     N_R   0.389430 0.421450 0.294590 -0.049650
N2    N     N_R   0.389430 0.578550 0.294590 -0.052177
N3    N     N_R   0.889430 0.921450 0.294590 -0.056423
N4    N     N_R   0.889430 0.078550 0.294590 -0.050728
C5    C     C_R   0.667395 0.390673 0.798529 -0.122892
C6    C     C_R   0.669081 0.598827 0.807408 -0.128318
C7    C     C_R   0.148765 0.859984 0.755778 -0.115331
C8    C     C_R   0.166988 0.109880 0.799215 -0.112555
H5    H     H_    0.719688 0.389559 0.824464 0.099332
H6    H     H_    0.722066 0.584784 0.843025 0.104255
H7    H     H_    0.195467 0.843304 0.769942 0.106726
H8    H     H_    0.219552 0.111417 0.827203 0.108936
N5    N     N_R   0.612200 0.424040 0.705410 -0.049492
N6    N     N_R   0.612200 0.575960 0.705410 -0.053400
N7    N     N_R   0.112200 0.924040 0.705410 -0.048592
N8    N     N_R   0.112200 0.075960 0.705410 -0.049448
C9    C     C_R   0.617070 0.401087 0.410657 -0.149609
C10   C     C_R   0.596349 0.635889 0.407865 -0.110092
C11   C     C_R   0.113885 0.897926 0.407129 -0.143544
C12   C     C_R   0.116053 0.102234 0.410518 -0.145787
H9    H     H_    0.593697 0.400517 0.324066 0.122220
H10   H     H_    0.570165 0.646644 0.321260 0.105467
H11   H     H_    0.090965 0.904236 0.321671 0.181783
H12   H     H_    0.092808 0.101707 0.324038 0.131341
N9    N     N_R   0.581780 0.422390 0.443390 -0.052032
N10   N     N_R   0.581780 0.577610 0.443390 -0.044090
N11   N     N_R   0.081780 0.922390 0.443390 -0.054764
N12   N     N_R   0.081780 0.077610 0.443390 -0.051338
C13   C     C_R   0.404374 0.365307 0.591285 -0.121143
C14   C     C_R   0.410871 0.639634 0.592838 -0.122468
C15   C     C_R   0.885590 0.900673 0.590533 -0.146301
C16   C     C_R   0.903469 0.133233 0.592498 -0.126497
H13   H     H_    0.428964 0.355424 0.677504 0.098800
H14   H     H_    0.437668 0.652012 0.679417 0.094763
H15   H     H_    0.908429 0.900941 0.676943 0.104683
H16   H     H_    0.928349 0.142430 0.679009 0.098372
N13   N     N_R   0.419850 0.423100 0.556610 -0.041706
N14   N     N_R   0.419850 0.576900 0.556610 -0.042968
N15   N     N_R   0.919850 0.923100 0.556610 -0.035736
N16   N     N_R   0.919850 0.076900 0.556610 -0.040897
C17   C     C_R   0.691718 0.405674 0.595315 0.015420
C18   C     C_R   0.673050 0.633576 0.595011 0.067140
C19   C     C_R   0.189236 0.897403 0.591611 0.068407
C20   C     C_R   0.190346 0.100710 0.595543 0.060445
N17   N     N_R   0.627410 0.423100 0.556610 -0.064790
N18   N     N_R   0.627410 0.576900 0.556610 -0.063345
N19   N     N_R   0.127410 0.923100 0.556610 -0.060583
N20   N     N_R   0.127410 0.076900 0.556610 -0.061535
C21   C     C_R   0.327340 0.368020 0.404479 -0.108993
C22   C     C_R   0.337590 0.641018 0.405999 -0.058847
C23   C     C_R   0.811093 0.900264 0.405646 -0.034759
C24   C     C_R   0.826412 0.131031 0.405813 -0.141980
H17   H     H_    0.279405 0.365407 0.319612 0.166666
H18   H     H_    0.297202 0.654438 0.318927 0.113513
H19   H     H_    0.764056 0.899468 0.318491 0.089350
H20   H     H_    0.778461 0.134110 0.320833 0.162031
N21   N     N_R   0.374220 0.422390 0.443390 -0.044812
N22   N     N_R   0.374220 0.577610 0.443390 -0.039340
N23   N     N_R   0.874220 0.922390 0.443390 -0.040866
N24   N     N_R   0.874220 0.077610 0.443390 -0.049150
C25   C     C_R   0.577958 0.391599 0.801142 -0.131566
C26   C     C_R   0.578050 0.604277 0.803628 -0.139802
C27   C     C_R   0.058448 0.860808 0.756521 -0.089056
C28   C     C_R   0.077246 0.109040 0.800592 -0.120723
H21   H     H_    0.549907 0.393072 0.832601 0.107052
H22   H     H_    0.548621 0.602261 0.832686 0.100711
H23   H     H_    0.021884 0.845346 0.769229 0.115951
H24   H     H_    0.048846 0.107591 0.831448 0.111633
N25   N     N_R   0.555000 0.424040 0.705410 -0.044969
N26   N     N_R   0.555000 0.575960 0.705410 -0.044457
N27   N     N_R   0.055000 0.924040 0.705410 -0.049692
N28   N     N_R   0.055000 0.075960 0.705410 -0.047056
C29   C     C_R   0.440847 0.361148 0.236774 -0.131565
C30   C     C_R   0.423465 0.609310 0.197802 -0.147782
C31   C     C_R   0.942811 0.856981 0.244604 -0.125086
C32   C     C_R   0.940920 0.138531 0.236867 -0.121726
H25   H     H_    0.477332 0.346313 0.223600 0.111205
H26   H     H_    0.451924 0.607541 0.167051 0.103364
H27   H     H_    0.979206 0.840421 0.231933 0.140636
H28   H     H_    0.977101 0.152947 0.222964 0.112794
N29   N     N_R   0.446630 0.421450 0.294590 -0.046183
N30   N     N_R   0.446630 0.578550 0.294590 -0.045747
N31   N     N_R   0.946630 0.921450 0.294590 -0.049452
N32   N     N_R   0.946630 0.078550 0.294590 -0.046376
C33   C     C_R   0.380664 0.321915 0.199587 0.145541
C34   C     C_R   0.352755 0.627854 0.135701 0.151438
C35   C     C_R   0.885018 0.815351 0.215187 0.143145
C36   C     C_R   0.881062 0.177954 0.200272 0.143447
C37   C     C_R   0.648107 0.370979 0.861134 0.125952
C38   C     C_R   0.649392 0.619119 0.869100 0.135204
C39   C     C_R   0.115870 0.818925 0.786725 0.128930
C40   C     C_R   0.147259 0.129958 0.861119 0.114360
C41   C     C_R   0.687392 0.389937 0.504880 0.076646
C42   C     C_R   0.653410 0.674036 0.502490 -0.013638
C43   C     C_R   0.181779 0.878331 0.498218 -0.008552
C44   C     C_R   0.185627 0.117407 0.505041 0.000289
C45   C     C_R   0.347933 0.326977 0.495272 0.031481
C46   C     C_R   0.356337 0.679533 0.498287 0.022621
C47   C     C_R   0.816528 0.885770 0.496649 0.018545
C48   C     C_R   0.846579 0.171446 0.497681 0.044235
Ni1   Ni    Ni4+2 0.382890 0.500000 0.370170 0.253057
Ni2   Ni    Ni4+2 0.882890 1.000000 0.370170 0.224212
Ni3   Ni    Ni4+2 0.618740 0.500000 0.629830 0.224134
Ni4   Ni    Ni4+2 0.118740 0.000000 0.629830 0.234761
Ni5   Ni    Ni4+2 0.514090 0.500000 0.370170 0.226898
Ni6   Ni    Ni4+2 0.014090 1.000000 0.370170 0.235559
Ni7   Ni    Ni4+2 0.487550 0.500000 0.629830 0.214796
Ni8   Ni    Ni4+2 0.987550 0.000000 0.629830 0.224263
C49   C     C_3   0.355816 0.209588 0.587472 -0.492427
C50   C     C_3   0.334609 0.815445 0.504392 -0.495676
C51   C     C_3   0.777803 0.846743 0.600076 -0.501402
C52   C     C_3   0.856704 0.288535 0.595695 -0.491923
H29   H     H_    0.403537 0.235747 0.665539 0.169949
H30   H     H_    0.392401 0.820039 0.577067 0.182932
H31   H     H_    0.764159 0.906941 0.601907 0.183965
H32   H     H_    0.899936 0.259170 0.674390 0.174669
H33   H     H_    0.378830 0.170404 0.562682 0.205596
H34   H     H_    0.328137 0.829793 0.429142 0.201720
H35   H     H_    0.833376 0.838050 0.677819 0.174668
H36   H     H_    0.885054 0.324615 0.577525 0.207230
C53   C     C_3   0.731741 0.789892 0.602151 -0.063745
C54   C     C_3   0.814368 0.339065 0.614616 -0.048859
C55   C     C_3   0.313852 0.164207 0.611122 -0.048163
C56   C     C_3   0.290944 0.871904 0.514912 -0.049030
H37   H     H_    0.768323 0.761004 0.683019 0.153144
H38   H     H_    0.834381 0.398540 0.632170 0.195589
H39   H     H_    0.331675 0.103948 0.629490 0.158196
H40   H     H_    0.269627 0.917338 0.451962 0.230407
H41   H     H_    0.292071 0.334191 0.596654 0.164155
H42   H     H_    0.365163 0.733225 0.673780 0.155904
H43   H     H_    0.672780 0.900620 0.396370 0.169034
H44   H     H_    0.787143 0.168866 0.595333 0.160942
H45   H     H_    0.602373 0.806444 0.380482 0.184576
H46   H     H_    0.700547 0.244999 0.562341 0.175452
H47   H     H_    0.204174 0.262107 0.566405 0.181329
H48   H     H_    0.283943 0.785887 0.668733 0.178644
C57   C     C_3   0.258091 0.308866 0.511220 -0.301250
C58   C     C_3   0.312034 0.717046 0.594356 -0.349042
C59   C     C_3   0.690962 0.843836 0.392085 -0.356238
C60   C     C_3   0.755238 0.194532 0.510537 -0.318896
C61   C     C_3   0.258985 0.219204 0.381124 0.075989
C62   C     C_3   0.230761 0.724711 0.381651 0.121128
C63   C     C_3   0.796097 0.750512 0.498477 0.124890
C64   C     C_3   0.762717 0.283189 0.387090 0.087639
C65   C     C_3   0.305297 0.267985 0.492010 0.145017
C66   C     C_3   0.309048 0.732691 0.494313 0.149240
C67   C     C_3   0.770398 0.832992 0.495081 0.154080
C68   C     C_3   0.805362 0.232587 0.495946 0.155351
H49   H     H_    0.295316 0.192142 0.371066 0.118778
H50   H     H_    0.230927 0.737838 0.312475 0.110444
H51   H     H_    0.852240 0.746687 0.576978 0.137659
H52   H     H_    0.801405 0.307764 0.380542 0.116258
C69   C     C_3   0.695642 0.732878 0.501416 0.087418
C70   C     C_3   0.733794 0.335736 0.506063 0.076606
C71   C     C_3   0.232439 0.169542 0.504730 0.092563
C72   C     C_3   0.228054 0.828041 0.493692 0.092859
C73   C     C_3   0.647524 0.780830 0.391217 -0.422963
C74   C     C_3   0.705316 0.254282 0.497242 -0.436935
C75   C     C_3   0.206927 0.251773 0.499209 -0.437103
C76   C     C_3   0.257218 0.764567 0.583884 -0.436938
C77   C     C_3   0.751524 0.691219 0.501303 0.076803
C78   C     C_3   0.726157 0.348581 0.399463 0.090105
C79   C     C_3   0.220994 0.156568 0.394367 0.111249
C80   C     C_3   0.183680 0.784222 0.377461 0.053821
H53   H     H_    0.721128 0.656349 0.423245 0.164812
H54   H     H_    0.669369 0.345244 0.324279 0.118567
H55   H     H_    0.163993 0.163382 0.321654 0.119262
H56   H     H_    0.139696 0.754084 0.365979 0.138392
H57   H     H_    0.228190 0.357173 0.452720 0.218448
H58   H     H_    0.304143 0.655796 0.601523 0.207894
H59   H     H_    0.680596 0.842243 0.311970 0.193188
H60   H     H_    0.724330 0.146964 0.450387 0.198024
H61   H     H_    0.624625 0.744378 0.316724 0.181954
H62   H     H_    0.651191 0.246448 0.415453 0.208722
H63   H     H_    0.152465 0.261086 0.418832 0.211852
H64   H     H_    0.213150 0.727733 0.561782 0.205469
H65   H     H_    0.210803 0.631516 0.990391 0.142746
H66   H     H_    0.294907 0.220438 0.181836 0.182924
H67   H     H_    0.795522 0.280587 0.180830 0.186782
H68   H     H_    0.786497 0.721264 0.178373 0.185525
H69   H     H_    0.789700 0.371330 0.005338 0.133918
H70   H     H_    0.791255 0.627234 0.013661 0.135510
H71   H     H_    0.212666 0.723139 0.821981 0.128082
H72   H     H_    0.288794 0.125828 0.008391 0.133177
C81   C     C_2   0.695792 0.343024 0.976034 -0.176488
C82   C     C_2   0.696503 0.644645 0.986001 -0.186738
C83   C     C_2   0.140569 0.746997 0.848092 -0.160883
C84   C     C_2   0.194690 0.158116 0.976196 -0.158582
C85   C     C_2   0.765911 0.343969 0.035987 -0.096211
C86   C     C_2   0.766457 0.650249 0.045151 -0.102981
C87   C     C_2   0.192923 0.707838 0.864478 -0.105188
C88   C     C_2   0.264921 0.155196 0.037695 -0.100916
H73   H     H_    0.329293 0.681279 0.988490 0.135942
H74   H     H_    0.369172 0.238287 0.084222 0.149522
H75   H     H_    0.869740 0.259622 0.083752 0.151014
H76   H     H_    0.880534 0.724771 0.114036 0.153565
C89   C     C_2   0.305559 0.655128 0.020193 -0.216504
C90   C     C_2   0.354991 0.251213 0.135419 -0.222436
C91   C     C_2   0.855442 0.247868 0.135008 -0.219139
C92   C     C_2   0.860388 0.742456 0.155381 -0.205109
C93   C     C_2   0.235366 0.656756 0.959772 -0.087130
C94   C     C_2   0.308929 0.207704 0.130687 -0.088482
C95   C     C_2   0.809465 0.292072 0.129428 -0.079317
C96   C     C_2   0.807407 0.703998 0.138205 -0.043892
H77   H     H_    0.672814 0.314723 0.007587 0.188778
H78   H     H_    0.672450 0.668966 0.018299 0.154612
H79   H     H_    0.121577 0.731132 0.891676 0.155920
H80   H     H_    0.171666 0.188254 0.006541 0.191381
C97   C     C_1   0.332337 0.198944 0.713719 0.090039
N33   N     N_1   0.347233 0.227009 0.793427 -0.084694
C98   C     C_1   0.338165 0.911602 0.623642 0.129118
N34   N     N_1   0.376215 0.943223 0.708412 -0.076519
C99   C     C_1   0.679640 0.829686 0.603433 0.076655
N35   N     N_1   0.638834 0.860742 0.604440 -0.079947
C100  C     C_1   0.828230 0.310067 0.716102 0.082559
N36   N     N_1   0.839336 0.286888 0.795179 -0.084912
N37   N     N_R   0.795367 0.734423 0.405494 0.238015
O1    O     O_R   0.736212 0.729352 0.302882 -0.450777
O2    O     O_R   0.854574 0.720766 0.426399 -0.372959
N38   N     N_R   0.708889 0.241445 0.282282 0.221073
O3    O     O_R   0.657168 0.205304 0.266439 -0.434227
O4    O     O_R   0.705544 0.251576 0.196917 -0.462847
N39   N     N_R   0.205851 0.262709 0.278373 0.222077
O5    O     O_R   0.156488 0.301485 0.266202 -0.407887
O6    O     O_R   0.200702 0.252292 0.191246 -0.453181
N40   N     N_R   0.201186 0.647419 0.361604 0.241471
O7    O     O_R   0.189327 0.618771 0.424603 -0.408569
O8    O     O_R   0.178112 0.610697 0.271364 -0.374754
N41   N     N_R   0.797410 0.638376 0.595187 0.237888
O9    O     O_R   0.790158 0.565319 0.576341 -0.347545
O10   O     O_R   0.850416 0.663191 0.694721 -0.413376
N42   N     N_R   0.751103 0.424287 0.398111 0.252762
O11   O     O_R   0.705507 0.474732 0.325908 -0.365149
O12   O     O_R   0.818194 0.440873 0.463411 -0.368042
N43   N     N_R   0.240802 0.079591 0.386567 0.228313
O13   O     O_R   0.192258 0.034046 0.307289 -0.361341
O14   O     O_R   0.306542 0.057840 0.451685 -0.453615
N44   N     N_R   0.151135 0.832641 0.278190 0.226606
O15   O     O_R   0.085037 0.821203 0.190807 -0.395448
O16   O     O_R   0.189838 0.872570 0.265654 -0.367155
C101  C     C_1   0.752278 0.440022 0.697743 0.075354
N45   N     N_1   0.800901 0.467640 0.780164 -0.052743
C102  C     C_1   0.738061 0.638228 0.708837 0.091207
N46   N     N_1   0.791013 0.642609 0.799882 -0.049745
C103  C     C_1   0.253469 0.902873 0.706259 -0.014939
N47   N     N_1   0.304807 0.905263 0.798949 -0.078975
C104  C     C_1   0.253221 0.081019 0.705976 0.006399
N48   N     N_1   0.304018 0.065823 0.795378 -0.077087

loop_
_geom_bond_atom_site_label_1
_geom_bond_atom_site_label_2
_geom_bond_distance
_ccdc_geom_bond_type
C22   H18   1.075199 S    
C45   C65   1.455926 S    
C64   H52   1.114492 S    
N3    N31   1.416520 A    
N8    N28   1.416520 A    
C30   C34   1.384665 A    
N19   Ni4   1.869724 S    
C26   N26   1.343048 A    
C60   C74   1.529486 S    
C64   C78   1.549298 S    
C6    H6    1.071227 S    
C25   N25   1.342444 A    
N26   Ni7   1.845003 S    
N8    Ni4   1.856707 S    
C4    H4    1.075099 S    
N12   Ni6   1.867315 S    
H44   C60   1.113606 S    
C44   C71   1.479496 S    
C27   N27   1.340892 A    
C102  N46   1.158596 T    
C47   C67   1.458643 S    
C54   H38   1.110517 S    
N10   Ni5   1.867315 S    
C15   C47   1.379506 A    
N7    Ni4   1.861642 S    
C80   H56   1.115675 S    
C58   H58   1.111639 S    
C101  N45   1.157379 T    
C18   N18   1.321553 A    
N14   Ni7   1.862839 S    
N11   Ni6   1.871787 S    
C52   C54   1.540866 S    
H41   C57   1.113278 S    
C41   C70   1.482588 S    
C20   C104  1.435064 S    
H71   C87   1.085171 S    
N14   N22   1.354640 A    
C55   H39   1.110701 S    
C28   C40   1.382789 A    
C103  N47   1.157984 T    
C84   H80   1.086558 S    
C81   C85   1.337316 D    
C56   H40   1.104357 S    
C19   C43   1.392223 A    
N43   O13   1.300699 A    
C39   C83   1.462766 S    
C52   C68   1.564427 S    
C64   N38   1.474904 S    
C38   C82   1.467034 S    
N2    Ni1   1.894547 S    
C57   H57   1.111168 S    
C32   C36   1.381142 A    
N30   Ni5   1.882819 S    
C37   C81   1.461247 S    
C70   C78   1.572914 S    
C61   C65   1.576374 S    
C50   H34   1.112921 S    
C49   H29   1.110082 S    
C59   C73   1.536759 S    
C27   C39   1.384825 A    
C23   N23   1.321925 A    
C4    C36   1.394166 A    
N13   N21   1.354549 A    
C10   N10   1.322903 A    
C2    N2    1.333433 A    
C62   C80   1.534858 S    
H76   C92   1.087470 S    
C60   C68   1.551668 S    
N43   O14   1.300534 A    
N27   Ni8   1.849588 S    
C74   H62   1.112026 S    
C26   H22   1.081403 S    
C25   H21   1.081469 S    
C55   C71   1.583834 S    
C4    N4    1.338206 A    
C46   C66   1.466788 S    
C83   H79   1.087478 S    
C24   C48   1.375415 A    
C28   H24   1.081405 S    
C16   C48   1.393647 A    
C17   C101  1.439568 S    
N9    Ni5   1.871787 S    
C54   C70   1.577980 S    
C7    N7    1.337121 A    
C60   H60   1.111171 S    
C77   N41   1.470800 S    
N41   O9    1.301204 A    
C61   H49   1.114845 S    
N3    Ni2   1.889535 S    
C91   C95   1.333180 D    
C89   C93   1.338175 D    
C2    H2    1.079357 S    
C34   C89   1.464013 S    
N40   O8    1.301371 A    
C9    C41   1.388736 A    
C33   C90   1.456861 S    
C12   H12   1.077462 S    
N15   N23   1.354549 A    
N38   O3    1.300962 A    
N5    Ni3   1.861642 S    
C22   N22   1.311883 A    
C24   H20   1.069126 S    
C6    C38   1.381373 A    
C83   C87   1.337661 D    
C69   C77   1.566094 S    
C40   C84   1.460986 S    
N9    N17   1.354549 A    
N15   Ni8   1.858389 S    
N44   O16   1.301165 A    
C21   C45   1.368557 A    
H73   C89   1.087414 S    
N11   N19   1.354549 A    
C61   N39   1.475112 S    
C64   C68   1.579660 S    
C2    C34   1.385116 A    
C1    N1    1.337126 A    
C90   C94   1.334310 D    
N6    N26   1.416520 A    
C100  N36   1.157852 T    
C53   C99   1.478567 S    
N7    N27   1.416520 A    
N1    N29   1.416520 A    
C98   N34   1.157231 T    
C70   C74   1.559961 S    
C8    C40   1.384316 A    
C36   C91   1.457099 S    
C15   H15   1.079297 S    
C71   C79   1.578150 S    
C19   N19   1.327991 A    
C11   N11   1.312577 A    
C97   N33   1.158114 T    
C30   H26   1.081442 S    
C15   N15   1.320070 A    
C79   H55   1.107486 S    
C23   C47   1.368522 A    
C87   C93   1.455368 S    
N1    Ni1   1.889535 S    
C63   H51   1.113693 S    
C14   C46   1.388947 A    
C7    H7    1.068063 S    
C56   C72   1.567759 S    
C13   C45   1.395119 A    
C99   N35   1.157156 T    
N12   N20   1.354640 A    
C26   C38   1.377149 A    
C51   C53   1.531823 S    
H46   C74   1.113255 S    
C29   C33   1.381940 A    
C12   C44   1.390021 A    
N23   Ni2   1.883559 S    
C58   C66   1.547354 S    
N29   Ni5   1.878164 S    
C80   N44   1.476525 S    
C71   C75   1.555490 S    
C8    H8    1.071944 S    
C31   C35   1.392766 A    
C85   C95   1.450484 S    
N42   O12   1.300890 A    
N37   O1    1.301648 A    
C43   C72   1.483888 S    
C5    N5    1.329437 A    
C84   C88   1.337539 D    
N39   O6    1.299816 A    
C5    C37   1.385513 A    
N24   Ni2   1.878719 S    
N16   N24   1.354640 A    
C81   H77   1.086690 S    
C76   H64   1.113081 S    
N21   Ni1   1.883559 S    
C53   H37   1.097238 S    
H43   C59   1.113202 S    
C72   C76   1.565593 S    
C1    C33   1.392447 A    
C63   N37   1.472906 S    
H48   C76   1.098578 S    
C18   C42   1.392513 A    
C63   C67   1.568439 S    
H66   C94   1.082999 S    
C11   H11   1.071201 S    
C62   C66   1.571384 S    
N38   O4    1.299341 A    
H65   C93   1.084333 S    
C72   C80   1.588488 S    
N40   O7    1.301154 A    
C13   N13   1.320702 A    
C104  N48   1.157872 T    
C19   C103  1.439735 S    
C25   C37   1.386544 A    
C1    H1    1.074836 S    
C59   C67   1.551773 S    
H70   C86   1.083973 S    
C86   C96   1.458263 S    
C57   C75   1.528318 S    
H69   C85   1.084529 S    
C35   C92   1.463629 S    
C16   N16   1.323164 A    
C78   N42   1.471441 S    
N44   O15   1.302134 A    
C54   C100  1.485788 S    
C51   C67   1.552358 S    
C62   H50   1.112178 S    
C79   N43   1.468848 S    
C61   C79   1.546327 S    
C23   H19   1.079931 S    
N4    N32   1.416520 A    
N28   Ni8   1.845003 S    
C32   H28   1.080428 S    
H67   C95   1.081809 S    
N13   Ni7   1.858389 S    
C63   C77   1.538595 S    
C31   H27   1.080488 S    
C82   H78   1.087344 S    
C52   H36   1.111263 S    
C21   H17   1.067350 S    
C78   H54   1.107645 S    
C51   H31   1.115189 S    
C31   N31   1.342679 A    
C11   C43   1.372141 A    
C3    H3    1.078620 S    
C48   C68   1.469071 S    
C30   N30   1.342687 A    
N31   Ni6   1.878164 S    
N16   Ni8   1.862839 S    
C55   C97   1.487168 S    
C56   C98   1.474867 S    
C73   H61   1.111163 S    
H45   C73   1.112476 S    
C6    N6    1.336674 A    
N41   O10   1.302265 A    
C49   C65   1.563161 S    
C29   N29   1.337640 A    
C28   N28   1.341694 A    
C62   N40   1.475077 S    
C10   C42   1.389304 A    
C9    H9    1.078167 S    
C27   H23   1.080260 S    
H68   C96   1.085030 S    
N10   N18   1.354640 A    
N17   Ni3   1.869724 S    
C82   C86   1.338991 D    
C7    C39   1.389876 A    
C20   N20   1.320949 A    
H47   C75   1.113358 S    
H42   C58   1.114488 S    
C42   C69   1.477817 S    
C50   H30   1.115385 S    
N4    Ni2   1.894547 S    
C53   C69   1.568744 S    
C75   H63   1.112383 S    
C92   C96   1.338612 D    
N42   O11   1.301254 A    
N37   O2    1.301404 A    
C57   C65   1.557570 S    
C20   C44   1.378913 A    
N18   Ni3   1.874540 S    
C50   C66   1.550803 S    
C58   C76   1.509180 S    
H72   C88   1.084535 S    
N22   Ni1   1.878719 S    
C13   H13   1.079592 S    
C49   C55   1.533686 S    
C88   C94   1.449509 S    
C14   N14   1.320692 A    
C17   N17   1.322605 A    
C3    N3    1.333210 A    
C24   N24   1.314870 A    
C5    H5    1.077911 S    
C50   C56   1.551747 S    
C14   H14   1.078948 S    
C59   H59   1.108005 S    
C16   H16   1.078860 S    
N2    N30   1.416520 A    
C29   H25   1.080660 S    
C12   N12   1.319065 A    
C8    N8    1.331760 A    
N6    Ni3   1.856707 S    
H74   C90   1.087557 S    
N5    N25   1.416520 A    
N39   O5    1.301089 A    
C77   H53   1.115285 S    
C3    C35   1.392167 A    
H75   C91   1.087595 S    
C32   N32   1.337006 A    
C22   C46   1.375662 A    
N25   Ni7   1.849588 S    
C49   H33   1.110725 S    
N32   Ni6   1.882819 S    
N20   Ni4   1.874540 S    
C69   C73   1.568399 S    
C18   C102  1.438044 S    
C52   H32   1.108991 S    
C17   C41   1.378412 A    
C9    N9    1.321293 A    
C21   N21   1.308363 A    
C10   H10   1.078494 S    
C51   H35   1.111335 S    
