data_mof_unit_23171.cif
_audit_creation_date              2012-12-11T15:52:20-0500
_audit_creation_method            fapswitch 2.2
_symmetry_space_group_name_H-M    P1
_symmetry_Int_Tables_number       1
_space_group_crystal_system       triclinic
_cell_length_a                    10.974066
_cell_length_b                    10.973773
_cell_length_c                    18.776385
_cell_angle_alpha                 90.377997
_cell_angle_beta                  89.742138
_cell_angle_gamma                 119.786481
_cell_volume                      1962.39607197

loop_
_atom_site_label
_atom_site_type_symbol
_atom_type_description
_atom_site_fract_x
_atom_site_fract_y
_atom_site_fract_z
_atom_type_partial_charge
C1    C     C_R   0.519629 0.459068 0.147892 0.629011
C2    C     C_3   0.030283 0.744264 0.460378 -0.282806
C3    C     C_3   0.713403 0.968635 0.459093 -0.281722
C4    C     C_3   0.256168 0.287029 0.459641 -0.282141
C5    C     C_R   0.522105 0.454053 0.355910 0.532213
C6    C     C_R   0.546028 0.068316 0.355928 0.530340
C7    C     C_R   0.931763 0.477924 0.355903 0.532679
C8    C     C_R   0.458462 0.516968 0.647199 0.543092
C9    C     C_R   0.058850 0.541513 0.647102 0.539901
C10   C     C_R   0.482630 0.940983 0.647119 0.547988
C11   C     C_R   0.459154 0.902491 0.936547 -0.028972
C12   C     C_R   0.541104 0.059440 0.147657 0.622623
C13   C     C_R   0.020116 0.521163 0.927358 0.008741
C14   C     C_R   0.467713 0.520908 0.932532 -0.000371
C15   C     C_R   0.002115 0.496193 0.077438 -0.004559
C16   C     C_R   0.488718 0.976449 0.082124 0.036519
C17   C     C_R   0.499413 0.508830 0.079828 0.057279
C18   C     C_R   0.373579 0.948026 0.968561 -0.027545
C19   C     C_R   0.947893 0.389638 0.959031 -0.024815
C20   C     C_R   0.599612 0.594837 0.963181 -0.008015
C21   C     C_R   0.943238 0.378432 0.031984 0.098294
C22   C     C_R   0.388707 0.985504 0.039793 -0.050596
C23   C     C_R   0.941877 0.480559 0.148339 0.597810
C24   C     C_R   0.615461 0.588965 0.035711 -0.016838
C25   C     C_R   0.554803 0.904952 0.053733 -0.095474
C26   C     C_R   0.064628 0.628820 0.045854 -0.176506
C27   C     C_R   0.365206 0.458497 0.051438 -0.145941
C28   C     C_R   0.070528 0.640727 0.971963 -0.118125
C29   C     C_R   0.543778 0.872843 0.980838 -0.135118
C30   C     C_R   0.350021 0.467402 0.978044 -0.121296
C31   C     C_3   0.345792 0.062923 0.947650 0.305867
C32   C     C_3   0.934606 0.248648 0.947778 0.274917
C33   C     C_3   0.730772 0.593260 0.945574 0.282173
C34   C     C_R   0.449279 0.525559 0.856431 0.536110
C35   C     C_3   0.946012 0.243650 0.028569 0.273504
C36   C     C_3   0.362977 0.104867 0.025646 0.294031
C37   C     C_3   0.747789 0.584232 0.025086 0.302356
C38   C     C_R   0.513144 0.014103 0.579693 0.016652
C39   C     C_R   0.985467 0.498938 0.579607 0.017864
C40   C     C_R   0.501376 0.485611 0.579728 0.017451
C41   C     C_R   0.960625 0.485611 0.431310 0.018971
C42   C     C_R   0.524568 0.039303 0.431373 0.019786
C43   C     C_R   0.514577 0.475198 0.431431 0.019079
C44   C     C_R   0.632880 0.036749 0.541898 0.030996
C45   C     C_R   0.063819 0.544421 0.853466 0.543548
C46   C     C_R   0.962488 0.596049 0.542405 0.032421
C47   C     C_R   0.404545 0.366149 0.541903 0.031392
C48   C     C_R   0.951312 0.589132 0.469934 0.043568
C49   C     C_R   0.637087 0.048022 0.469452 0.044709
C50   C     C_R   0.411320 0.362578 0.469411 0.045035
C51   C     C_R   0.416220 0.044033 0.469552 -0.161468
C52   C     C_R   0.955900 0.372498 0.468803 -0.161274
C53   C     C_R   0.627573 0.582772 0.469443 -0.161996
C54   C     C_R   0.966728 0.378427 0.543302 -0.166236
C55   C     C_R   0.411336 0.033013 0.544051 -0.165909
C56   C     C_R   0.453569 0.875098 0.860047 0.534878
C57   C     C_R   0.621752 0.587099 0.543968 -0.165514
C58   C     C_3   0.709367 0.955002 0.539099 -0.268522
C59   C     C_3   0.043857 0.753848 0.540407 -0.267183
C60   C     C_3   0.246714 0.290240 0.539724 -0.268010
Cr1   Cr    Cr6+3 0.769160 0.541570 0.250690 1.031216
Cr2   Cr    Cr6+3 0.458430 0.227590 0.250690 1.036671
Cr3   Cr    Cr6+3 0.772410 0.230840 0.250690 1.062982
Cr4   Cr    Cr6+3 0.541570 0.769160 0.749310 1.061057
Cr5   Cr    Cr6+3 0.227590 0.458430 0.749310 1.084600
Cr6   Cr    Cr6+3 0.230840 0.772410 0.749310 1.080329
F1    F     F_    0.209268 0.010914 0.924331 -0.590545
F2    F     F_    0.044998 0.249830 0.911687 -0.613909
F3    F     F_    0.831402 0.720357 0.917581 -0.604861
F4    F     F_    0.828169 0.134440 0.058349 -0.632233
F5    F     F_    0.481648 0.233305 0.036821 -0.591370
F6    F     F_    0.730032 0.455134 0.043980 -0.592858
H1    H     H_    0.627159 0.888263 0.085637 0.173956
H2    H     H_    0.045546 0.252381 0.047664 0.121999
H3    H     H_    0.266721 0.093270 0.051792 0.151199
H4    H     H_    0.840666 0.676115 0.048913 0.152264
H5    H     H_    0.333722 0.051087 0.441989 0.129956
H6    H     H_    0.948909 0.282947 0.440716 0.130302
H7    H     H_    0.716803 0.665141 0.441775 0.130742
H8    H     H_    0.972524 0.295620 0.571323 0.124471
H9    H     H_    0.322765 0.027253 0.572588 0.125113
H10   H     H_    0.704261 0.675356 0.572490 0.125954
H11   H     H_    0.642799 0.844834 0.556324 0.165593
H12   H     H_    0.101905 0.722924 0.078085 0.128565
H13   H     H_    0.154117 0.797174 0.557689 0.166060
H14   H     H_    0.202966 0.356900 0.557807 0.166643
H15   H     H_    0.964033 0.786122 0.439335 0.134132
H16   H     H_    0.821156 0.034709 0.437728 0.134275
H17   H     H_    0.214619 0.179470 0.437633 0.134535
H18   H     H_    0.814902 0.012501 0.564179 0.132987
H19   H     H_    0.986136 0.802059 0.565844 0.133271
H20   H     H_    0.198897 0.184393 0.564263 0.132633
H21   H     H_    0.132059 0.781246 0.432309 0.134062
H22   H     H_    0.649101 0.866915 0.430905 0.133895
H23   H     H_    0.273240 0.404914 0.084927 0.103041
H24   H     H_    0.218846 0.352097 0.432372 0.133844
H25   H     H_    0.118486 0.744732 0.949773 0.224171
H26   H     H_    0.608737 0.834325 0.958176 0.175441
H27   H     H_    0.247005 0.430647 0.956835 0.200524
H28   H     H_    0.426693 0.142042 0.911573 0.161238
H29   H     H_    0.830107 0.170488 0.926203 0.180047
H30   H     H_    0.714028 0.499794 0.914265 0.148603
O1    O     O_R   0.911480 0.572650 0.170990 -0.507064
O2    O     O_R   0.528970 0.640340 0.824320 -0.495684
O3    O     O_R   0.111370 0.471030 0.824320 -0.455177
O4    O     O_R   0.359660 0.888630 0.824320 -0.470370
O5    O     O_R   0.909980 0.572450 0.331530 -0.527670
O6    O     O_R   0.427550 0.337530 0.331530 -0.528944
O7    O     O_R   0.662470 0.090020 0.331530 -0.530879
O8    O     O_R   0.572450 0.909980 0.668470 -0.517518
O9    O     O_R   0.337530 0.427550 0.668470 -0.518626
O10   O     O_R   0.090020 0.662470 0.668470 -0.519008
O11   O     O_R   0.638950 0.528780 0.324500 -0.518438
O12   O     O_R   0.427350 0.338830 0.170990 -0.488882
O13   O     O_R   0.471220 0.110170 0.324500 -0.520707
O14   O     O_R   0.889830 0.361050 0.324500 -0.520302
O15   O     O_R   0.528780 0.638950 0.675500 -0.507227
O16   O     O_R   0.110170 0.471220 0.675500 -0.509930
O17   O     O_R   0.361050 0.889830 0.675500 -0.505908
O18   O     O_3   0.666667 0.333333 0.250560 -0.242328
O19   O     O_3   0.333333 0.666667 0.749440 -0.302326
O20   O     O_R   0.661170 0.088520 0.170990 -0.451830
O21   O     O_R   0.572650 0.911480 0.829010 -0.491393
O22   O     O_R   0.338830 0.427350 0.829010 -0.453041
O23   O     O_R   0.088520 0.661170 0.829010 -0.479968
O24   O     O_R   0.640340 0.528970 0.175680 -0.489089
O25   O     O_R   0.471030 0.111370 0.175680 -0.482930
O26   O     O_R   0.888630 0.359660 0.175680 -0.460199

loop_
_geom_bond_atom_site_label_1
_geom_bond_atom_site_label_2
_ccdc_geom_bond_type
C44   C49   A    
C28   H25   S    
C40   C47   A    
C35   H2    S    
C46   C59   S    
C32   C35   S    
C27   H23   S    
C32   H29   S    
C16   C22   A    
C59   H13   S    
C3    C49   S    
C11   C18   A    
C12   O25   A    
C31   F1    S    
C29   H26   S    
C53   H7    S    
C25   H1    S    
Cr6   O4    S    
Cr2   O12   S    
C31   C36   S    
Cr2   O25   S    
C39   C54   A    
Cr2   O6    S    
Cr4   O19   S    
C9    C39   S    
Cr5   O22   S    
Cr5   O9    S    
C10   O17   A    
C47   C60   S    
C4    H24   S    
C43   C53   A    
C23   O1    A    
C38   C55   A    
C20   C24   A    
C35   F4    S    
C44   C58   S    
C34   O22   A    
Cr5   O16   S    
C13   C28   A    
Cr1   O24   S    
Cr5   O19   S    
C55   H9    S    
C41   C52   A    
Cr2   O18   S    
Cr3   O26   S    
C36   F5    S    
C33   F3    S    
C42   C51   A    
C32   F2    S    
C5    O11   A    
C52   C54   A    
C9    O10   A    
C15   C23   S    
C5    C43   S    
C27   C30   A    
C9    O16   A    
C14   C30   A    
C52   H6    S    
C19   C32   S    
Cr5   O3    S    
C45   O3    A    
C8    O15   A    
C47   C50   A    
C54   H8    S    
C60   H20   S    
C25   C29   A    
C46   C48   A    
C17   C24   A    
C13   C19   A    
C33   H30   S    
C17   C27   A    
C56   O21   A    
C12   C16   S    
C1    O24   A    
C8    O9    A    
C45   O23   A    
C60   H14   S    
C2    C59   S    
C15   C26   A    
C2    C48   S    
C30   H27   S    
C33   C37   S    
Cr4   O15   S    
C4    C50   S    
C7    O14   A    
Cr3   O7    S    
C51   H5    S    
C38   C44   A    
C19   C21   A    
C36   H3    S    
C14   C20   A    
Cr4   O8    S    
C4    C60   S    
C24   C37   S    
Cr6   O19   S    
C2    H15   S    
C59   H19   S    
C31   H28   S    
C58   H18   S    
C56   O4    A    
C39   C46   A    
C20   C33   S    
C37   H4    S    
Cr6   O17   S    
Cr1   O11   S    
C6    O7    A    
C7    O5    A    
C1    O12   A    
Cr3   O14   S    
Cr3   O20   S    
C4    H17   S    
C16   C25   A    
Cr4   O2    S    
C26   H12   S    
C40   C57   A    
Cr1   O1    S    
C3    H16   S    
C18   C22   A    
C1    C17   S    
C2    H21   S    
C53   C57   A    
C14   C34   S    
C43   C50   A    
C21   C35   S    
Cr4   O21   S    
C22   C36   S    
C26   C28   A    
Cr6   O23   S    
C10   C38   S    
Cr2   O13   S    
C58   H11   S    
C13   C45   S    
Cr3   O18   S    
C41   C48   A    
C10   O8    A    
C3    H22   S    
C51   C55   A    
C7    C41   S    
Cr1   O5    S    
C34   O2    A    
C6    O13   A    
C42   C49   A    
C3    C58   S    
C15   C21   A    
C12   O20   A    
C11   C29   A    
C6    C42   S    
C37   F6    S    
C57   H10   S    
C18   C31   S    
C8    C40   S    
Cr6   O10   S    
C11   C56   S    
C23   O26   A    
Cr1   O18   S    
C5    O6    A    
