data_mof_unit_49950.cif
_audit_creation_date              2012-12-11T17:25:11-0500
_audit_creation_method            fapswitch 2.2
_symmetry_space_group_name_H-M    P1
_symmetry_Int_Tables_number       1
_space_group_crystal_system       triclinic
_cell_length_a                    6.950228
_cell_length_b                    20.528268
_cell_length_c                    24.495654
_cell_angle_alpha                 90.058786
_cell_angle_beta                  90.598888
_cell_angle_gamma                 89.64306
_cell_volume                      3494.68508433

loop_
_atom_site_label
_atom_site_type_symbol
_atom_type_description
_atom_site_fract_x
_atom_site_fract_y
_atom_site_fract_z
_atom_type_partial_charge
O1    O     O_R   0.507280 0.423750 0.460310 -0.527259
O2    O     O_R   0.171030 0.555650 0.437630 -0.530785
O3    O     O_R   0.004080 0.576250 0.539690 -0.539177
C1    C     C_R   0.339048 0.575670 0.421767 0.742932
O4    O     O_R   0.177330 0.422980 0.453960 -0.536258
O5    O     O_R   0.010420 0.442640 0.556140 -0.540066
C2    C     C_R   0.346441 0.399586 0.442620 0.809138
O6    O     O_R   0.500930 0.557360 0.443860 -0.537392
O7    O     O_3   0.340310 0.506600 0.533500 -0.375329
V1    V     V_3+5 0.064140 0.498780 0.493780 1.466933
O8    O     O_R   0.680890 0.444350 0.562370 -0.534096
C3    C     C_R   0.850537 0.424593 0.578309 0.724713
O9    O     O_R   0.674590 0.577020 0.546040 -0.543106
C4    C     C_R   0.843518 0.600814 0.556820 0.708467
V2    V     V_3+5 0.564550 0.501220 0.506220 1.464050
O10   O     O_3   0.838250 0.493400 0.466500 -0.360004
C5    C     C_R   0.968811 0.838095 0.911431 -0.134413
C6    C     C_R   0.853975 0.661541 0.588820 -0.096800
C7    C     C_R   0.935466 0.720898 0.908960 -0.243974
C8    C     C_R   0.956760 0.778469 0.938906 0.398125
C9    C     C_R   0.962073 0.839594 0.854029 -0.290119
C10   C     C_R   0.939750 0.781496 0.822750 0.094347
C11   C     C_R   0.928123 0.721871 0.851687 0.079247
C12   C     C_R   0.925355 0.780410 0.764113 0.078665
C13   C     C_R   0.902296 0.719627 0.735713 0.079426
C14   C     C_R   0.893763 0.661990 0.766959 -0.185320
C15   C     C_R   0.906090 0.663318 0.823531 -0.176302
C16   C     C_R   0.930944 0.838086 0.732992 -0.204669
C17   C     C_R   0.912832 0.837028 0.676541 -0.175583
C18   C     C_R   0.890197 0.778496 0.648039 0.040039
C19   C     C_R   0.886606 0.718579 0.677082 0.036133
C20   C     C_R   0.870489 0.779452 0.590539 0.416464
C21   C     C_R   0.856203 0.720981 0.561506 -0.254232
C22   C     C_R   0.868295 0.660151 0.646026 -0.222630
H1    H     H_    0.897113 0.617691 0.845601 0.131007
H2    H     H_    0.867726 0.612662 0.664645 0.103653
H3    H     H_    0.847876 0.722078 0.517304 0.124424
H4    H     H_    0.916706 0.883123 0.655079 0.168254
H5    H     H_    0.921523 0.675272 0.930780 0.136010
H6    H     H_    0.971626 0.886937 0.835387 0.114924
H7    H     H_    0.875159 0.614546 0.749036 0.121986
H8    H     H_    0.947734 0.885545 0.751049 0.127108
C23   C     C_R   0.733033 0.282546 0.740518 -0.235081
H9    H     H_    0.594663 0.304982 0.731656 0.128465
C24   C     C_R   0.892973 0.297587 0.708399 0.081285
C25   C     C_R   0.070578 0.267671 0.720392 -0.161737
H10   H     H_    0.196169 0.278914 0.696457 0.133926
C26   C     C_R   0.087623 0.222496 0.763158 -0.219022
H11   H     H_    0.225555 0.199392 0.771131 0.185940
C27   C     C_R   0.928133 0.207157 0.795256 0.026185
C28   C     C_R   0.750428 0.238458 0.784473 0.419977
C29   C     C_1   0.875116 0.342928 0.662858 -0.036200
C30   C     C_1   0.947544 0.160034 0.839467 0.002342
C31   C     C_1   0.961173 0.121236 0.876767 -0.172021
C32   C     C_1   0.862643 0.380314 0.624465 -0.185408
H12   H     H_    0.667918 0.669836 0.270782 0.135364
C33   C     C_R   0.577579 0.749529 0.219246 -0.156549
H13   H     H_    0.708380 0.747974 0.195598 0.150674
C34   C     C_R   0.433703 0.795807 0.207032 0.084342
C35   C     C_R   0.264270 0.796191 0.238351 0.169625
C36   C     C_R   0.241410 0.751062 0.281071 -0.162261
H14   H     H_    0.110739 0.752048 0.304790 0.145189
C37   C     C_R   0.385982 0.705098 0.293318 0.093048
C38   C     C_R   0.554245 0.704761 0.262056 -0.135863
C39   C     C_1   0.459633 0.841578 0.162026 0.022235
C40   C     C_1   0.363474 0.659058 0.338261 -0.018895
C41   C     C_1   0.348759 0.620883 0.376061 -0.155517
C42   C     C_1   0.475574 0.879506 0.124125 -0.133381
C43   C     C_R   0.473780 0.161965 0.088577 -0.079178
C44   C     C_R   0.357286 0.339132 0.409819 -0.169729
C45   C     C_R   0.544034 0.277235 0.093856 0.173941
C46   C     C_R   0.531315 0.219649 0.063921 -0.184881
C47   C     C_R   0.427360 0.161717 0.144180 -0.201021
C48   C     C_R   0.445481 0.218956 0.176715 0.073595
C49   C     C_R   0.503896 0.277346 0.150401 0.083579
C50   C     C_R   0.413601 0.219787 0.234656 0.025631
C51   C     C_R   0.422849 0.279824 0.264246 0.081680
C52   C     C_R   0.493955 0.334676 0.237067 -0.128694
C53   C     C_R   0.529883 0.333929 0.181457 -0.144213
C54   C     C_R   0.386340 0.162073 0.264585 -0.186342
C55   C     C_R   0.379453 0.162248 0.321348 0.180085
C56   C     C_R   0.382324 0.221440 0.350426 0.003041
C57   C     C_R   0.384084 0.281546 0.321670 0.031149
C58   C     C_R   0.384252 0.221528 0.407756 -0.207791
C59   C     C_R   0.376924 0.279646 0.437300 0.359001
C60   C     C_R   0.348806 0.340228 0.352035 0.028131
H15   H     H_    0.583767 0.378179 0.163505 0.176167
H16   H     H_    0.568032 0.219739 0.021031 0.128402
H17   H     H_    0.380560 0.115947 0.160750 0.115569
H18   H     H_    0.535689 0.377861 0.259191 0.169421
H19   H     H_    0.382696 0.114951 0.245362 0.155630
H20   H     H_    0.395545 0.176654 0.430590 0.170764
O11   O     O_R   0.323320 0.942780 0.056240 -0.534380
O12   O     O_R   0.647300 0.077050 0.046060 -0.537561
O13   O     O_R   0.813840 0.057330 0.943840 -0.536533
C61   C     C_R   0.478773 0.101105 0.056651 0.707784
O14   O     O_R   0.653250 0.944380 0.062400 -0.525494
O15   O     O_R   0.819830 0.923720 0.960300 -0.530931
C62   C     C_R   0.485255 0.924466 0.078308 0.732072
O16   O     O_R   0.317330 0.076390 0.039790 -0.536042
O17   O     O_3   0.483830 0.993470 0.966560 -0.373778
V3    V     V_3+5 0.760140 0.001210 0.006210 1.482454
O18   O     O_R   0.149290 0.922840 0.953850 -0.548100
C63   C     C_R   0.980164 0.899130 0.943106 0.752882
O19   O     O_R   0.143340 0.055500 0.937510 -0.540773
C64   C     C_R   0.973691 0.075616 0.921888 0.711102
V4    V     V_3+5 0.259690 0.998600 0.993650 1.445306
O20   O     O_3   0.986130 0.006520 0.033440 -0.360494
O21   O     O_3   0.878012 0.837620 0.562189 -0.556765
C65   C     C_3   0.689069 0.855788 0.546562 0.064089
H21   H     H_    0.593842 0.859534 0.582813 0.123864
H22   H     H_    0.627271 0.820122 0.517016 0.132343
C66   C     C_3   0.693782 0.922113 0.519019 -0.628444
H23   H     H_    0.785618 0.919879 0.482217 0.239059
H24   H     H_    0.545836 0.936933 0.506513 0.192694
H25   H     H_    0.752600 0.959056 0.547735 0.214972
O22   O     O_3   0.590383 0.223258 0.814832 -0.561083
C67   C     C_3   0.576514 0.268177 0.858316 0.085930
H26   H     H_    0.544726 0.317995 0.842505 0.127047
H27   H     H_    0.711761 0.269214 0.883213 0.129899
C68   C     C_3   0.413640 0.248045 0.895614 -0.681972
H28   H     H_    0.440141 0.198046 0.911426 0.217485
H29   H     H_    0.404491 0.282242 0.930662 0.200836
H30   H     H_    0.274743 0.249138 0.872869 0.219856
I1    I     I_    0.038323 0.863918 0.223064 -0.412800
I2    I     I_    0.226057 0.426391 0.315436 -0.424700
O23   O     O_3   0.392494 0.278456 0.493633 -0.556576
C69   C     C_3   0.213193 0.260561 0.515424 0.097434
H31   H     H_    0.173824 0.210150 0.502945 0.134272
H32   H     H_    0.097354 0.295036 0.502103 0.122339
C70   C     C_3   0.226457 0.262501 0.577342 -0.695640
H33   H     H_    0.259033 0.312770 0.591330 0.218698
H34   H     H_    0.087413 0.247005 0.594869 0.186454
H35   H     H_    0.341810 0.228976 0.592038 0.226846
I3    I     I_    0.358772 0.069224 0.359381 -0.367970
I4    I     I_    0.631435 0.361036 0.049684 -0.425826
O24   O     O_3   0.948075 0.777188 0.995263 -0.558256
C71   C     C_3   0.128221 0.756733 0.016326 0.075309
H36   H     H_    0.244616 0.790234 0.003214 0.118906
H37   H     H_    0.163036 0.706173 0.002967 0.129696
C72   C     C_3   0.121166 0.757509 0.078348 -0.657091
H38   H     H_    0.006046 0.724655 0.092807 0.227229
H39   H     H_    0.261271 0.740621 0.095505 0.179354
H40   H     H_    0.091430 0.807733 0.093047 0.235869

loop_
_geom_bond_atom_site_label_1
_geom_bond_atom_site_label_2
_ccdc_geom_bond_type
O17   V4    S    
C45   C49   A    
C13   C19   A    
O17   V3    S    
C60   I2    S    
C47   C48   A    
C4    C6    S    
O2    C1    A    
C7    C8    A    
C1    O6    A    
C43   C61   S    
C69   H31   S    
C2    C44   S    
C53   H15   S    
C55   C56   A    
C51   C52   A    
C52   H18   S    
O19   V4    S    
C14   C15   A    
C48   C50   A    
C9    C10   A    
C35   I1    S    
C5    C63   S    
C72   H39   S    
O5    C3    A    
C18   C19   A    
C33   C34   A    
C51   C57   A    
V2    O10   S    
C5    C8    A    
C36   C37   A    
C65   H21   S    
C68   H30   S    
O14   C62   A    
C67   H26   S    
O8    V2    S    
C17   H4    S    
V4    O20   S    
H12   C38   S    
V3    O20   S    
O1    V2    S    
C11   C15   A    
O7    V1    S    
O11   C62   A    
O14   V3    S    
C29   C32   T    
C66   H25   S    
C70   H35   S    
C26   C27   A    
C40   C41   T    
C37   C40   S    
C34   C35   A    
O9    C4    A    
C46   H16   S    
C55   I3    S    
C65   H22   S    
C50   C51   A    
C25   C26   A    
C27   C30   S    
C48   C49   A    
C31   C64   S    
C50   C54   A    
C12   C13   A    
C20   O21   S    
C72   H40   S    
C45   I4    S    
O4    C2    A    
C52   C53   A    
C24   C29   S    
C15   H1    S    
C13   C14   A    
O15   V3    S    
C5    C9    A    
C35   C36   A    
C67   C68   S    
C8    O24   S    
C43   C46   A    
C7    C11   A    
C23   H9    S    
C17   C18   A    
O13   C64   A    
C23   C24   A    
C43   C47   A    
C39   C42   T    
C27   C28   A    
C19   C22   A    
C58   C59   A    
O12   C61   A    
C6    C22   A    
C65   C66   S    
C68   H28   S    
O3    C4    A    
C7    H5    S    
C26   H11   S    
O6    V2    S    
C56   C58   A    
O9    V2    S    
C10   C12   A    
C59   O23   S    
C70   H33   S    
O2    V1    S    
C69   C70   S    
C33   C38   A    
C21   H3    S    
C66   H23   S    
O19   C64   A    
C25   H10   S    
C16   C17   A    
O16   V4    S    
O1    C2    A    
C12   C16   A    
C54   C55   A    
C70   H34   S    
C71   C72   S    
C69   H32   S    
O5    V1    S    
C1    C41   S    
O8    C3    A    
O13   V3    S    
C30   C31   T    
C71   H37   S    
O24   C71   S    
C20   C21   A    
C54   H19   S    
O7    V2    S    
C42   C62   S    
C47   H17   S    
C45   C46   A    
O3    V1    S    
V1    O10   S    
C72   H38   S    
C34   C39   S    
C18   C20   A    
C23   C28   A    
C33   H13   S    
C9    H6    S    
O15   C63   A    
C61   O16   A    
C16   H8    S    
C28   O22   S    
C22   H2    S    
C36   H14   S    
C6    C21   A    
C67   H27   S    
C68   H29   S    
C3    C32   S    
C71   H36   S    
C37   C38   A    
C24   C25   A    
O4    V1    S    
C57   C60   A    
O12   V3    S    
C56   C57   A    
O21   C65   S    
O18   C63   A    
C10   C11   A    
O18   V4    S    
C58   H20   S    
O22   C67   S    
C44   C59   A    
C49   C53   A    
O11   V4    S    
O23   C69   S    
C14   H7    S    
C66   H24   S    
C44   C60   A    
