data_mof_unit_25493.cif
_audit_creation_date              2012-12-11T14:29:49-0500
_audit_creation_method            fapswitch 2.2
_symmetry_space_group_name_H-M    P1
_symmetry_Int_Tables_number       1
_space_group_crystal_system       triclinic
_cell_length_a                    6.935371
_cell_length_b                    14.798795
_cell_length_c                    16.191052
_cell_angle_alpha                 90.411123
_cell_angle_beta                  89.819574
_cell_angle_gamma                 90.013706
_cell_volume                      1661.71972858

loop_
_atom_site_label
_atom_site_type_symbol
_atom_type_description
_atom_site_fract_x
_atom_site_fract_y
_atom_site_fract_z
_atom_type_partial_charge
O1    O     O_R   0.494400 0.416610 0.413880 -0.550269
O2    O     O_R   0.823920 0.406790 0.585520 -0.545021
O3    O     O_R   0.994250 0.583390 0.586120 -0.551573
C1    C     C_R   0.654458 0.384664 0.613267 0.793393
O4    O     O_R   0.824110 0.405730 0.414490 -0.521578
O5    O     O_R   0.994440 0.582310 0.413870 -0.543867
C2    C     C_R   0.655443 0.381653 0.387905 0.775138
O6    O     O_R   0.494210 0.417690 0.586130 -0.517769
O7    O     O_3   0.660810 0.557940 0.500000 -0.382414
V1    V     V_3+5 0.935650 0.489250 0.500000 1.473391
O8    O     O_R   0.324160 0.593210 0.414480 -0.554304
C3    C     C_R   0.155607 0.616656 0.388061 0.715868
O9    O     O_R   0.323970 0.594270 0.585510 -0.524179
C4    C     C_R   0.155440 0.614900 0.615046 0.739137
V2    V     V_3+5 0.435660 0.510750 0.500000 1.467879
O10   O     O_3   0.160630 0.442060 0.500000 -0.359620
H1    H     H_    0.390393 0.907548 0.520310 0.117090
C5    C     C_R   0.033134 0.562721 0.786918 -0.036247
C6    C     C_R   0.924959 0.543441 0.859394 0.087489
C7    C     C_R   0.885798 0.614049 0.914814 -0.126712
C8    C     C_R   0.956304 0.700048 0.901301 -0.186249
C9    C     C_R   0.050273 0.722885 0.827066 0.055778
C10   C     C_R   0.077816 0.654579 0.765453 0.043853
C11   C     C_R   0.119225 0.812192 0.814683 -0.169770
C12   C     C_R   0.198041 0.836215 0.737073 0.072600
C13   C     C_R   0.208587 0.771126 0.672049 0.058183
C14   C     C_R   0.148864 0.680402 0.685630 -0.162506
C15   C     C_R   0.259325 0.925894 0.721500 -0.143541
C16   C     C_R   0.329770 0.950704 0.644333 -0.112956
C17   C     C_R   0.337874 0.887686 0.580547 -0.110030
C18   C     C_R   0.277000 0.799245 0.593651 -0.140697
H2    H     H_    0.807766 0.603372 0.971729 0.105284
H3    H     H_    0.932342 0.748423 0.950417 0.126935
H4    H     H_    0.250822 0.978469 0.768066 0.108963
H5    H     H_    0.375884 0.019566 0.633712 0.124262
H6    H     H_    0.283463 0.753839 0.541152 0.100786
C19   C     C_2   0.993577 0.713787 0.284874 -0.149032
C20   C     C_2   0.151902 0.690140 0.327060 -0.310884
H7    H     H_    0.856404 0.681579 0.298248 0.136403
H8    H     H_    0.284500 0.727803 0.318465 0.132569
C21   C     C_2   0.994662 0.788973 0.224582 -0.156387
C22   C     C_2   0.124054 0.799181 0.162242 -0.061268
H9    H     H_    0.878193 0.837653 0.230877 0.116798
C23   C     C_2   0.778555 0.203480 0.777215 -0.119520
C24   C     C_2   0.613608 0.175276 0.813028 -0.322039
H10   H     H_    0.915153 0.176785 0.798769 0.136878
H11   H     H_    0.475124 0.199111 0.791534 0.128636
C25   C     C_2   0.788934 0.269336 0.708065 -0.160572
C26   C     C_2   0.638176 0.317752 0.680301 -0.292316
H12   H     H_    0.929861 0.279035 0.680119 0.147065
H13   H     H_    0.496240 0.309623 0.707244 0.155028
C27   C     C_2   0.774509 0.197039 0.222644 -0.213916
C28   C     C_2   0.611511 0.176796 0.181456 -0.315329
H14   H     H_    0.908581 0.165875 0.202326 0.134344
H15   H     H_    0.473534 0.202450 0.202797 0.129328
C29   C     C_2   0.782222 0.252603 0.300003 0.016546
C30   C     C_2   0.644889 0.315346 0.318872 -0.317775
H16   H     H_    0.520940 0.322934 0.278921 0.109015
O11   O     O_R   0.770210 0.079270 0.910680 -0.537545
O12   O     O_R   0.440150 0.091160 0.082270 -0.545431
O13   O     O_R   0.269970 0.914530 0.082860 -0.542060
C31   C     C_R   0.608279 0.112569 0.111051 0.757639
O14   O     O_R   0.440480 0.090100 0.911240 -0.547528
O15   O     O_R   0.270310 0.913460 0.910610 -0.537465
C32   C     C_R   0.609112 0.110463 0.882069 0.748850
O16   O     O_R   0.769870 0.080340 0.082930 -0.536864
O17   O     O_3   0.603660 0.938980 0.996790 -0.371658
V3    V     V_3+5 0.328750 0.007610 0.996740 1.396807
O18   O     O_R   0.940600 0.902510 0.911180 -0.541082
C33   C     C_R   0.109450 0.880555 0.882843 0.694401
O19   O     O_R   0.940270 0.903570 0.082200 -0.547649
C34   C     C_R   0.109690 0.878804 0.107452 0.695120
V4    V     V_3+5 0.828770 0.986010 0.996670 1.405223
O20   O     O_3   0.103730 0.054750 0.996710 -0.372330
C35   C     C_3   0.275519 0.728211 0.139542 -0.324992
C36   C     C_3   0.183268 0.638396 0.112295 -0.289901
C37   C     C_3   0.328130 0.577578 0.067520 -0.797251
H17   H     H_    0.380376 0.610581 0.010224 0.234624
H18   H     H_    0.452826 0.562940 0.108191 0.223119
H19   H     H_    0.257622 0.512793 0.050211 0.224188
H20   H     H_    0.126740 0.601544 0.166667 0.202645
H21   H     H_    0.060919 0.651909 0.070258 0.189334
H22   H     H_    0.364675 0.753244 0.087283 0.176909
H23   H     H_    0.378414 0.717062 0.190509 0.164225
C38   C     C_2   0.948784 0.233418 0.354708 0.407419
H24   H     H_    0.084486 0.211201 0.327843 0.013293
O21   O     O_2   0.933020 0.236124 0.429826 -0.525735
C39   C     C_2   0.122516 0.485199 0.743017 0.317144
H25   H     H_    0.036104 0.427764 0.724402 0.042706
O22   O     O_2   0.296665 0.482918 0.732232 -0.537625
C40   C     C_3   0.860305 0.446758 0.877818 -0.366406
C41   C     C_3   0.750108 0.433579 0.959600 -0.314070
C42   C     C_3   0.686661 0.335737 0.970659 -0.739066
H26   H     H_    0.578144 0.317715 0.923123 0.231570
H27   H     H_    0.812083 0.289296 0.965785 0.228237
H28   H     H_    0.619390 0.327588 0.032496 0.208047
H29   H     H_    0.844454 0.452604 0.012348 0.190647
H30   H     H_    0.618787 0.476601 0.960474 0.206541
H31   H     H_    0.766050 0.423862 0.826410 0.193815
H32   H     H_    0.989668 0.402420 0.879050 0.171855

loop_
_geom_bond_atom_site_label_1
_geom_bond_atom_site_label_2
_ccdc_geom_bond_type
O14   C32   A    
C42   H26   S    
C21   C22   D    
C6    C7    A    
C1    O6    A    
C29   C38   S    
C41   H30   S    
C37   H17   S    
C23   C24   D    
C12   C15   A    
C13   C14   A    
C19   C20   D    
O15   V3    S    
C15   C16   A    
O5    C3    A    
C17   C18   A    
C35   H23   S    
C8    H3    S    
V3    O20   S    
V2    O10   S    
C29   C30   D    
O12   C31   A    
C5    C6    A    
V4    O20   S    
C24   H11   S    
O8    V2    S    
C27   H14   S    
C26   H13   S    
O18   V4    S    
O17   V4    S    
C10   C14   A    
C4    C14   S    
O7    V1    S    
O11   V4    S    
C39   H25   S    
C37   H18   S    
C15   H4    S    
C13   C18   A    
C42   H27   S    
O9    C4    A    
C3    C20   S    
H1    C17   S    
C21   H9    S    
C23   H10   S    
C41   H29   S    
C28   H15   S    
C31   O16   A    
C38   O21   D    
C11   C33   S    
C5    C10   A    
C11   C12   A    
C36   H21   S    
C40   C41   S    
O4    C2    A    
C12   C13   A    
C38   H24   S    
O16   V4    S    
C5    C39   S    
O17   V3    S    
O2    C1    A    
C35   C36   S    
C16   C17   A    
C28   C31   S    
C22   C34   S    
C22   C35   S    
C36   C37   S    
O3    C4    A    
O1    V2    S    
O13   C34   A    
C25   C26   D    
C39   O22   D    
O6    V2    S    
O15   C33   A    
O9    V2    S    
C24   C32   S    
C40   H32   S    
C9    C11   A    
O2    V1    S    
C27   C28   D    
O19   V4    S    
C7    H2    S    
C37   H19   S    
O14   V3    S    
O1    C2    A    
C9    C10   A    
C36   H20   S    
O5    V1    S    
O8    C3    A    
C42   H28   S    
C16   H5    S    
C1    C26   S    
O7    V2    S    
O4    V1    S    
C19   H7    S    
O3    V1    S    
V1    O10   S    
O11   C32   A    
C20   H8    S    
O13   V3    S    
C35   H22   S    
C30   H16   S    
C25   H12   S    
C41   C42   S    
C19   C21   S    
O18   C33   A    
C6    C40   S    
C27   C29   S    
O19   C34   A    
C7    C8    A    
O12   V3    S    
C18   H6    S    
C40   H31   S    
C8    C9    A    
C2    C30   S    
C23   C25   S    
