data_mof_unit_38364.cif
_audit_creation_date              2012-12-11T15:48:35-0500
_audit_creation_method            fapswitch 2.2
_symmetry_space_group_name_H-M    P1
_symmetry_Int_Tables_number       1
_space_group_crystal_system       triclinic
_cell_length_a                    10.945607
_cell_length_b                    10.948926
_cell_length_c                    18.832737
_cell_angle_alpha                 90.476883
_cell_angle_beta                  90.150128
_cell_angle_gamma                 60.306594
_cell_volume                      1960.52871185

loop_
_atom_site_label
_atom_site_type_symbol
_atom_type_description
_atom_site_fract_x
_atom_site_fract_y
_atom_site_fract_z
_atom_type_partial_charge
C1    C     C_R   0.239439 0.645046 0.610330 0.541116
C2    C     C_3   0.733813 0.521051 0.796877 -0.244276
C3    C     C_3   0.697823 0.673142 0.813472 0.058412
C4    C     C_3   0.669110 0.646561 0.677733 0.050364
C5    C     C_3   0.779582 0.692710 0.688962 -0.251280
C6    C     C_3   0.715306 0.506235 0.717629 -0.212972
C7    C     C_R   0.683118 0.146718 0.821282 0.017569
C8    C     C_R   0.773953 0.179637 0.785129 -0.007495
C9    C     C_R   0.768538 0.189846 0.711181 0.015592
C10   C     C_R   0.583592 0.131529 0.707905 -0.173100
C11   C     C_R   0.582459 0.130642 0.780953 -0.158963
C12   C     C_R   0.652886 0.621009 0.601854 0.538958
C13   C     C_3   0.929560 0.103917 0.786494 -0.275542
C14   C     C_3   0.925241 0.111215 0.706207 -0.280698
C15   C     C_R   0.674140 0.164673 0.671788 0.015868
C16   C     C_R   0.187022 0.666498 0.836969 0.015411
C17   C     C_R   0.196438 0.554365 0.797030 0.019439
C18   C     C_R   0.202995 0.551397 0.724857 0.021846
C19   C     C_R   0.204309 0.768252 0.725384 -0.186043
C20   C     C_R   0.204280 0.767745 0.799606 -0.181747
C21   C     C_3   0.190292 0.421572 0.800843 -0.281459
C22   C     C_3   0.200068 0.417163 0.719146 -0.277248
C23   C     C_R   0.629925 0.226074 0.601850 0.541077
C24   C     C_R   0.204369 0.658249 0.685721 0.012494
C25   C     C_R   0.673972 0.680519 0.173822 0.020984
C26   C     C_R   0.793886 0.603311 0.215369 0.051760
C27   C     C_R   0.788118 0.599085 0.287966 0.016907
C28   C     C_R   0.538671 0.761413 0.282806 -0.163499
C29   C     C_R   0.546199 0.766987 0.208514 -0.176859
C30   C     C_3   0.903564 0.452099 0.209366 -0.262970
C31   C     C_3   0.902026 0.448203 0.289461 -0.272194
C32   C     C_R   0.658732 0.668904 0.322646 0.013675
C33   C     C_R   0.638937 0.185322 0.170027 0.019462
C34   C     C_R   0.227543 0.646160 0.399461 0.547750
C35   C     C_R   0.518281 0.209672 0.207224 0.023445
C36   C     C_R   0.515806 0.217623 0.280064 0.042844
C37   C     C_R   0.743043 0.201248 0.280728 -0.166435
C38   C     C_R   0.743864 0.198235 0.206699 -0.168278
C39   C     C_3   0.438447 0.131205 0.207262 -0.270498
C40   C     C_3   0.437643 0.139052 0.287448 -0.278631
C41   C     C_R   0.632078 0.202061 0.318203 0.021779
C42   C     C_R   0.168632 0.666765 0.178450 0.020076
C43   C     C_R   0.192110 0.764519 0.215822 0.024996
C44   C     C_R   0.203479 0.758119 0.287664 0.035640
C45   C     C_R   0.642134 0.623846 0.392642 0.552155
C46   C     C_R   0.201132 0.539814 0.287385 -0.151476
C47   C     C_R   0.189596 0.545448 0.213333 -0.157317
C48   C     C_3   0.110296 0.922688 0.218939 -0.267525
C49   C     C_3   0.124627 0.913228 0.298564 -0.280315
C50   C     C_R   0.194848 0.654296 0.325244 0.021986
C51   C     C_R   0.702510 0.098478 0.894898 0.541882
C52   C     C_R   0.721783 0.686866 0.889119 0.542728
C53   C     C_R   0.120655 0.704743 0.906694 0.539165
C54   C     C_R   0.673366 0.110599 0.102819 0.548351
C55   C     C_R   0.697898 0.691430 0.098722 0.544786
C56   C     C_R   0.614197 0.233906 0.393319 0.544601
C57   C     C_R   0.096490 0.708590 0.111438 0.549783
C58   C     C_3   0.543521 0.773648 0.791252 -0.242645
C59   C     C_3   0.528044 0.760116 0.710862 -0.232835
C60   C     C_3   0.794749 0.711114 0.769232 -0.219080
Cr1   Cr    Cr6+3 0.392960 0.397920 0.502240 1.008583
Cr2   Cr    Cr6+3 0.398340 0.708480 0.501250 1.003031
Cr3   Cr    Cr6+3 0.708670 0.393570 0.496460 1.004195
Cr4   Cr    Cr6+3 0.937650 0.938540 0.007610 1.002484
Cr5   Cr    Cr6+3 0.625330 0.937370 0.994520 1.000846
Cr6   Cr    Cr6+3 0.937940 0.625230 0.001190 1.003937
H1    H     H_    0.817191 0.421803 0.696276 0.142258
H2    H     H_    0.905987 0.644282 0.784711 0.134779
H3    H     H_    0.882185 0.613126 0.666128 0.121794
H4    H     H_    0.507665 0.113082 0.679774 0.122862
H5    H     H_    0.507296 0.106533 0.804976 0.134544
H6    H     H_    0.969692 0.997012 0.807493 0.172166
H7    H     H_    0.972086 0.167089 0.811826 0.126286
H8    H     H_    0.968410 0.176172 0.684608 0.129111
H9    H     H_    0.964409 0.007653 0.679449 0.143436
H10   H     H_    0.209506 0.853456 0.699479 0.135309
H11   H     H_    0.471855 0.747359 0.820767 0.118863
H12   H     H_    0.205744 0.854212 0.827186 0.132266
H13   H     H_    0.088696 0.436977 0.821447 0.146269
H14   H     H_    0.284843 0.336180 0.826938 0.138172
H15   H     H_    0.299953 0.330295 0.697985 0.160142
H16   H     H_    0.103880 0.429788 0.692691 0.120389
H17   H     H_    0.437185 0.820707 0.308144 0.140039
H18   H     H_    0.452353 0.834254 0.178451 0.120674
H19   H     H_    0.003291 0.436215 0.186807 0.141301
H20   H     H_    0.862670 0.388053 0.183621 0.134210
H21   H     H_    0.867118 0.376151 0.309493 0.162143
H22   H     H_    0.448783 0.727661 0.701685 0.149477
H23   H     H_    0.999999 0.434947 0.314137 0.126357
H24   H     H_    0.831333 0.196877 0.308613 0.118983
H25   H     H_    0.834352 0.189157 0.178920 0.117438
H26   H     H_    0.501639 0.022541 0.186751 0.173315
H27   H     H_    0.332095 0.192971 0.183486 0.122940
H28   H     H_    0.330738 0.204217 0.310162 0.129864
H29   H     H_    0.501897 0.035228 0.313095 0.142287
H30   H     H_    0.211910 0.448823 0.314841 0.127863
H31   H     H_    0.188229 0.460871 0.184265 0.115265
H32   H     H_    0.999809 0.965199 0.202070 0.171480
H33   H     H_    0.491237 0.863577 0.684958 0.117576
H34   H     H_    0.167474 0.971484 0.193898 0.127287
H35   H     H_    0.023234 0.949501 0.326863 0.136291
H36   H     H_    0.767438 0.821762 0.780387 0.129961
H37   H     H_    0.746787 0.793678 0.661247 0.116267
H38   H     H_    0.844427 0.445437 0.811808 0.130769
H39   H     H_    0.664249 0.493569 0.827727 0.120207
H40   H     H_    0.634708 0.473570 0.709721 0.133090
O1    O     O_R   0.507380 0.255700 0.581440 -0.529974
O2    O     O_R   0.524480 0.695810 0.424040 -0.509094
O3    O     O_R   0.736390 0.504290 0.414790 -0.523526
O4    O     O_R   0.691300 0.277290 0.422170 -0.510823
O5    O     O_3   0.499990 0.499990 0.499980 -0.248793
O6    O     O_R   0.089400 0.825690 0.930570 -0.532665
O7    O     O_R   0.818460 0.054440 0.929850 -0.501256
O8    O     O_R   0.606060 0.077150 0.915510 -0.535583
O9    O     O_R   0.646550 0.806680 0.917570 -0.511119
O10   O     O_R   0.837170 0.593410 0.915250 -0.532547
O11   O     O_R   0.065200 0.635530 0.931570 -0.503270
O12   O     O_R   0.280320 0.527350 0.578930 -0.497820
O13   O     O_R   0.068260 0.828890 0.091840 -0.527510
O14   O     O_R   0.798870 0.057410 0.079340 -0.511117
O15   O     O_R   0.584930 0.080350 0.076780 -0.523221
O16   O     O_R   0.626960 0.809650 0.067060 -0.507654
O17   O     O_R   0.816040 0.596610 0.076510 -0.519695
O18   O     O_R   0.045610 0.638500 0.081060 -0.507256
O19   O     O_3   0.833640 0.833710 0.001100 -0.246362
O20   O     O_R   0.260510 0.739590 0.584590 -0.534403
O21   O     O_R   0.532300 0.695080 0.573820 -0.510844
O22   O     O_R   0.744840 0.503500 0.576370 -0.528639
O23   O     O_R   0.699120 0.276560 0.571960 -0.501986
O24   O     O_R   0.498940 0.256500 0.419860 -0.520550
O25   O     O_R   0.272500 0.528080 0.429150 -0.509212
O26   O     O_R   0.252060 0.740380 0.423010 -0.519905
H41   H     H_    0.512022 0.884661 0.804044 0.130788
H42   H     H_    0.191251 0.955250 0.319916 0.135710

loop_
_geom_bond_atom_site_label_1
_geom_bond_atom_site_label_2
_ccdc_geom_bond_type
C44   C49   S    
C49   H42   S    
C5    H37   S    
C8    C13   S    
C54   O14   A    
C59   H33   S    
C32   C45   S    
C35   C36   A    
C9    C14   S    
C7    C8    A    
C12   O21   A    
C7    C11   A    
C26   C27   A    
C51   O7    A    
Cr4   O13   S    
Cr6   O10   S    
C37   H24   S    
C18   C24   A    
C14   H8    S    
C19   H10   S    
C10   C15   A    
C49   H35   S    
Cr2   O21   S    
C45   O3    A    
Cr4   O6    S    
Cr2   O2    S    
C23   O23   A    
Cr5   O8    S    
C16   C53   S    
C39   H27   S    
C5    H3    S    
C58   H11   S    
C59   H22   S    
Cr2   O5    S    
C19   C20   A    
C8    C9    A    
C31   H23   S    
Cr6   O11   S    
Cr5   O15   S    
C30   H20   S    
C43   C48   S    
Cr3   O22   S    
C45   O2    A    
C57   O13   A    
C3    C60   S    
C15   C23   S    
Cr1   O12   S    
C55   O16   A    
C34   O26   A    
C21   C22   S    
C28   H17   S    
C37   C41   A    
Cr5   O9    S    
C36   C41   A    
C2    C6    S    
C60   H36   S    
C42   C57   S    
C56   O4    A    
C42   C47   A    
C52   O10   A    
C58   H41   S    
C25   C29   A    
C48   H34   S    
C55   O17   A    
C34   C50   S    
C51   O8    A    
C31   H21   S    
C27   C31   S    
C22   H15   S    
Cr2   O26   S    
C28   C32   A    
C1    O20   A    
C29   H18   S    
C4    C6    S    
C39   C40   S    
Cr2   O20   S    
C16   C17   A    
C25   C26   A    
C38   H25   S    
C17   C21   S    
Cr5   O19   S    
Cr3   O3    S    
C35   C39   S    
C43   C44   A    
C41   C56   S    
C37   C38   A    
C4    C59   S    
C36   C40   S    
C16   C20   A    
C23   O1    A    
C21   H13   S    
C17   C18   A    
C6    H40   S    
Cr5   O16   S    
C30   H19   S    
Cr1   O24   S    
C10   H4    S    
C53   O6    A    
C48   C49   S    
C54   O15   A    
C13   H7    S    
C2    H38   S    
C26   C30   S    
Cr6   O18   S    
C4    C12   S    
C42   C43   A    
C40   H29   S    
Cr1   O5    S    
C22   H16   S    
C39   H26   S    
C52   O9    A    
C44   C50   A    
C33   C54   S    
C46   C47   A    
C28   C29   A    
Cr4   O7    S    
C5    C60   S    
C27   C32   A    
C18   C22   S    
C25   C55   S    
C40   H28   S    
C4    C5    S    
C47   H31   S    
C34   O25   A    
C3    C52   S    
C12   O22   A    
C13   H6    S    
C48   H32   S    
C46   C50   A    
C2    H39   S    
C33   C38   A    
Cr4   O14   S    
Cr6   O19   S    
C20   H12   S    
C14   H9    S    
Cr3   O4    S    
C2    C3    S    
C58   C59   S    
C7    C51   S    
C6    H1    S    
C57   O18   A    
C30   C31   S    
C21   H14   S    
C33   C35   A    
C19   C24   A    
C53   O11   A    
C1    O12   A    
Cr3   O23   S    
Cr3   O5    S    
Cr1   O1    S    
C10   C11   A    
Cr1   O25   S    
C3    C58   S    
C46   H30   S    
C60   H2    S    
C1    C24   S    
Cr4   O19   S    
Cr6   O17   S    
C13   C14   S    
C11   H5    S    
C56   O24   A    
C9    C15   A    
