data_mof_unit_27054.cif
_audit_creation_date              2012-12-11T14:56:29-0500
_audit_creation_method            fapswitch 2.2
_symmetry_space_group_name_H-M    P1
_symmetry_Int_Tables_number       1
_space_group_crystal_system       triclinic
_cell_length_a                    10.517224
_cell_length_b                    10.664638
_cell_length_c                    17.073593
_cell_angle_alpha                 80.295102
_cell_angle_beta                  89.659785
_cell_angle_gamma                 119.119702
_cell_volume                      1640.39675433

loop_
_atom_site_label
_atom_site_type_symbol
_atom_type_description
_atom_site_fract_x
_atom_site_fract_y
_atom_site_fract_z
_atom_type_partial_charge
C1    C     C_R   0.278815 0.888675 0.132705 0.558259
C2    C     C_R   0.795353 0.413545 0.264653 -0.148943
C3    C     C_R   0.787744 0.403605 0.185626 -0.136742
C4    C     C_R   0.651865 0.343550 0.155992 0.004102
C5    C     C_1   0.684957 0.831512 0.201720 -0.022228
C6    C     C_1   0.703606 0.807432 0.270397 -0.024903
C7    C     C_1   0.227637 0.854020 0.215446 -0.033918
C8    C     C_1   0.178994 0.834543 0.283072 -0.028535
C9    C     C_1   0.661824 0.357859 0.780460 -0.039354
C10   C     C_1   0.684296 0.401876 0.709901 -0.042957
C11   C     C_R   0.626939 0.713168 0.805194 -0.133468
C12   C     C_R   0.636583 0.281089 0.085786 0.539805
C13   C     C_R   0.613337 0.697682 0.726947 -0.119118
C14   C     C_R   0.670302 0.821873 0.665649 0.042176
C15   C     C_R   0.748256 0.962118 0.682797 -0.135671
C16   C     C_R   0.758750 0.977978 0.761728 -0.136141
C17   C     C_R   0.691676 0.853089 0.822976 0.018798
C18   C     C_R   0.085827 0.885076 0.789433 -0.141670
C19   C     C_R   0.070960 0.881428 0.709947 -0.145296
C20   C     C_R   0.118245 0.802025 0.671688 0.035699
C21   C     C_R   0.168391 0.714350 0.716146 0.066192
C22   C     C_R   0.183784 0.719399 0.796250 -0.104533
C23   C     C_R   0.643349 0.855690 0.124282 0.544744
C24   C     C_R   0.150618 0.811485 0.831452 0.002219
C25   C     C_R   0.711420 0.772683 0.353499 0.553643
C26   C     C_R   0.687961 0.394602 0.394989 0.565261
C27   C     C_R   0.108359 0.812519 0.359927 0.556465
C28   C     C_R   0.677545 0.799949 0.585573 0.550836
C29   C     C_R   0.717162 0.446188 0.625974 0.552872
C30   C     C_R   0.091922 0.798993 0.589013 0.565336
C31   C     C_R   0.216077 0.857950 0.902598 0.558407
C32   C     C_R   0.640306 0.290726 0.861879 0.549851
C33   C     C_R   0.647964 0.866856 0.899622 0.545731
C34   C     C_R   0.525721 0.310662 0.203179 -0.112502
C35   C     C_R   0.532625 0.322608 0.282799 0.062490
C36   C     C_R   0.667748 0.367785 0.314744 0.030938
Cr1   Cr    Cr6+3 0.402240 0.783890 0.019450 1.032992
Cr2   Cr    Cr6+3 0.382360 0.097900 0.991800 1.028969
Cr3   Cr    Cr6+3 0.715380 0.118170 0.988700 1.033088
Cr4   Cr    Cr6+3 0.936650 0.882420 0.465510 1.059050
Cr5   Cr    Cr6+3 0.605770 0.565620 0.493360 1.077828
Cr6   Cr    Cr6+3 0.921340 0.550490 0.496380 1.057873
H1    H     H_    0.419864 0.265570 0.180131 0.157094
H2    H     H_    0.023243 0.942662 0.678296 0.156560
H3    H     H_    0.232527 0.660157 0.828961 0.160398
H4    H     H_    0.902486 0.457859 0.286281 0.156211
H5    H     H_    0.886697 0.432788 0.149377 0.150862
H6    H     H_    0.576181 0.615858 0.851939 0.133926
H7    H     H_    0.559547 0.588170 0.714410 0.148440
H8    H     H_    0.798936 0.058289 0.635385 0.146852
H9    H     H_    0.809181 0.087259 0.774585 0.156846
H10   H     H_    0.056424 0.953752 0.816331 0.144709
O1    O     O_R   0.521780 0.757110 0.108900 -0.509085
O2    O     O_R   0.513330 0.228330 0.898660 -0.493714
O3    O     O_R   0.739230 0.266130 0.888050 -0.506513
O4    O     O_R   0.712580 0.991850 0.918770 -0.504113
O5    O     O_3   0.499990 0.999980 0.999980 -0.267863
O6    O     O_R   0.083770 0.911170 0.376030 -0.480055
O7    O     O_R   0.808770 0.880340 0.383890 -0.480405
O8    O     O_R   0.584340 0.689460 0.394160 -0.479005
O9    O     O_R   0.614320 0.443940 0.423590 -0.482302
O10   O     O_R   0.805020 0.410040 0.421340 -0.516900
O11   O     O_R   0.049240 0.685450 0.403290 -0.499303
O12   O     O_R   0.275160 0.783810 0.101120 -0.491387
O13   O     O_R   0.077520 0.903010 0.551800 -0.508675
O14   O     O_R   0.802980 0.872780 0.546830 -0.510366
O15   O     O_R   0.578090 0.681300 0.569920 -0.492069
O16   O     O_R   0.608530 0.436370 0.586530 -0.482998
O17   O     O_R   0.798770 0.401880 0.597100 -0.487051
O18   O     O_R   0.043450 0.677890 0.566230 -0.484923
O19   O     O_3   0.821250 0.666180 0.485090 -0.321490
O20   O     O_R   0.237900 0.972600 0.090980 -0.507985
O21   O     O_R   0.511190 0.220540 0.061620 -0.525125
O22   O     O_R   0.736920 0.257720 0.063840 -0.512606
O23   O     O_R   0.710450 0.984050 0.081720 -0.493742
O24   O     O_R   0.524090 0.765520 0.933110 -0.516812
O25   O     O_R   0.277300 0.791600 0.938160 -0.502918
O26   O     O_R   0.240210 0.981010 0.915190 -0.507850
I1    I     I_    0.233846 0.581381 0.667417 -0.343066
I2    I     I_    0.333514 0.262503 0.349726 -0.291225

loop_
_geom_bond_atom_site_label_1
_geom_bond_atom_site_label_2
_ccdc_geom_bond_type
Cr4   O19   S    
C12   O22   A    
C19   C20   A    
C16   H9    S    
Cr5   O9    S    
C18   H10   S    
C7    C8    T    
Cr5   O15   S    
Cr2   O20   S    
C20   C30   S    
C2    H4    S    
C18   C24   A    
C21   C22   A    
C26   O9    A    
C18   C19   A    
C5    C6    T    
Cr3   O22   S    
C6    C25   S    
C15   C16   A    
Cr2   O5    S    
C35   I2    S    
Cr6   O18   S    
C34   C35   A    
C15   H8    S    
C9    C32   S    
Cr3   O3    S    
C35   C36   A    
C16   C17   A    
C5    C23   S    
C31   O25   A    
C25   O8    A    
Cr3   O23   S    
C4    C12   S    
C9    C10   T    
Cr6   O10   S    
C32   O3    A    
Cr5   O19   S    
Cr1   O1    S    
C33   O4    A    
Cr4   O7    S    
Cr4   O14   S    
C13   C14   A    
C11   H6    S    
C17   C33   S    
C32   O2    A    
C30   O18   A    
C23   O1    A    
Cr5   O16   S    
C29   O17   A    
C4    C34   A    
C1    O20   A    
Cr4   O6    S    
C28   O15   A    
Cr2   O26   S    
Cr1   O25   S    
Cr6   O17   S    
C28   O14   A    
C29   O16   A    
C33   O24   A    
Cr3   O4    S    
Cr2   O2    S    
C21   I1    S    
C27   O11   A    
C13   H7    S    
C26   C36   S    
Cr1   O24   S    
Cr4   O13   S    
C22   C24   A    
C3    C4    A    
C1    O12   A    
Cr1   O12   S    
C19   H2    S    
C31   O26   A    
C2    C36   A    
C11   C17   A    
C1    C7    S    
C34   H1    S    
Cr5   O8    S    
C23   O23   A    
C27   O6    A    
C2    C3    A    
C26   O10   A    
C24   C31   S    
C11   C13   A    
C10   C29   S    
C3    H5    S    
Cr6   O19   S    
C30   O13   A    
C22   H3    S    
C20   C21   A    
C8    C27   S    
C14   C15   A    
C25   O7    A    
C14   C28   S    
C12   O21   A    
Cr6   O11   S    
Cr1   O5    S    
Cr2   O21   S    
Cr3   O5    S    
