data_mof_unit_45325.cif
_audit_creation_date              2012-12-10T20:49:46-0500
_audit_creation_method            fapswitch 2.2
_symmetry_space_group_name_H-M    P1
_symmetry_Int_Tables_number       1
_space_group_crystal_system       triclinic
_cell_length_a                    8.09674
_cell_length_b                    8.937576
_cell_length_c                    16.668382
_cell_angle_alpha                 89.990843
_cell_angle_beta                  85.361086
_cell_angle_gamma                 89.987521
_cell_volume                      1202.25990951

loop_
_atom_site_label
_atom_site_type_symbol
_atom_type_description
_atom_site_fract_x
_atom_site_fract_y
_atom_site_fract_z
_atom_type_partial_charge
C1    C     C_R   0.499994 0.782071 0.499965 0.942554
C2    C     C_R   0.412336 0.346889 0.234580 0.512264
C3    C     C_R   0.592780 0.450983 0.865874 -0.257863
C4    C     C_R   0.437381 0.284331 0.158011 -0.253249
C5    C     C_R   0.457728 0.365988 0.898438 0.135899
C6    C     C_R   0.578219 0.321491 0.107778 0.131507
C7    C     C_R   0.322506 0.340576 0.853408 -0.176454
C8    C     C_R   0.703276 0.408969 0.137057 -0.174452
C9    C     C_R   0.325950 0.391984 0.774746 -0.291521
C10   C     C_R   0.682932 0.467142 0.214513 -0.286890
C11   C     C_2   0.447424 0.319236 0.982632 -0.197373
C12   C     C_R   0.500010 0.217931 0.499984 0.943674
C13   C     C_2   0.583651 0.294021 0.021267 -0.203602
C14   C     C_3   0.879416 0.505246 0.751766 -0.271130
C15   C     C_3   0.133510 0.377163 0.258140 -0.273235
C16   C     C_1   0.499986 0.934841 0.499947 -0.183590
C17   C     C_1   0.500013 0.065179 0.499950 -0.177083
C18   C     C_R   0.477607 0.498737 0.654106 0.900718
C19   C     C_R   0.522334 0.491102 0.346269 0.891807
C20   C     C_R   0.464971 0.469431 0.740341 -0.136470
C21   C     C_R   0.536435 0.439642 0.262994 -0.143973
C22   C     C_R   0.599803 0.499678 0.786110 0.518655
H1    H     H_    0.215077 0.279618 0.878907 0.138506
H2    H     H_    0.925185 0.495388 0.812601 0.146891
H3    H     H_    0.975153 0.566440 0.713289 0.202099
H4    H     H_    0.101260 0.332345 0.199172 0.142521
H5    H     H_    0.150315 0.500771 0.254652 0.152082
H6    H     H_    0.026869 0.354818 0.302598 0.204010
H7    H     H_    0.812967 0.438213 0.098680 0.132572
H8    H     H_    0.344218 0.210304 0.136945 0.146020
H9    H     H_    0.690774 0.483491 0.902728 0.141767
H10   H     H_    0.780439 0.535565 0.236167 0.166491
H11   H     H_    0.222545 0.365919 0.739830 0.170092
H12   H     H_    0.704430 0.287497 0.987911 0.143893
H13   H     H_    0.326151 0.326741 0.015410 0.142009
H14   H     H_    0.866259 0.392413 0.724545 0.153523
N1    N     N_1   0.926360 0.500000 0.499990 -0.035714
N2    N     N_1   0.073640 0.500000 0.500010 -0.032167
O1    O     O_R   0.363150 0.714660 0.500000 -0.616213
O2    O     O_3   0.274792 0.305414 0.284388 -0.592781
O3    O     O_R   0.636850 0.285340 0.500000 -0.623124
O4    O     O_R   0.636850 0.714660 0.500000 -0.607950
O5    O     O_R   0.363150 0.285340 0.500000 -0.599611
O6    O     O_R   0.346950 0.500000 0.615800 -0.640919
O7    O     O_R   0.653050 0.500000 0.384200 -0.632861
O8    O     O_R   0.620700 0.500000 0.615800 -0.578075
O9    O     O_R   0.379300 0.500000 0.384200 -0.572544
O10   O     O_3   0.730281 0.587690 0.754387 -0.599780
Zn1   Zn    Zn3+2 0.317220 0.500000 0.500010 1.002673
Zn2   Zn    Zn3+2 0.682780 0.500000 0.499990 0.996395

loop_
_geom_bond_atom_site_label_1
_geom_bond_atom_site_label_2
_ccdc_geom_bond_type
C12   C17   S    
O6    Zn1   S    
C2    C4    A    
C19   O7    A    
C2    O2    S    
N1    N2    T    
C18   O6    A    
O8    Zn2   S    
C9    C20   A    
C15   H5    S    
C3    H9    S    
C3    C5    A    
C2    C21   A    
C11   H13   S    
C13   H12   S    
O9    Zn1   S    
C1    C16   S    
C14   H3    S    
C6    C13   S    
C9    H11   S    
N1    Zn2   S    
C11   C13   D    
C15   H6    S    
C12   O3    A    
O7    Zn2   S    
O4    Zn2   S    
C7    H1    S    
C8    H7    S    
C18   O8    A    
C4    C6    A    
O1    Zn1   S    
C20   C22   A    
C22   O10   S    
C5    C11   S    
C12   O5    A    
C7    C9    A    
C10   C21   A    
C14   H14   S    
C19   O9    A    
C15   O2    S    
C1    O1    A    
C10   H10   S    
C1    O4    A    
N2    Zn1   S    
C18   C20   S    
C8    C10   A    
C14   H2    S    
C5    C7    A    
O3    Zn2   S    
C14   O10   S    
O5    Zn1   S    
C15   H4    S    
C6    C8    A    
C19   C21   S    
C4    H8    S    
C16   C17   T    
C3    C22   A    
