data_mof_unit_9204.cif
_audit_creation_date              2012-12-10T18:05:42-0500
_audit_creation_method            fapswitch 2.2
_symmetry_space_group_name_H-M    P1
_symmetry_Int_Tables_number       1
_space_group_crystal_system       triclinic
_cell_length_a                    10.831328
_cell_length_b                    10.823315
_cell_length_c                    9.510852
_cell_angle_alpha                 90.173729
_cell_angle_beta                  90.080301
_cell_angle_gamma                 90.614395
_cell_volume                      1114.89512568

loop_
_atom_site_label
_atom_site_type_symbol
_atom_type_description
_atom_site_fract_x
_atom_site_fract_y
_atom_site_fract_z
_atom_type_partial_charge
C1    C     C_R   0.499866 0.262063 0.499838 0.782261
C2    C     C_R   0.500134 0.737937 0.500162 0.782265
C3    C     C_R   0.871642 0.494322 0.500828 -0.072564
C4    C     C_R   0.128358 0.505676 0.499172 -0.072564
C5    C     C_R   0.938295 0.446658 0.616034 0.006428
C6    C     C_R   0.061706 0.553340 0.383966 0.006428
C7    C     C_R   0.513740 0.063659 0.373088 -0.177700
C8    C     C_R   0.486259 0.936341 0.626912 -0.177698
C9    C     C_R   0.514120 0.935875 0.373326 -0.208640
C10   C     C_R   0.485879 0.064125 0.626673 -0.208643
C11   C     C_R   0.500210 0.871766 0.500197 -0.013094
C12   C     C_R   0.499789 0.128234 0.499802 -0.013094
C13   C     C_R   0.423091 0.421762 0.074465 0.541746
C14   C     C_R   0.576909 0.578238 0.925535 0.541753
C15   C     C_R   0.423669 0.422296 0.924666 -0.234404
C16   C     C_R   0.576331 0.577704 0.075333 -0.234398
C17   C     C_R   0.262265 0.503127 0.499722 0.793271
C18   C     C_R   0.737735 0.496872 0.500278 0.793268
C19   C     C_R   0.248218 0.781420 0.167222 -0.119945
C20   C     C_R   0.751761 0.218603 0.832795 -0.119936
C21   C     C_R   0.188316 0.725954 0.281322 -0.115485
C22   C     C_R   0.811668 0.274058 0.718690 -0.115462
C23   C     C_R   0.122066 0.614749 0.262686 0.130804
C24   C     C_R   0.877934 0.385257 0.737320 0.130802
C25   C     C_R   0.115723 0.560613 0.128493 -0.126191
C26   C     C_R   0.884289 0.439395 0.871511 -0.126203
C27   C     C_R   0.175739 0.616418 0.014697 -0.150795
C28   C     C_R   0.824270 0.383601 0.985312 -0.150790
C29   C     C_R   0.242270 0.726504 0.034125 -0.113923
C30   C     C_R   0.757720 0.273523 0.965890 -0.113923
C31   C     C_R   0.933764 0.545846 0.385726 -0.249701
C32   C     C_R   0.066236 0.454151 0.614274 -0.249703
Cu1   Cu    Cu3+1 0.500000 0.500020 0.640660 0.988770
Cu2   Cu    Cu3+1 0.500000 0.499980 0.359340 0.988772
H1    H     H_    0.289345 0.769116 0.946112 0.123729
H2    H     H_    0.710642 0.230919 0.053906 0.123732
H3    H     H_    0.362869 0.360730 0.866527 0.134887
H4    H     H_    0.637131 0.639270 0.133472 0.134886
H5    H     H_    0.299420 0.866861 0.182000 0.126664
H6    H     H_    0.700544 0.133167 0.818021 0.126655
H7    H     H_    0.194352 0.768844 0.384192 0.104319
H8    H     H_    0.805623 0.231166 0.615822 0.104312
H9    H     H_    0.066491 0.474098 0.112874 0.125814
H10   H     H_    0.933532 0.525906 0.887124 0.125813
H11   H     H_    0.171714 0.573710 0.911724 0.132779
H12   H     H_    0.828304 0.426313 0.088282 0.132778
H13   H     H_    0.882380 0.584309 0.298491 0.146146
H14   H     H_    0.117621 0.415692 0.701511 0.146147
H15   H     H_    0.524946 0.111606 0.274013 0.155837
H16   H     H_    0.475053 0.888394 0.725986 0.155837
H17   H     H_    0.525779 0.887546 0.274397 0.145613
H18   H     H_    0.474220 0.112454 0.725602 0.145610
N1    N     N_R   0.500030 0.500030 0.852070 -0.173577
N2    N     N_R   0.499970 0.499970 0.147930 -0.173577
O1    O     O_R   0.499990 0.319660 0.618740 -0.594246
O2    O     O_R   0.500010 0.680340 0.381260 -0.594243
O3    O     O_R   0.499990 0.319630 0.381170 -0.543539
O4    O     O_R   0.500010 0.680370 0.618830 -0.543539
O5    O     O_R   0.319650 0.500020 0.618780 -0.604069
O6    O     O_R   0.680350 0.499980 0.381220 -0.604068
O7    O     O_R   0.319640 0.500000 0.381210 -0.517929
O8    O     O_R   0.680360 0.500000 0.618790 -0.517930
O9    O     O_3   0.345614 0.343616 0.148049 -0.705405
H19   H     H_    0.295552 0.294397 0.080343 0.282126
O10   O     O_3   0.654386 0.656383 0.851951 -0.705403
H20   H     H_    0.704449 0.705602 0.919656 0.282128

loop_
_geom_bond_atom_site_label_1
_geom_bond_atom_site_label_2
_ccdc_geom_bond_type
Cu1   O1    S    
Cu2   O3    S    
C3    C31   A    
C16   H4    S    
C2    O4    A    
Cu2   O2    S    
Cu1   O4    S    
C14   C16   A    
C1    O3    A    
C27   C29   A    
C32   H14   S    
C29   H1    S    
C26   C28   A    
C13   O9    S    
C13   C15   A    
C30   H2    S    
C5    C32   A    
C10   H18   S    
C27   H11   S    
C28   C30   A    
C6    C31   A    
C1    O1    A    
C26   H10   S    
Cu1   O5    S    
C31   H13   S    
C23   C25   A    
Cu2   O6    S    
C9    C11   A    
C28   H12   S    
C22   H8    S    
C1    C12   S    
C19   H5    S    
C17   O5    A    
C8    C11   A    
C21   H7    S    
C2    C11   S    
C15   N1    A    
C18   O6    A    
C25   H9    S    
C19   C21   A    
C14   O10   S    
C20   C22   A    
Cu2   N2    S    
C22   C24   A    
C21   C23   A    
Cu1   N1    S    
C7    C12   A    
C10   C12   A    
C16   N2    A    
C4    C6    A    
C25   C27   A    
O10   H20   S    
C4    C17   S    
O9    H19   S    
C19   C29   A    
C8    H16   S    
C14   N1    A    
Cu1   Cu2   S    
C18   O8    A    
C7    H15   S    
C3    C18   S    
C8    C10   A    
C13   N2    A    
Cu2   O7    S    
C4    C32   A    
C7    C9    A    
C5    C24   S    
C20   C30   A    
C17   O7    A    
C6    C23   S    
C20   H6    S    
C2    O2    A    
C15   H3    S    
C24   C26   A    
Cu1   O8    S    
C3    C5    A    
C9    H17   S    
