data_mof_unit_18418.cif
_audit_creation_date              2012-12-10T17:59:15-0500
_audit_creation_method            fapswitch 2.2
_symmetry_space_group_name_H-M    P1
_symmetry_Int_Tables_number       1
_space_group_crystal_system       triclinic
_cell_length_a                    10.801255
_cell_length_b                    9.588364
_cell_length_c                    10.876095
_cell_angle_alpha                 89.161659
_cell_angle_beta                  92.326477
_cell_angle_gamma                 89.455954
_cell_volume                      1125.29132165

loop_
_atom_site_label
_atom_site_type_symbol
_atom_type_description
_atom_site_fract_x
_atom_site_fract_y
_atom_site_fract_z
_atom_type_partial_charge
C1    C     C_R   0.262411 0.500120 0.503804 0.811341
C2    C     C_3   0.642018 0.479177 0.932544 0.186064
C3    C     C_R   0.063946 0.375772 0.485843 -0.119603
C4    C     C_R   0.064413 0.618865 0.544968 -0.106310
C5    C     C_R   0.936091 0.375489 0.485185 -0.125784
C6    C     C_R   0.936153 0.619115 0.543429 -0.115257
C7    C     C_R   0.871691 0.498060 0.511041 -0.015642
C8    C     C_R   0.128593 0.498782 0.511296 -0.018704
C9    C     C_R   0.411059 0.077056 0.434957 0.054424
C10   C     C_R   0.405338 0.929688 0.443049 0.034828
C11   C     C_R   0.593059 0.923744 0.559497 -0.014106
C12   C     C_R   0.591440 0.072008 0.561935 -0.013208
C13   C     C_R   0.498638 0.501082 0.259784 0.832191
C14   C     C_R   0.737668 0.499394 0.504250 0.845304
C15   C     C_R   0.503332 0.499050 0.739426 0.827471
C16   C     C_3   0.469480 0.651332 0.063011 -0.257647
C17   C     C_3   0.405154 0.394411 0.067769 -0.259130
C18   C     C_3   0.451293 0.640777 0.921005 -0.240498
C19   C     C_3   0.424605 0.374803 0.927793 -0.255947
C20   C     C_3   0.636443 0.460067 0.079234 0.202952
C21   C     C_3   0.501395 0.502487 0.121122 -0.110224
C22   C     C_3   0.504752 0.497786 0.876928 -0.098871
Cu1   Cu    Cu3+1 0.500020 0.640660 0.500000 0.989898
Cu2   Cu    Cu3+1 0.500020 0.359340 0.500000 0.996004
H1    H     H_    0.550035 0.719958 0.082688 0.184768
H2    H     H_    0.421044 0.290899 0.112937 0.182206
H3    H     H_    0.667603 0.866917 0.607745 0.147583
H4    H     H_    0.664820 0.125555 0.611849 0.156188
H5    H     H_    0.502887 0.729382 0.881808 0.177756
H6    H     H_    0.478899 0.276679 0.918516 0.181491
H7    H     H_    0.111512 0.279935 0.465057 0.168982
H8    H     H_    0.113010 0.712291 0.572355 0.167437
H9    H     H_    0.887880 0.280218 0.462059 0.170119
H10   H     H_    0.887661 0.713665 0.567473 0.158572
N1    N     N_R   0.500030 0.852070 0.500030 -0.188448
N2    N     N_R   0.500030 0.147930 0.500030 -0.187583
O1    O     O_R   0.319660 0.618740 0.499990 -0.588205
O2    O     O_R   0.319660 0.381260 0.499990 -0.590647
O3    O     O_R   0.499990 0.618790 0.317690 -0.572399
O4    O     O_R   0.499990 0.381210 0.317690 -0.566470
O5    O     O_R   0.680370 0.618830 0.500010 -0.582254
O6    O     O_R   0.680370 0.381170 0.500010 -0.578443
O7    O     O_R   0.500030 0.618780 0.682310 -0.588455
O8    O     O_R   0.500030 0.381220 0.682310 -0.574530
C23   C     C_1   0.363264 0.726038 0.113330 0.301357
N3    N     N_1   0.277711 0.786267 0.145373 -0.221586
C24   C     C_1   0.276048 0.433276 0.096047 0.323819
N4    N     N_1   0.175288 0.463193 0.117952 -0.184020
C25   C     C_1   0.321559 0.664037 0.872102 0.306609
N5    N     N_1   0.221031 0.682538 0.833984 -0.244412
C26   C     C_1   0.307400 0.349841 0.855440 0.303204
N6    N     N_1   0.216223 0.330070 0.799055 -0.237511
I1    I     I_    0.779049 0.576324 0.181006 -0.230549
I2    I     I_    0.685021 0.248390 0.146464 -0.275602
I3    I     I_    0.754515 0.654038 0.870157 -0.304932
I4    I     I_    0.743042 0.312506 0.843114 -0.280199
C27   C     C_1   0.323365 0.151183 0.353924 0.282930
N7    N     N_1   0.252059 0.207357 0.287795 -0.290186
C28   C     C_1   0.289732 0.868287 0.403170 0.291872
N8    N     N_1   0.193746 0.825202 0.372654 -0.248010

loop_
_geom_bond_atom_site_label_1
_geom_bond_atom_site_label_2
_ccdc_geom_bond_type
C16   C23   S    
C2    C22   S    
C9    N2    A    
Cu2   O2    S    
C11   C12   A    
C4    C8    A    
C16   C21   S    
C11   H3    S    
C12   N2    A    
C1    C8    S    
Cu2   O6    S    
C9    C10   A    
Cu1   N1    S    
C24   N4    T    
Cu1   O5    S    
C14   O6    A    
Cu1   Cu2   S    
C6    H10   S    
C11   N1    A    
C10   C28   S    
C13   C21   S    
C28   N8    T    
C18   H5    S    
Cu2   N2    S    
C23   N3    T    
C3    H7    S    
C27   N7    T    
C6    C7    A    
C1    O2    A    
C12   H4    S    
C14   O5    A    
Cu1   O3    S    
C17   H2    S    
C20   I2    S    
C17   C19   S    
Cu1   O1    S    
C15   O8    A    
C3    C8    A    
C9    C27   S    
C2    I3    S    
C7    C14   S    
Cu2   O8    S    
C10   N1    A    
C13   O3    A    
C4    C6    A    
C4    H8    S    
C2    C20   S    
C26   N6    T    
C19   C26   S    
C19   C22   S    
Cu1   O7    S    
C20   C21   S    
C15   O7    A    
C16   C18   S    
C25   N5    T    
C16   H1    S    
C5    C7    A    
C20   I1    S    
C13   O4    A    
C2    I4    S    
Cu2   O4    S    
C18   C22   S    
C19   H6    S    
C15   C22   S    
C17   C21   S    
C17   C24   S    
C18   C25   S    
C1    O1    A    
C3    C5    A    
C5    H9    S    
