data_mof_unit_57901.cif
_audit_creation_date              2013-03-05T16:47:34-0500
_audit_creation_method            fapswitch 2.2
_symmetry_space_group_name_H-M    P1
_symmetry_Int_Tables_number       1
_space_group_crystal_system       triclinic
_cell_length_a                    15.775846
_cell_length_b                    8.924637
_cell_length_c                    8.197336
_cell_angle_alpha                 90.00018
_cell_angle_beta                  91.409276
_cell_angle_gamma                 89.999983
_cell_volume                      1153.78415585

loop_
_atom_site_label
_atom_site_type_symbol
_atom_site_description
_atom_site_fract_x
_atom_site_fract_y
_atom_site_fract_z
_atom_type_partial_charge
O1    O     O_R   0.500000 0.285340 0.636850 -0.612583
O2    O     O_R   0.500000 0.285340 0.363150 -0.612585
H1    H     H_    0.080974 0.734612 0.576882 0.215054
H2    H     H_    0.060722 0.713206 0.365284 0.251375
H3    H     H_    0.939284 0.713271 0.634579 0.251372
H4    H     H_    0.919030 0.734586 0.422978 0.215072
C1    C     C_R   0.500000 0.218360 0.500000 0.920601
O3    O     O_R   0.377140 0.500000 0.636930 -0.595530
O4    O     O_R   0.377140 0.500000 0.363070 -0.601652
O5    O     O_R   0.622860 0.500000 0.636930 -0.601645
O6    O     O_R   0.622860 0.500000 0.363070 -0.595523
C2    C     C_R   0.338125 0.499991 0.497946 0.879006
C3    C     C_R   0.661875 0.499995 0.502054 0.879022
Zn1   Zn    Zn3+2 0.500000 0.499990 0.682780 1.045417
Zn2   Zn    Zn3+2 0.500000 0.499990 0.317220 1.045414
C4    C     C_1   0.500000 0.934696 0.500000 -0.159518
O7    O     O_R   0.500000 0.714650 0.636900 -0.612078
O8    O     O_R   0.500000 0.714650 0.363100 -0.612079
C5    C     C_1   0.500000 0.065279 0.500000 -0.159890
C6    C     C_R   0.500000 0.781615 0.500000 0.922278
C7    C     C_3   0.054978 0.424065 0.655904 0.047133
C8    C     C_3   0.043576 0.403720 0.349446 0.041707
C9    C     C_3   0.956423 0.403770 0.650552 0.041765
C10   C     C_3   0.945018 0.424009 0.344095 0.047181
H5    H     H_    0.943638 0.284002 0.619511 0.076314
H6    H     H_    0.916945 0.309382 0.336520 0.109421
H7    H     H_    0.083052 0.309440 0.663523 0.109420
H8    H     H_    0.056376 0.283963 0.380508 0.076237
N1    N     N_1   0.500000 0.500030 0.073640 -0.006976
N2    N     N_1   0.500000 0.500030 0.926360 -0.006975
C11   C     C_1   0.750565 0.499605 0.507335 -0.075264
C12   C     C_1   0.249435 0.499596 0.492661 -0.075273
C13   C     C_3   0.082795 0.498593 0.493316 -0.022235
C14   C     C_3   0.917204 0.498598 0.506651 -0.022275
C15   C     C_3   0.951843 0.661666 0.514508 -0.346631
C16   C     C_3   0.048159 0.661658 0.485384 -0.346634
C17   C     C_1   0.825727 0.499159 0.509942 0.074549
C18   C     C_1   0.174272 0.499147 0.490044 0.074548
N3    N     N_R   0.082016 0.428683 0.190812 0.289670
O9    O     O_R   0.081627 0.319425 0.085784 -0.308907
O10   O     O_R   0.126821 0.547848 0.162226 -0.298084
N4    N     N_R   0.088211 0.508271 0.797863 0.291190
O11   O     O_R   0.166095 0.484067 0.847001 -0.316905
O12   O     O_R   0.049802 0.627160 0.850630 -0.285872
N5    N     N_R   0.911786 0.508174 0.202105 0.291191
O13   O     O_R   0.833898 0.483977 0.152985 -0.316865
O14   O     O_R   0.950202 0.627041 0.149299 -0.285847
N6    N     N_R   0.917962 0.428760 0.809164 0.289790
O15   O     O_R   0.918022 0.319304 0.913943 -0.308926
O16   O     O_R   0.873286 0.548072 0.837776 -0.297973

loop_
_geom_bond_atom_site_label_1
_geom_bond_atom_site_label_2
_geom_bond_distance
_ccdc_geom_bond_type
Zn2   O8    1.952329 S    
H2    C16   1.108951 S    
N1    N2    1.207303 T    
O1    Zn1   1.952321 S    
C12   C18   1.185424 T    
C14   C17   1.444048 S    
O8    C6    1.271430 A    
C13   C18   1.444054 S    
O3    C2    1.281545 A    
C4    C6    1.366192 S    
C9    C14   1.566718 S    
O7    C6    1.271432 A    
N6    O16   1.301440 A    
O4    Zn2   1.983379 S    
N3    O10   1.301430 A    
C8    H8    1.115972 S    
N5    O13   1.301628 A    
C2    C12   1.398763 S    
O2    Zn2   1.952323 S    
O6    C3    1.281543 A    
Zn1   O7    1.952331 S    
N4    O12   1.301135 A    
H1    C16   1.111464 S    
Zn1   N2    1.996707 S    
C4    C5    1.165406 T    
C8    N3    1.465318 S    
H3    C15   1.108939 S    
N6    O15   1.300738 A    
C10   H6    1.115874 S    
Zn2   N1    1.996707 S    
C1    C5    1.366191 S    
C9    H5    1.115985 S    
C7    C9    1.564849 S    
C7    H7    1.115877 S    
O4    C2    1.278561 A    
C8    C10   1.564881 S    
C7    C13   1.562076 S    
N4    O11   1.301627 A    
C10   N5    1.470988 S    
C7    N4    1.470982 S    
C11   C17   1.185423 T    
C13   C16   1.555286 S    
H4    C15   1.111462 S    
C14   C15   1.555314 S    
O5    Zn1   1.983377 S    
N5    O14   1.301139 A    
N3    O9    1.300690 A    
C8    C13   1.566753 S    
O3    Zn1   1.965230 S    
C9    N6    1.465337 S    
O2    C1    1.271134 A    
O1    C1    1.271133 A    
O6    Zn2   1.965228 S    
C3    C11   1.398763 S    
C10   C14   1.562066 S    
C15   C16   1.543897 S    
O5    C3    1.278562 A    
