data_mof_unit_26551.cif
_audit_creation_date              2012-12-11T16:27:34-0500
_audit_creation_method            fapswitch 2.2
_symmetry_space_group_name_H-M    P1
_symmetry_Int_Tables_number       1
_space_group_crystal_system       triclinic
_cell_length_a                    21.64604
_cell_length_b                    6.913511
_cell_length_c                    14.771979
_cell_angle_alpha                 89.996408
_cell_angle_beta                  105.322453
_cell_angle_gamma                 90.000189
_cell_volume                      2132.04951361

loop_
_atom_site_label
_atom_site_type_symbol
_atom_type_description
_atom_site_fract_x
_atom_site_fract_y
_atom_site_fract_z
_atom_type_partial_charge
O1    O     O_R   0.835850 0.638310 0.002120 -0.537364
O2    O     O_R   0.164150 0.361690 0.997880 -0.537364
O3    O     O_R   0.664150 0.138310 0.997880 -0.537363
O4    O     O_R   0.335850 0.861690 0.002120 -0.537363
O5    O     O_R   0.717530 0.306070 0.861970 -0.539250
O6    O     O_R   0.282470 0.693930 0.138030 -0.539250
O7    O     O_R   0.782470 0.806070 0.138030 -0.539244
O8    O     O_R   0.217530 0.193930 0.861970 -0.539244
C1    C     C_R   0.704734 0.477043 0.824577 0.686226
C2    C     C_R   0.295265 0.522957 0.175423 0.686226
C3    C     C_R   0.795263 0.977028 0.175425 0.686223
C4    C     C_R   0.204737 0.022971 0.824575 0.686223
O9    O     O_R   0.838690 0.308440 0.993250 -0.540435
O10   O     O_R   0.161310 0.691560 0.006750 -0.540435
O11   O     O_R   0.661310 0.808440 0.006750 -0.540437
O12   O     O_R   0.338690 0.191560 0.993250 -0.540438
O13   O     O_R   0.786170 0.140510 0.130090 -0.538379
O14   O     O_R   0.213830 0.859490 0.869910 -0.538379
O15   O     O_R   0.713830 0.640510 0.869910 -0.538365
O16   O     O_R   0.286170 0.359490 0.130090 -0.538366
C5    C     C_R   0.865167 0.477295 0.997354 0.694664
C6    C     C_R   0.134832 0.522705 0.002646 0.694664
C7    C     C_R   0.634834 0.977293 0.002654 0.694665
C8    C     C_R   0.365166 0.022707 0.997346 0.694666
O17   O     O_3   0.732630 0.472520 0.044740 -0.368090
O18   O     O_3   0.267370 0.527480 0.955260 -0.368090
O19   O     O_3   0.767370 0.972520 0.955260 -0.368084
O20   O     O_3   0.232630 0.027480 0.044740 -0.368084
V1    V     V_3+5 0.753220 0.196740 0.991700 1.446372
V2    V     V_3+5 0.246780 0.803260 0.008300 1.446372
V3    V     V_3+5 0.746780 0.696740 0.008300 1.446384
V4    V     V_3+5 0.253220 0.303260 0.991700 1.446384
H1    H     H_    0.611681 0.965460 0.324418 0.147405
H2    H     H_    0.388319 0.034541 0.675581 0.147405
H3    H     H_    0.888318 0.465171 0.675593 0.147408
H4    H     H_    0.111682 0.534828 0.324407 0.147408
C9    C     C_R   0.535467 0.997884 0.828755 -0.203189
C10   C     C_R   0.464533 0.002116 0.171245 -0.203189
C11   C     C_R   0.964534 0.498102 0.171246 -0.203203
C12   C     C_R   0.035466 0.501898 0.828754 -0.203203
C13   C     C_R   0.488856 0.009773 0.743444 0.305244
C14   C     C_R   0.511144 0.990227 0.256556 0.305245
C15   C     C_R   0.011145 0.510084 0.256551 0.305240
C16   C     C_R   0.988855 0.489916 0.743448 0.305240
C17   C     C_R   0.424488 0.024833 0.741918 -0.159822
C18   C     C_R   0.575512 0.975167 0.258082 -0.159821
C19   C     C_R   0.075513 0.525063 0.258073 -0.159819
C20   C     C_R   0.924487 0.474936 0.741927 -0.159819
C21   C     C_R   0.406358 0.026676 0.825765 -0.203619
C22   C     C_R   0.593642 0.973325 0.174235 -0.203618
C23   C     C_R   0.093643 0.526786 0.174226 -0.203623
C24   C     C_R   0.906357 0.473213 0.825774 -0.203623
C25   C     C_R   0.452554 0.013583 0.913323 0.076327
C26   C     C_R   0.547446 0.986417 0.086677 0.076327
C27   C     C_R   0.047447 0.513645 0.086672 0.076336
C28   C     C_R   0.952553 0.486354 0.913328 0.076336
C29   C     C_R   0.518484 0.999844 0.914861 0.018119
C30   C     C_R   0.481516 0.000157 0.085139 0.018119
C31   C     C_R   0.981517 0.499933 0.085139 0.018115
C32   C     C_R   0.018483 0.500067 0.914861 0.018115
C33   C     C_R   0.434018 0.013071 0.998475 -0.150447
C34   C     C_R   0.565982 0.986929 0.001525 -0.150447
C35   C     C_R   0.065981 0.513058 0.001521 -0.150449
C36   C     C_R   0.934019 0.486942 0.998479 -0.150449
H5    H     H_    0.584906 0.986111 0.826557 0.138761
H6    H     H_    0.415094 0.013889 0.173443 0.138761
H7    H     H_    0.915095 0.486380 0.173449 0.138757
H8    H     H_    0.084905 0.513620 0.826551 0.138757
H9    H     H_    0.355874 0.038163 0.821461 0.101229
H10   H     H_    0.644126 0.961838 0.178539 0.101229
H11   H     H_    0.144127 0.538241 0.178528 0.101248
H12   H     H_    0.855872 0.461758 0.821472 0.101249
C37   C     C_R   0.176477 0.014972 0.722993 -0.035306
C38   C     C_R   0.823523 0.985028 0.277007 -0.035308
C39   C     C_R   0.323526 0.514886 0.277002 -0.035283
C40   C     C_R   0.676475 0.485115 0.722998 -0.035280
C41   C     C_R   0.188516 0.017886 0.565185 -0.152468
C42   C     C_R   0.811485 0.982095 0.434814 -0.152458
C43   C     C_R   0.311471 0.516737 0.434803 -0.152491
C44   C     C_R   0.688530 0.483288 0.565196 -0.152502
C45   C     C_R   0.215618 0.020958 0.661683 -0.169082
C46   C     C_R   0.784382 0.979024 0.338317 -0.169086
C47   C     C_R   0.284375 0.520162 0.338307 -0.169113
C48   C     C_R   0.715626 0.479862 0.661694 -0.169109
C49   C     C_R   0.109832 0.006390 0.687604 -0.152404
C50   C     C_R   0.890168 0.993620 0.312396 -0.152398
C51   C     C_R   0.390176 0.506678 0.312391 -0.152408
C52   C     C_R   0.609824 0.493309 0.687610 -0.152414
C53   C     C_R   0.080771 0.005162 0.589533 0.133410
C54   C     C_R   0.919230 0.994840 0.410467 0.133409
C55   C     C_R   0.419231 0.505104 0.410463 0.133423
C56   C     C_R   0.580770 0.494893 0.589537 0.133424
C57   C     C_R   0.121751 0.010656 0.528701 0.143895
C58   C     C_R   0.878249 0.989334 0.471299 0.143891
C59   C     C_R   0.378240 0.509836 0.471289 0.143905
C60   C     C_R   0.621760 0.490177 0.528711 0.143909
C61   C     C_R   0.012800 0.999931 0.549955 0.122420
C62   C     C_R   0.987200 0.000070 0.450045 0.122420
C63   C     C_R   0.487206 0.500181 0.450043 0.122430
C64   C     C_R   0.512795 0.499818 0.549957 0.122430
C65   C     C_R   0.030397 0.004793 0.393088 -0.092404
C66   C     C_R   0.969604 0.995201 0.606912 -0.092405
C67   C     C_R   0.469590 0.503765 0.606906 -0.092402
C68   C     C_R   0.530411 0.496242 0.393094 -0.092401
C69   C     C_R   0.096089 0.009879 0.431817 -0.172983
C70   C     C_R   0.903912 0.990109 0.568182 -0.172978
C71   C     C_R   0.403895 0.508580 0.568173 -0.173025
C72   C     C_R   0.596106 0.491436 0.431826 -0.173032
H13   H     H_    0.127217 0.013803 0.385115 0.119422
H14   H     H_    0.872783 0.986176 0.614885 0.119420
H15   H     H_    0.372760 0.511881 0.614874 0.119401
H16   H     H_    0.627241 0.488146 0.385127 0.119404
H17   H     H_    0.917531 0.997167 0.261221 0.097029
H18   H     H_    0.082469 0.002860 0.738778 0.097031
H19   H     H_    0.582456 0.496347 0.738780 0.097027
H20   H     H_    0.417544 0.503618 0.261219 0.097025
H21   H     H_    0.732879 0.971707 0.311628 0.099069
H22   H     H_    0.267122 0.028266 0.688372 0.099068
H23   H     H_    0.767136 0.472908 0.688384 0.099072
H24   H     H_    0.232865 0.527128 0.311616 0.099073
H25   H     H_    0.219865 0.022397 0.518853 0.120007
H26   H     H_    0.780135 0.977572 0.481148 0.120003
H27   H     H_    0.280114 0.520662 0.481132 0.120017
H28   H     H_    0.719886 0.479379 0.518869 0.120021
H29   H     H_    0.015200 0.004927 0.317620 0.124944
H30   H     H_    0.984801 0.995061 0.682380 0.124945
H31   H     H_    0.484779 0.503447 0.682375 0.124942
H32   H     H_    0.515222 0.496568 0.317624 0.124941
Br1   Br    Br    0.513736 0.003873 0.628869 -0.559280
Br2   Br    Br    0.486264 0.996129 0.371131 -0.559280
Br3   Br    Br    0.986264 0.504469 0.371130 -0.559306
Br4   Br    Br    0.013736 0.495530 0.628870 -0.559307

loop_
_geom_bond_atom_site_label_1
_geom_bond_atom_site_label_2
_ccdc_geom_bond_type
O17   V3    S    
C43   C47   A    
O1    C5    A    
C8    C33   S    
C12   C32   A    
C27   C31   A    
O19   V1    S    
O13   V1    S    
O3    C7    A    
C56   C60   A    
C44   C48   A    
O15   V3    S    
C40   C48   A    
C61   C62   A    
C29   C34   A    
O7    C3    A    
C31   C36   A    
C22   C26   A    
C50   H17   S    
O9    V1    S    
C49   H18   S    
O10   V2    S    
C10   C14   A    
C51   C55   A    
C9    C13   A    
C44   H28   S    
O4    C8    A    
O1    V3    S    
H4    C19   S    
O2    V4    S    
C14   C18   A    
O3    V1    S    
C5    C36   S    
C57   C69   A    
C6    C35   S    
C10   C30   A    
C25   C33   A    
C1    O15   A    
C7    C34   S    
C58   C70   A    
C10   H6    S    
C2    O16   A    
C9    H5    S    
O2    C6    A    
C65   H29   S    
C28   C36   A    
O14   V2    S    
C1    C40   S    
C17   C21   A    
C44   C60   A    
C67   H31   S    
C40   C52   A    
C12   C16   A    
C61   C66   A    
C71   H15   S    
C30   C33   A    
O11   C7    A    
C63   C68   A    
C60   C72   A    
O12   C8    A    
C21   H9    S    
C4    C37   S    
O17   V1    S    
H1    C18   S    
C27   C35   A    
C23   H11   S    
C38   C46   A    
H3    C20   S    
C37   C45   A    
C54   C58   A    
O5    V1    S    
C65   C69   A    
O7    V3    S    
O19   V3    S    
O8    V4    S    
C52   C56   A    
O20   V4    S    
C50   C54   A    
C25   C29   A    
O18   V4    S    
C19   C23   A    
C26   C34   A    
C43   H27   S    
C45   H22   S    
C64   C67   A    
C72   H16   S    
C53   C61   A    
C47   H24   S    
C43   C59   A    
C24   H12   S    
C2    C39   S    
C42   C46   A    
C63   C64   A    
C68   H32   S    
C41   C45   A    
O8    C4    A    
C11   C31   A    
C26   C30   A    
O9    C5    A    
C14   Br2   S    
H2    C17   S    
C38   C50   A    
C37   C49   A    
C51   H20   S    
C59   C71   A    
C39   C51   A    
O6    V2    S    
O18   V2    S    
C32   C35   A    
C16   Br4   S    
C68   C72   A    
C56   C64   A    
O16   V4    S    
C69   H13   S    
C3    O13   A    
C49   C53   A    
C11   H7    S    
O5    C1    A    
C66   H30   S    
C3    C38   S    
O6    C2    A    
C11   C15   A    
O11   V3    S    
O12   V4    S    
C62   C65   A    
C18   C22   A    
O10   C6    A    
C52   H19   S    
C15   Br3   S    
C22   H10   S    
O20   V2    S    
C16   C20   A    
C13   Br1   S    
C39   C47   A    
C42   C58   A    
C48   H23   S    
C21   C25   A    
C41   C57   A    
C66   C70   A    
C23   C27   A    
C53   C57   A    
C42   H26   S    
O4    V2    S    
C41   H25   S    
C55   C59   A    
C28   C32   A    
C20   C24   A    
C70   H14   S    
C12   H8    S    
C4    O14   A    
C13   C17   A    
C67   C71   A    
C46   H21   S    
C55   C63   A    
C15   C19   A    
C54   C62   A    
C9    C29   A    
C24   C28   A    
