data_mof_unit_23297.cif
_audit_creation_date              2012-12-10T20:52:58-0500
_audit_creation_method            fapswitch 2.2
_symmetry_space_group_name_H-M    P1
_symmetry_Int_Tables_number       1
_space_group_crystal_system       triclinic
_cell_length_a                    18.287756
_cell_length_b                    18.248725
_cell_length_c                    18.275905
_cell_angle_alpha                 60.501594
_cell_angle_beta                  60.394688
_cell_angle_gamma                 60.395976
_cell_volume                      4354.76916887

loop_
_atom_site_label
_atom_site_type_symbol
_atom_type_description
_atom_site_fract_x
_atom_site_fract_y
_atom_site_fract_z
_atom_type_partial_charge
C1    C     C_R   0.389640 0.109602 0.110646 0.907463
C2    C     C_R   0.379574 0.806380 0.781643 -0.155967
C3    C     C_R   0.968435 0.593226 0.982059 -0.157028
C4    C     C_R   0.450706 0.962629 0.090796 -0.138317
C5    C     C_R   0.549292 0.037371 0.909204 -0.138332
C6    C     C_R   0.964359 0.929825 0.555859 -0.072607
C7    C     C_R   0.035649 0.070165 0.444141 -0.072607
C8    C     C_R   0.929615 0.555067 0.964613 -0.064380
C9    C     C_R   0.070385 0.444933 0.035387 -0.064380
C10   C     C_R   0.554430 0.946776 0.945131 -0.046002
C11   C     C_R   0.445569 0.053225 0.054869 -0.045996
C12   C     C_1   0.233688 0.521025 0.343514 0.131147
C13   C     C_R   0.191924 0.218562 0.619048 -0.140601
C14   C     C_1   0.766308 0.478976 0.656500 0.131141
C15   C     C_1   0.529024 0.343640 0.229196 0.130611
C16   C     C_1   0.470990 0.656343 0.770783 0.130619
C17   C     C_1   0.340630 0.231381 0.524898 0.134477
C18   C     C_1   0.659368 0.768615 0.475107 0.134476
C19   C     C_R   0.808074 0.781433 0.380955 -0.140600
C20   C     C_R   0.181380 0.575210 0.284735 0.055953
C21   C     C_R   0.818623 0.424788 0.715272 0.055965
C22   C     C_R   0.578718 0.283986 0.177711 0.053735
C23   C     C_R   0.421287 0.716002 0.822267 0.053705
C24   C     C_R   0.282375 0.178469 0.576954 0.055816
C25   C     C_R   0.717624 0.821526 0.423049 0.055813
C26   C     C_R   0.090387 0.584999 0.315938 0.091017
C27   C     C_R   0.610359 0.890398 0.889353 0.907462
C28   C     C_R   0.909617 0.415000 0.684063 0.091019
C29   C     C_R   0.585221 0.314950 0.087772 0.090570
C30   C     C_R   0.414782 0.685047 0.912210 0.090576
C31   C     C_R   0.314850 0.087507 0.585535 0.088784
C32   C     C_R   0.685149 0.912490 0.414467 0.088778
C33   C     C_R   0.041662 0.638788 0.256765 -0.156191
C34   C     C_R   0.958347 0.361209 0.743231 -0.156201
C35   C     C_R   0.633677 0.254742 0.040063 -0.167106
C36   C     C_R   0.366325 0.745262 0.959916 -0.167077
C37   C     C_R   0.256172 0.038178 0.636876 -0.153229
C38   C     C_R   0.102781 0.116842 0.389413 0.851681
C39   C     C_R   0.743827 0.961817 0.363126 -0.153210
C40   C     C_R   0.082450 0.682691 0.167938 -0.115876
C41   C     C_R   0.917563 0.317305 0.832059 -0.115880
C42   C     C_R   0.675219 0.164880 0.081099 -0.096555
C43   C     C_R   0.324780 0.835123 0.918876 -0.096549
C44   C     C_R   0.166423 0.078505 0.679271 -0.108962
C45   C     C_R   0.833577 0.921490 0.320733 -0.108961
C46   C     C_R   0.172550 0.672343 0.136984 -0.138092
C47   C     C_R   0.827464 0.327652 0.863019 -0.138097
C48   C     C_R   0.668561 0.134348 0.170067 -0.121340
C49   C     C_R   0.897221 0.883155 0.610587 0.851681
C50   C     C_R   0.331435 0.865644 0.829906 -0.121334
C51   C     C_R   0.134213 0.168628 0.670017 -0.132688
C52   C     C_R   0.865786 0.831367 0.329986 -0.132691
C53   C     C_R   0.988834 0.590800 0.465454 -0.260853
C54   C     C_R   0.011164 0.409200 0.534546 -0.260853
C55   C     C_R   0.591075 0.464785 0.987583 -0.264308
C56   C     C_R   0.408926 0.535214 0.012409 -0.264303
C57   C     C_R   0.464789 0.987455 0.591091 -0.243112
C58   C     C_R   0.535211 0.012542 0.408910 -0.243118
C59   C     C_R   0.944290 0.552478 0.555120 -0.036525
C60   C     C_R   0.117057 0.389596 0.102546 0.821122
C61   C     C_R   0.055709 0.447522 0.444879 -0.036526
C62   C     C_R   0.552511 0.555029 0.944553 -0.036891
C63   C     C_R   0.447490 0.444970 0.055440 -0.036889
C64   C     C_R   0.555054 0.944448 0.552485 -0.045952
C65   C     C_R   0.444945 0.055549 0.447516 -0.045951
C66   C     C_R   0.955316 0.460476 0.590157 0.003521
C67   C     C_R   0.044684 0.539524 0.409842 0.003521
C68   C     C_R   0.460210 0.590688 0.956946 0.004210
C69   C     C_R   0.539792 0.409310 0.043042 0.004213
C70   C     C_R   0.590707 0.956946 0.460136 0.000739
C71   C     C_R   0.882943 0.610404 0.897454 0.821125
C72   C     C_R   0.409292 0.043051 0.539865 0.000738
C73   C     C_R   0.110977 0.390390 0.389668 0.792623
C74   C     C_R   0.889023 0.609610 0.610332 0.792622
C75   C     C_R   0.390358 0.389762 0.110830 0.784311
C76   C     C_R   0.609642 0.610237 0.889168 0.784310
C77   C     C_R   0.389737 0.110864 0.390372 0.818293
C78   C     C_R   0.610263 0.889135 0.609628 0.818296
C79   C     C_R   0.027195 0.061440 0.315953 0.579673
C80   C     C_R   0.972816 0.938549 0.684046 0.579679
C81   C     C_R   0.068493 0.316568 0.020801 0.588397
C82   C     C_R   0.221996 0.618753 0.195093 -0.143168
C83   C     C_R   0.931509 0.683432 0.979196 0.588395
C84   C     C_R   0.404342 0.922478 0.181688 0.511157
C85   C     C_R   0.595652 0.077525 0.818311 0.511147
C86   C     C_R   0.031575 0.007926 0.278622 0.629162
C87   C     C_R   0.968431 0.992065 0.721378 0.629159
C88   C     C_R   0.018320 0.277632 0.022239 0.674295
C89   C     C_R   0.981683 0.722368 0.977756 0.674302
C90   C     C_R   0.410507 0.833361 0.213957 0.650852
C91   C     C_R   0.589471 0.166647 0.786041 0.650841
C92   C     C_R   0.026645 0.922733 0.330970 -0.362091
C93   C     C_R   0.778012 0.381244 0.804915 -0.143174
C94   C     C_R   0.973353 0.077260 0.669029 -0.362099
C95   C     C_R   0.932617 0.327879 0.018248 -0.364963
C96   C     C_R   0.067386 0.672121 0.981747 -0.364964
C97   C     C_R   0.463383 0.781796 0.158441 -0.322312
C98   C     C_R   0.536586 0.218214 0.841554 -0.322297
C99   C     C_R   0.007826 0.894602 0.422399 -0.201463
C100  C     C_R   0.992175 0.105390 0.577600 -0.201467
C101  C     C_R   0.900890 0.419232 0.002671 -0.221747
C102  C     C_R   0.099112 0.580767 0.997328 -0.221752
C103  C     C_R   0.510977 0.818643 0.070286 -0.260599
C104  C     C_R   0.620427 0.193606 0.218332 -0.155957
C105  C     C_R   0.489000 0.181363 0.929710 -0.260592
C106  C     C_R   0.997346 0.950333 0.462310 0.012921
C107  C     C_R   0.002661 0.049657 0.537690 0.012916
C108  C     C_R   0.953470 0.461061 0.994588 0.005577
C109  C     C_R   0.046530 0.538939 0.005411 0.005578
C110  C     C_R   0.505339 0.909382 0.034798 0.014251
C111  C     C_R   0.494654 0.090620 0.965201 0.014246
C112  C     C_R   0.021083 0.028161 0.406681 -0.136053
C113  C     C_R   0.978927 0.971827 0.593318 -0.136051
C114  C     C_R   0.031565 0.406774 0.017940 -0.157028
F1    F     F_    0.018014 0.148482 0.266085 -0.616428
F2    F     F_    0.946797 0.809025 0.973039 -0.569462
F3    F     F_    0.365466 0.796397 0.300296 -0.613587
F4    F     F_    0.634502 0.203613 0.699700 -0.613583
F5    F     F_    0.981997 0.851506 0.733912 -0.616436
F6    F     F_    0.155833 0.268920 0.011881 -0.612082
F7    F     F_    0.844169 0.731081 0.988116 -0.612082
F8    F     F_    0.354155 0.967249 0.241218 -0.649889
F9    F     F_    0.645851 0.032750 0.758779 -0.649871
F10   F     F_    0.039945 0.039096 0.191441 -0.580009
F11   F     F_    0.960063 0.960894 0.808557 -0.580008
F12   F     F_    0.053208 0.190977 0.026951 -0.569468
H1    H     H_    0.966656 0.120136 0.698491 0.189221
H2    H     H_    0.338556 0.562763 0.020557 0.169594
H3    H     H_    0.437244 0.979279 0.661471 0.174951
H4    H     H_    0.562755 0.020718 0.338530 0.174946
H5    H     H_    0.003233 0.828298 0.461244 0.192536
H6    H     H_    0.996764 0.171695 0.538756 0.192536
H7    H     H_    0.834229 0.456336 0.998951 0.197937
H8    H     H_    0.165772 0.543663 0.001048 0.197936
H9    H     H_    0.552510 0.774682 0.030735 0.165674
H10   H     H_    0.447459 0.225326 0.969259 0.165661
H11   H     H_    0.203920 0.705992 0.067895 0.141342
H12   H     H_    0.033333 0.879861 0.301508 0.189217
H13   H     H_    0.796097 0.294003 0.932108 0.141346
H14   H     H_    0.700517 0.064593 0.201618 0.146056
H15   H     H_    0.299474 0.935398 0.798353 0.146051
H16   H     H_    0.064426 0.199657 0.702359 0.138898
H17   H     H_    0.935574 0.800339 0.297645 0.138895
H18   H     H_    0.291875 0.611314 0.170231 0.135418
H19   H     H_    0.708132 0.388683 0.829781 0.135415
H20   H     H_    0.615293 0.169000 0.287472 0.137406
H21   H     H_    0.384707 0.830979 0.712501 0.137412
H22   H     H_    0.166127 0.288488 0.612209 0.134389
H23   H     H_    0.107994 0.703054 0.976593 0.191503
H24   H     H_    0.833871 0.711508 0.387795 0.134391
H25   H     H_    0.972045 0.646464 0.279467 0.136520
H26   H     H_    0.027965 0.353534 0.720524 0.136521
H27   H     H_    0.638455 0.277336 0.971327 0.134763
H28   H     H_    0.361549 0.722674 0.028654 0.134752
H29   H     H_    0.279872 0.968620 0.643404 0.138340
H30   H     H_    0.720128 0.031376 0.356598 0.138342
H31   H     H_    0.044011 0.724803 0.123162 0.166393
H32   H     H_    0.956006 0.275193 0.876830 0.166401
H33   H     H_    0.712267 0.118783 0.043992 0.164682
H34   H     H_    0.892011 0.296945 0.023400 0.191501
H35   H     H_    0.287731 0.881225 0.955981 0.164674
H36   H     H_    0.121819 0.039807 0.719110 0.168731
H37   H     H_    0.878181 0.960188 0.280894 0.168726
H38   H     H_    0.531561 0.287531 0.815981 0.198841
H39   H     H_    0.468391 0.712485 0.184011 0.198839
H40   H     H_    0.981622 0.660987 0.438487 0.168059
H41   H     H_    0.018378 0.339013 0.561513 0.168059
H42   H     H_    0.661445 0.437236 0.979435 0.169596
N1    N     N_1   0.275484 0.477583 0.390792 -0.158470
N2    N     N_1   0.724506 0.522421 0.609229 -0.158471
N3    N     N_1   0.489127 0.391597 0.270342 -0.162004
N4    N     N_1   0.510894 0.608383 0.729638 -0.161990
N5    N     N_1   0.387563 0.273568 0.483112 -0.153404
N6    N     N_1   0.612433 0.726428 0.516894 -0.153408
O1    O     O_3   0.250000 0.250000 0.250000 -0.510730
O2    O     O_R   0.865800 0.694910 0.573470 -0.654998
O3    O     O_R   0.305090 0.426530 0.134200 -0.651969
O4    O     O_R   0.694910 0.573470 0.865800 -0.651970
O5    O     O_R   0.426530 0.134200 0.305090 -0.636316
O6    O     O_R   0.573470 0.865800 0.694910 -0.636315
O7    O     O_R   0.134190 0.426530 0.134200 -0.660397
O8    O     O_R   0.865810 0.573470 0.865800 -0.660397
O9    O     O_R   0.426530 0.134200 0.134190 -0.648971
O10   O     O_R   0.573470 0.865800 0.865810 -0.648981
O11   O     O_R   0.134200 0.134190 0.426530 -0.653124
O12   O     O_3   0.750000 0.750000 0.750000 -0.510730
O13   O     O_R   0.865800 0.865810 0.573470 -0.653123
O14   O     O_R   0.426530 0.305080 0.134210 -0.642870
O15   O     O_R   0.573470 0.694920 0.865790 -0.642871
O16   O     O_R   0.305080 0.134210 0.426530 -0.631645
O17   O     O_R   0.694920 0.865790 0.573470 -0.631645
O18   O     O_R   0.134210 0.426530 0.305080 -0.633634
O19   O     O_R   0.865790 0.573470 0.694920 -0.633634
O20   O     O_R   0.305080 0.134200 0.134200 -0.558895
O21   O     O_R   0.694920 0.865800 0.865800 -0.558888
O22   O     O_R   0.134200 0.134200 0.305080 -0.552582
O23   O     O_R   0.865800 0.865800 0.694920 -0.552584
O24   O     O_R   0.134200 0.305080 0.134200 -0.559520
O25   O     O_R   0.865800 0.694920 0.865800 -0.559519
O26   O     O_R   0.134200 0.305090 0.426530 -0.654997
Zn1   Zn    Zn3+2 0.206620 0.206630 0.380140 0.996142
Zn2   Zn    Zn3+2 0.793380 0.793370 0.619860 0.996143
Zn3   Zn    Zn3+2 0.206630 0.380140 0.206620 0.965037
Zn4   Zn    Zn3+2 0.793370 0.619860 0.793380 0.965037
Zn5   Zn    Zn3+2 0.380140 0.206620 0.206630 1.001973
Zn6   Zn    Zn3+2 0.619860 0.793380 0.793370 1.001970
Zn7   Zn    Zn3+2 0.206620 0.206620 0.206620 1.139209
Zn8   Zn    Zn3+2 0.793380 0.793380 0.793380 1.139213

loop_
_geom_bond_atom_site_label_1
_geom_bond_atom_site_label_2
_ccdc_geom_bond_type
C10   C27   S    
O5    Zn5   S    
C22   C29   A    
C96   C102  A    
C37   H29   S    
C10   C110  A    
C75   O14   A    
C1    C11   S    
O1    Zn7   S    
C54   H41   S    
C14   N2    T    
C92   H12   S    
C1    O9    A    
C36   H28   S    
C106  C112  A    
C94   H1    S    
C40   C46   A    
O20   Zn7   S    
C34   C41   A    
C81   F6    S    
C77   O5    A    
O19   Zn4   S    
C44   H36   S    
C79   C112  A    
C103  C110  A    
C78   O6    A    
C77   O16   A    
C14   C21   S    
C57   H3    S    
C3    C109  A    
C80   C87   A    
C76   O4    A    
C59   C66   A    
C97   H39   S    
C84   F8    S    
C48   C104  A    
C73   O26   A    
C90   F3    S    
C19   H24   S    
O10   Zn6   S    
C7    C112  A    
O12   Zn2   S    
C32   C39   A    
O11   Zn1   S    
C35   C42   A    
C103  H9    S    
C27   O10   A    
C107  C113  A    
C88   F12   S    
C76   O15   A    
C2    C50   A    
C13   C51   A    
C19   C52   A    
C7    C38   S    
C15   C22   S    
O21   Zn8   S    
C42   H33   S    
O26   Zn1   S    
C8    C71   S    
C4    C84   A    
C81   C114  A    
O23   Zn8   S    
O3    Zn3   S    
C93   H19   S    
O17   Zn2   S    
C64   C70   A    
C104  H20   S    
O13   Zn2   S    
C90   C97   A    
C53   C59   A    
C50   H15   S    
C60   O24   A    
C39   C45   A    
C5    C85   A    
C87   C94   A    
C101  C108  A    
C105  C111  A    
C74   O19   A    
C28   C34   A    
C91   C98   A    
C46   C82   A    
C9    C109  A    
C71   O8    A    
C62   C76   S    
O7    Zn3   S    
C18   C25   S    
C84   C90   A    
C55   H42   S    
O6    Zn6   S    
C8    C108  A    
C17   N5    T    
C29   C69   S    
C85   C91   A    
C83   C89   A    
O14   Zn5   S    
C56   C63   A    
C33   C40   A    
C65   C77   S    
O12   Zn6   S    
C11   C111  A    
C95   H34   S    
C17   C24   S    
C23   C30   A    
C63   C69   A    
C40   H31   S    
C24   C31   A    
O1    Zn1   S    
C82   H18   S    
C3    C8    A    
C89   F2    S    
C48   H14   S    
C58   C70   A    
C49   O23   A    
C80   C113  A    
C5    C111  A    
C45   C52   A    
C61   C73   S    
C2    H21   S    
C56   C68   A    
C31   C37   A    
C13   C24   A    
C28   C66   S    
C102  H8    S    
C6    C113  A    
C74   O2    A    
O2    Zn2   S    
C61   C67   A    
C58   C65   A    
C98   C105  A    
C49   O13   A    
C94   C100  A    
O15   Zn6   S    
C12   C20   S    
C79   F1    S    
C41   C47   A    
C91   F4    S    
O12   Zn4   S    
C43   C50   A    
C42   C48   A    
C83   F7    S    
C4    C11   A    
C71   O25   A    
C6    C106  A    
C59   C74   S    
C97   C103  A    
C46   H11   S    
C43   H35   S    
C44   C51   A    
C31   C72   S    
C21   C28   A    
C16   C23   S    
C101  H7    S    
C105  H10   S    
C33   H25   S    
C15   N3    T    
O8    Zn4   S    
C27   O21   A    
C9    C114  A    
C65   C72   A    
C18   N6    T    
C87   F11   S    
C63   C75   S    
C57   C64   A    
C51   H16   S    
C60   O7    A    
C99   C106  A    
C4    C110  A    
C100  C107  A    
C34   H26   S    
C47   C93   A    
O24   Zn7   S    
C64   C78   S    
C78   O17   A    
C35   H27   S    
C36   C43   A    
C32   C70   S    
O12   Zn8   S    
C100  H6    S    
O16   Zn1   S    
C26   C67   S    
C12   N1    T    
C54   C66   A    
C54   C61   A    
C30   C36   A    
C38   O11   A    
C29   C35   A    
O4    Zn4   S    
C99   H5    S    
C39   H30   S    
C9    C60   S    
C108  C114  A    
C98   H38   S    
C55   C69   A    
O22   Zn7   S    
C1    O20   A    
C45   H37   S    
C22   C104  A    
O1    Zn3   S    
C5    C10   A    
C20   C26   A    
C86   C92   A    
C53   C67   A    
C86   F10   S    
C21   C93   A    
C58   H4    S    
O9    Zn5   S    
C96   H23   S    
O25   Zn8   S    
O18   Zn3   S    
C38   O22   A    
C85   F9    S    
C7    C107  A    
C62   C68   A    
C56   H2    S    
C57   C72   A    
C75   O3    A    
C88   C95   A    
C73   O18   A    
C52   H17   S    
C19   C25   A    
C41   H32   S    
C37   C44   A    
C80   F5    S    
C53   H40   S    
C3    C83   A    
C55   C62   A    
C92   C99   A    
C20   C82   A    
C47   H13   S    
C2    C23   A    
O1    Zn5   S    
C102  C109  A    
C13   H22   S    
C89   C96   A    
C81   C88   A    
C79   C86   A    
C30   C68   S    
C6    C49   S    
C95   C101  A    
C26   C33   A    
C16   N4    T    
C25   C32   A    
