data_mof_unit_13076.cif
_audit_creation_date              2012-12-10T20:31:02-0500
_audit_creation_method            fapswitch 2.2
_symmetry_space_group_name_H-M    P1
_symmetry_Int_Tables_number       1
_space_group_crystal_system       triclinic
_cell_length_a                    14.944871
_cell_length_b                    10.616938
_cell_length_c                    9.893202
_cell_angle_alpha                 89.481699
_cell_angle_beta                  89.99784
_cell_angle_gamma                 90.539256
_cell_volume                      1569.60842077

loop_
_atom_site_label
_atom_site_type_symbol
_atom_type_description
_atom_site_fract_x
_atom_site_fract_y
_atom_site_fract_z
_atom_type_partial_charge
C1    C     C_R   0.508773 0.260347 0.500086 0.883517
C2    C     C_R   0.906438 0.609920 0.429081 0.117803
C3    C     C_R   0.952697 0.325391 0.645374 0.109598
C4    C     C_R   0.045989 0.328570 0.646059 -0.255035
C5    C     C_R   0.092509 0.421530 0.573299 0.103631
C6    C     C_R   0.046660 0.514065 0.498075 0.064808
C7    C     C_R   0.094365 0.607375 0.423093 0.050826
C8    C     C_R   0.046737 0.700994 0.353095 -0.238516
C9    C     C_R   0.954235 0.702141 0.356092 -0.197665
C10   C     C_R   0.184792 0.422484 0.574709 -0.296882
C11   C     C_R   0.231852 0.512294 0.499790 -0.090889
C12   C     C_R   0.327174 0.502855 0.499937 0.951041
C13   C     C_R   0.188370 0.606208 0.423303 -0.072887
C14   C     C_R   0.546023 0.063224 0.618714 0.003021
C15   C     C_R   0.535773 0.130639 0.498364 -0.134674
C16   C     C_R   0.553661 0.068444 0.375239 0.034486
C17   C     C_R   0.551109 0.936154 0.374033 0.042109
C18   C     C_R   0.531736 0.871055 0.496304 -0.115177
C19   C     C_R   0.542267 0.934963 0.617358 0.048147
C20   C     C_3   0.495931 0.925984 0.750973 -0.534306
C21   C     C_3   0.502285 0.069358 0.754372 -0.160413
C22   C     C_R   0.423143 0.476646 0.071131 0.173191
C23   C     C_R   0.507005 0.740178 0.499027 0.961500
C24   C     C_R   0.572111 0.544074 0.071698 0.114312
C25   C     C_R   0.571877 0.544772 0.926865 0.123605
C26   C     C_R   0.422802 0.478014 0.929477 0.189241
C27   C     C_3   0.361578 0.366627 0.923916 -0.474131
C28   C     C_3   0.363956 0.363156 0.077939 -0.464672
C29   C     C_R   0.672754 0.503594 0.500063 0.853733
C30   C     C_R   0.812942 0.612564 0.434023 0.040938
C31   C     C_R   0.767929 0.512863 0.500724 -0.086821
C32   C     C_R   0.813459 0.419341 0.570816 -0.280197
C33   C     C_R   0.906162 0.418955 0.572534 0.092813
C34   C     C_R   0.953049 0.514003 0.499433 -0.010048
H1    H     H_    0.425950 0.890490 0.741931 0.218534
H2    H     H_    0.537045 0.876431 0.828272 0.185101
H3    H     H_    0.436122 0.116024 0.751935 0.163652
H4    H     H_    0.294807 0.391796 0.882791 0.189199
H5    H     H_    0.392257 0.283869 0.876217 0.237885
H6    H     H_    0.298177 0.383895 0.124778 0.192964
H7    H     H_    0.775456 0.346327 0.623256 0.173671
H8    H     H_    0.398624 0.279396 0.120169 0.231050
H9    H     H_    0.082442 0.257663 0.702571 0.142917
H10   H     H_    0.220647 0.351096 0.631765 0.143610
H11   H     H_    0.079912 0.775510 0.296676 0.138285
H12   H     H_    0.920604 0.775862 0.300036 0.161998
N1    N     N_R   0.499390 0.499140 0.142800 -0.100811
N2    N     N_R   0.499390 0.499180 0.857150 -0.090218
O1    O     O_R   0.500010 0.316790 0.614690 -0.614589
O2    O     O_R   0.500000 0.316760 0.385350 -0.591694
O3    O     O_R   0.367850 0.499990 0.614680 -0.624491
O4    O     O_R   0.367840 0.499950 0.385340 -0.616726
O5    O     O_R   0.500000 0.683240 0.614650 -0.621722
O6    O     O_R   0.499990 0.683210 0.385310 -0.570633
O7    O     O_R   0.632160 0.500050 0.614660 -0.599999
O8    O     O_R   0.632150 0.500010 0.385320 -0.597166
Zn1   Zn    Zn3+2 0.500010 0.500020 0.653130 0.980673
Zn2   Zn    Zn3+2 0.499990 0.499980 0.346870 0.996963
N3    N     N_3   0.766069 0.718596 0.375999 -0.471630
H13   H     H_    0.697179 0.712886 0.390782 0.201206
H14   H     H_    0.786050 0.798843 0.429036 0.167891
N4    N     N_3   0.563509 0.869741 0.249735 -0.433486
H15   H     H_    0.626183 0.893811 0.209875 0.162274
H16   H     H_    0.513998 0.896790 0.181059 0.190961
C35   C     C_2   0.566999 0.117205 0.859095 0.422076
H17   H     H_    0.631209 0.071834 0.873155 0.058230
O9    O     O_2   0.548589 0.207927 0.928046 -0.607319
N5    N     N_3   0.648132 0.591212 0.143349 -0.382759
H18   H     H_    0.660239 0.684391 0.113514 0.159462
H19   H     H_    0.703768 0.537379 0.118049 0.183837
N6    N     N_3   0.646382 0.595992 0.853534 -0.393020
H20   H     H_    0.654716 0.690627 0.879192 0.140917
H21   H     H_    0.703968 0.546753 0.880696 0.180580
N7    N     N_3   0.905158 0.228325 0.719048 -0.465520
H22   H     H_    0.877508 0.166773 0.648130 0.175572
H23   H     H_    0.949263 0.175170 0.777945 0.182300
C36   C     C_2   0.240695 0.703565 0.347010 0.391097
H24   H     H_    0.221832 0.729407 0.244671 0.050334
O10   O     O_2   0.304252 0.757389 0.399127 -0.582867
N8    N     N_3   0.569596 0.138253 0.252411 -0.399171
H25   H     H_    0.632034 0.113648 0.213715 0.184432
H26   H     H_    0.520085 0.114676 0.182279 0.210144

loop_
_geom_bond_atom_site_label_1
_geom_bond_atom_site_label_2
_ccdc_geom_bond_type
C19   C20   S    
N2    Zn1   S    
C36   H24   S    
C26   C27   S    
N7    H23   S    
C14   C21   S    
C9    H12   S    
C5    C6    A    
C16   C17   A    
C28   H6    S    
C27   H4    S    
C15   C16   A    
O1    Zn1   S    
C18   C19   A    
C3    N7    S    
C8    H11   S    
N4    H16   S    
N5    H18   S    
C20   H1    S    
C27   H5    S    
C8    C9    A    
C35   O9    D    
C32   H7    S    
C23   O5    A    
C1    C15   S    
C1    O2    A    
C26   N2    A    
C2    C34   A    
C22   N1    A    
N3    H13   S    
C22   C28   S    
C5    C10   A    
C12   O4    A    
C33   C34   A    
C36   O10   D    
C13   C36   S    
N3    H14   S    
N7    H22   S    
C10   H10   S    
C18   C23   S    
O2    Zn2   S    
C7    C8    A    
C24   C25   A    
N8    H26   S    
N6    H21   S    
O5    Zn1   S    
N8    H25   S    
C29   O7    A    
C6    C34   A    
C16   N8    S    
N4    H15   S    
C17   N4    S    
C31   C32   A    
C30   N3    S    
C17   C18   A    
C25   N2    A    
O4    Zn2   S    
C25   N6    S    
C4    H9    S    
O7    Zn1   S    
C3    C4    A    
C12   O3    A    
C23   O6    A    
O6    Zn2   S    
C21   C35   S    
C24   N1    A    
C14   C19   A    
C4    C5    A    
C11   C12   S    
C6    C7    A    
C29   O8    A    
C2    C30   A    
C32   C33   A    
N6    H20   S    
C29   C31   S    
N1    Zn2   S    
C11   C13   A    
C30   C31   A    
C28   H8    S    
O8    Zn2   S    
C10   C11   A    
C24   N5    S    
C20   H2    S    
O3    Zn1   S    
C7    C13   A    
C21   H3    S    
C20   C21   S    
N5    H19   S    
C35   H17   S    
C22   C26   A    
C27   C28   S    
C3    C33   A    
C14   C15   A    
C2    C9    A    
C1    O1    A    
