data_mof_unit_40614.cif
_audit_creation_date              2012-12-10T17:18:55-0500
_audit_creation_method            fapswitch 2.2
_symmetry_space_group_name_H-M    P1
_symmetry_Int_Tables_number       1
_space_group_crystal_system       triclinic
_cell_length_a                    10.151485
_cell_length_b                    10.899839
_cell_length_c                    13.595817
_cell_angle_alpha                 91.486309
_cell_angle_beta                  100.834543
_cell_angle_gamma                 95.894142
_cell_volume                      1468.16627366

loop_
_atom_site_label
_atom_site_type_symbol
_atom_type_description
_atom_site_fract_x
_atom_site_fract_y
_atom_site_fract_z
_atom_type_partial_charge
C1    C     C_R   0.052473 0.732015 0.491745 0.933702
C2    C     C_2   0.017889 0.065112 0.526593 0.449312
C3    C     C_2   0.430523 0.513614 0.505763 -0.111340
C4    C     C_2   0.569099 0.489480 0.491109 -0.119390
C5    C     C_R   0.094506 0.511108 0.686449 0.871754
C6    C     C_R   0.904567 0.484065 0.313972 0.896013
C7    C     C_R   0.141516 0.500621 0.794623 -0.171442
C8    C     C_R   0.844743 0.447761 0.209674 -0.162947
C9    C     C_R   0.102700 0.511813 0.965158 -0.170146
C10   C     C_R   0.833693 0.314739 0.062041 -0.193686
C11   C     C_R   0.057571 0.522589 0.862742 -0.313896
C12   C     C_R   0.948577 0.268731 0.510695 0.929771
C13   C     C_R   0.904556 0.366721 0.154107 -0.269252
C14   C     C_R   0.269684 0.462302 0.829782 0.478597
C15   C     C_R   0.714290 0.476684 0.172257 0.486894
C16   C     C_R   0.307170 0.434214 0.930886 -0.073379
C17   C     C_R   0.634043 0.405607 0.091077 -0.078874
C18   C     C_R   0.229590 0.471991 0.000495 -0.006121
C19   C     C_R   0.697859 0.333832 0.029424 -0.014691
C20   C     C_R   0.430077 0.385472 0.965769 -0.011967
C21   C     C_R   0.494256 0.413533 0.065167 -0.010494
C22   C     C_3   0.260268 0.625822 0.217199 -0.294547
C23   C     C_R   0.417112 0.448721 0.135189 -0.234374
C24   C     C_3   0.716365 0.281183 0.795609 -0.301367
C25   C     C_3   0.676601 0.676675 0.150426 -0.357768
C26   C     C_3   0.445165 0.574268 0.779998 -0.312923
C27   C     C_3   0.178492 0.125257 0.664443 -0.265292
C28   C     C_3   0.818883 0.893240 0.353281 -0.291511
C29   C     C_R   0.492192 0.312607 0.904295 -0.233856
C30   C     C_R   0.284160 0.475825 0.103693 0.482980
C31   C     C_R   0.625035 0.285338 0.935927 0.501128
C32   C     C_2   0.085619 0.864078 0.494650 -0.490714
C33   C     C_2   0.917531 0.137940 0.515856 -0.485915
C34   C     C_2   0.985962 0.937337 0.489788 0.454913
H1    H     H_    0.004768 0.341895 0.182421 0.221856
H2    H     H_    0.420482 0.589956 0.555591 0.162771
H3    H     H_    0.664809 0.623255 0.588200 0.162879
H4    H     H_    0.335427 0.374507 0.413968 0.177260
H5    H     H_    0.271130 0.695092 0.159595 0.146582
H6    H     H_    0.358192 0.622370 0.269291 0.182018
H7    H     H_    0.188331 0.657494 0.261948 0.199184
H8    H     H_    0.780776 0.368778 0.823197 0.157762
H9    H     H_    0.623955 0.300954 0.742803 0.183773
H10   H     H_    0.774890 0.226168 0.753072 0.195224
H11   H     H_    0.621770 0.652736 0.072320 0.165973
H12   H     H_    0.958926 0.552595 0.837253 0.176909
H13   H     H_    0.783921 0.709969 0.150370 0.154740
H14   H     H_    0.628254 0.753457 0.178561 0.181186
H15   H     H_    0.524543 0.569678 0.734473 0.171992
H16   H     H_    0.497547 0.593540 0.859303 0.153664
H17   H     H_    0.385869 0.651498 0.753639 0.159757
H18   H     H_    0.287191 0.156703 0.690311 0.198123
H19   H     H_    0.156730 0.035708 0.698976 0.137100
H20   H     H_    0.120354 0.196398 0.690939 0.155539
H21   H     H_    0.842182 0.986979 0.325967 0.134727
H22   H     H_    0.708832 0.867279 0.329599 0.198233
H23   H     H_    0.039288 0.537216 0.016470 0.196480
H24   H     H_    0.872078 0.824915 0.318059 0.169095
H25   H     H_    0.883982 0.256924 0.018253 0.199220
H26   H     H_    0.458330 0.452372 0.214752 0.191005
H27   H     H_    0.437253 0.274150 0.832383 0.187738
H28   H     H_    0.811935 0.100793 0.497616 0.173357
H29   H     H_    0.191356 0.900772 0.512856 0.171249
H30   H     H_    0.578706 0.415765 0.438575 0.164061
N1    N     N_2   0.322180 0.446120 0.460900 -0.169351
N2    N     N_2   0.677820 0.553880 0.539100 -0.182157
O1    O     O_R   0.935190 0.693030 0.507870 -0.527347
O2    O     O_3   0.683577 0.211767 0.875585 -0.622455
O3    O     O_3   0.667529 0.577067 0.214067 -0.605861
O4    O     O_3   0.362298 0.460517 0.766833 -0.604892
O5    O     O_3   0.152281 0.111762 0.558923 -0.600339
O6    O     O_3   0.851126 0.891676 0.458594 -0.595095
O7    O     O_R   0.064810 0.306970 0.492130 -0.538329
O8    O     O_R   0.142080 0.658430 0.482770 -0.637136
O9    O     O_R   0.857920 0.341570 0.517230 -0.634266
O10   O     O_R   0.969700 0.527180 0.651960 -0.631964
O11   O     O_R   0.030300 0.472820 0.348040 -0.601209
O12   O     O_R   0.176600 0.492580 0.626860 -0.545978
O13   O     O_R   0.823400 0.507420 0.373140 -0.562423
O14   O     O_3   0.208259 0.507934 0.173096 -0.629749
Zn1   Zn    Zn3+2 0.861850 0.523100 0.516760 0.965519
Zn2   Zn    Zn3+2 0.138150 0.476900 0.483240 0.984406

loop_
_geom_bond_atom_site_label_1
_geom_bond_atom_site_label_2
_ccdc_geom_bond_type
C8    C13   A    
C25   H11   S    
C24   H8    S    
C19   C31   A    
C28   H22   S    
C27   H20   S    
C28   O6    S    
C7    C11   A    
C1    O8    A    
C3    H2    S    
C13   H1    S    
C26   H16   S    
C22   H7    S    
C31   O2    S    
C17   C19   A    
C7    C14   A    
C33   H28   S    
C18   C30   A    
C25   H13   S    
C30   O14   S    
C2    C34   S    
C12   O7    A    
C14   O4    S    
C3    N1    D    
O8    Zn2   S    
C28   H21   S    
C20   C29   A    
C23   H26   S    
C15   O3    S    
C29   H27   S    
C23   C30   A    
C26   H15   S    
C5    C7    S    
O9    Zn1   S    
C6    O11   A    
C6    C8    S    
C1    C32   S    
C17   C21   A    
C32   C34   D    
O12   Zn2   S    
H4    N1    S    
C10   C19   A    
C16   C20   A    
C22   H6    S    
H3    N2    S    
C9    C11   A    
C25   H14   S    
C2    C33   D    
O1    Zn1   S    
C8    C15   A    
C21   C23   A    
C24   H10   S    
C14   C16   A    
C25   O3    S    
C3    C4    S    
C34   O6    S    
O7    Zn2   S    
C27   O5    S    
C27   H18   S    
O13   Zn1   S    
C15   C17   A    
C32   H29   S    
C10   C13   A    
O10   Zn1   S    
C27   H19   S    
C28   H24   S    
C4    H30   S    
C5    O10   A    
C10   H25   S    
C5    O12   A    
C22   O14   S    
C29   C31   A    
C26   H17   S    
N2    Zn1   S    
C4    N2    D    
N1    Zn2   S    
O11   Zn2   S    
C26   O4    S    
C22   H5    S    
C1    O1    A    
C9    H23   S    
C24   O2    S    
C6    O13   A    
C9    C18   A    
C20   C21   A    
C16   C18   A    
C12   O9    A    
C24   H9    S    
C11   H12   S    
C12   C33   S    
C2    O5    S    
