data_mof_unit_52997.cif
_audit_creation_date              2012-10-26T18:47:57-0400
_audit_creation_method            fapswitch 2.2
_symmetry_space_group_name_H-M    P1
_symmetry_Int_Tables_number       1
_space_group_crystal_system       triclinic
_cell_length_a                    15.854038
_cell_length_b                    8.688022
_cell_length_c                    7.451203
_cell_angle_alpha                 103.023346
_cell_angle_beta                  94.03431
_cell_angle_gamma                 92.195935
_cell_volume                      995.903069343

loop_
_atom_site_label
_atom_site_type_symbol
_atom_type_description
_atom_site_fract_x
_atom_site_fract_y
_atom_site_fract_z
_atom_type_partial_charge
C1    C     C_R   0.497536 0.199724 0.453242 0.549469
C2    C     C_2   0.503854 0.968204 0.573007 -0.152709
C3    C     C_R   0.340332 0.499834 0.502602 0.548370
C4    C     C_R   0.502576 0.800280 0.546751 0.545538
C5    C     C_R   0.659653 0.500268 0.497402 0.546258
C6    C     C_3   0.050799 0.435565 0.663497 -0.182006
C7    C     C_3   0.042419 0.402364 0.317503 -0.187872
C8    C     C_3   0.944559 0.401480 0.312867 0.199922
C9    C     C_1   0.749119 0.501597 0.492522 0.007690
C10   C     C_3   0.083074 0.503617 0.504078 -0.042328
C11   C     C_3   0.859504 0.874437 0.443094 -0.269495
C12   C     C_3   0.952829 0.434879 0.657776 0.242510
C13   C     C_3   0.917107 0.505981 0.495698 0.095152
C14   C     C_3   0.957036 0.679149 0.527143 -0.006889
C15   C     C_3   0.054928 0.675131 0.525477 -0.208921
C16   C     C_1   0.824729 0.503855 0.492268 0.044800
C17   C     C_1   0.175309 0.502017 0.507830 -0.073195
C18   C     C_1   0.250874 0.500963 0.507691 -0.022498
C19   C     C_2   0.496407 0.031807 0.426976 -0.152429
Cu1   Cu    Cu3+1 0.509300 0.517380 0.684380 0.976653
Cu2   Cu    Cu3+1 0.490700 0.482620 0.315620 0.969370
F1    F     F_    0.928612 0.519962 0.825339 -0.684706
F2    F     F_    0.911537 0.247215 0.288148 -0.669576
H1    H     H_    0.926813 0.310930 0.639038 0.183894
H2    H     H_    0.919417 0.445012 0.191693 0.185967
H3    H     H_    0.085222 0.751331 0.656474 0.124327
H4    H     H_    0.077455 0.724743 0.410773 0.157705
H5    H     H_    0.943475 0.745482 0.667651 0.205364
H6    H     H_    0.920324 0.705414 0.253494 0.283125
H7    H     H_    0.848587 0.942744 0.335143 0.212659
H8    H     H_    0.880186 0.959463 0.575516 0.165688
H9    H     H_    0.799132 0.811026 0.456824 0.137034
H10   H     H_    0.079198 0.507437 0.798774 0.163668
H11   H     H_    0.489402 0.960168 0.286265 0.135749
H12   H     H_    0.510876 0.039844 0.713717 0.137864
H13   H     H_    0.434917 0.376764 0.948689 0.239073
H14   H     H_    0.565092 0.623223 0.051308 0.243165
H15   H     H_    0.071145 0.312657 0.651297 0.101124
H16   H     H_    0.064049 0.450766 0.201228 0.111394
H17   H     H_    0.063304 0.279141 0.296867 0.175288
N1    N     N_2   0.476670 0.456430 0.038530 -0.254746
N2    N     N_2   0.523330 0.543570 0.961470 -0.251546
N3    N     N_2   0.924142 0.763424 0.390705 -0.544370
O1    O     O_R   0.506050 0.286130 0.619770 -0.505385
O2    O     O_R   0.490330 0.256780 0.308370 -0.496328
O3    O     O_R   0.387300 0.514690 0.655770 -0.502150
O4    O     O_R   0.371580 0.485340 0.344370 -0.495336
O5    O     O_R   0.509670 0.743220 0.691630 -0.497566
O6    O     O_R   0.493950 0.713870 0.380230 -0.508077
O7    O     O_R   0.628420 0.514660 0.655630 -0.482839
O8    O     O_R   0.612700 0.485310 0.344230 -0.497851

loop_
_geom_bond_atom_site_label_1
_geom_bond_atom_site_label_2
_ccdc_geom_bond_type
C2    H12   S    
C6    C10   S    
C7    C10   S    
C2    C4    S    
C7    H17   S    
C6    H15   S    
C5    C9    S    
C8    C13   S    
N1    N2    D    
C12   H1    S    
C3    O3    A    
C15   H4    S    
C6    H10   S    
C4    O6    A    
C14   H5    S    
Cu2   O6    S    
C17   C18   T    
C11   H8    S    
C7    C8    S    
C13   C14   S    
H6    N3    S    
C11   N3    S    
C8    H2    S    
C1    O2    A    
H13   N1    S    
Cu1   O5    S    
Cu2   N1    S    
C3    O4    A    
Cu1   O1    S    
C9    C16   T    
C11   H9    S    
Cu2   O2    S    
C10   C15   S    
C6    C12   S    
C5    O7    A    
Cu1   N2    S    
C1    C19   S    
C10   C17   S    
C12   F1    S    
Cu2   O8    S    
C8    F2    S    
Cu1   Cu2   S    
C3    C18   S    
C4    O5    A    
C13   C16   S    
H14   N2    S    
C7    H16   S    
C14   C15   S    
C5    O8    A    
C15   H3    S    
Cu1   O7    S    
C1    O1    A    
C12   C13   S    
C2    C19   D    
Cu1   O3    S    
C11   H7    S    
C14   N3    S    
Cu2   O4    S    
C19   H11   S    
