data_mof_unit_7670.cif
_audit_creation_date              2012-12-10T18:51:36-0500
_audit_creation_method            fapswitch 2.2
_symmetry_space_group_name_H-M    P1
_symmetry_Int_Tables_number       1
_space_group_crystal_system       triclinic
_cell_length_a                    10.821164
_cell_length_b                    9.991118
_cell_length_c                    10.514385
_cell_angle_alpha                 88.238056
_cell_angle_beta                  93.342803
_cell_angle_gamma                 86.247263
_cell_volume                      1131.71895551

loop_
_atom_site_label
_atom_site_type_symbol
_atom_type_description
_atom_site_fract_x
_atom_site_fract_y
_atom_site_fract_z
_atom_type_partial_charge
C1    C     C_R   0.873293 0.487451 0.483885 -0.144828
C2    C     C_3   0.394599 0.454997 0.041790 -0.176763
C3    C     C_3   0.402719 0.578306 0.952541 -0.013335
C4    C     C_3   0.596742 0.421925 0.047362 -0.012838
C5    C     C_3   0.495409 0.496820 0.876858 -0.065770
C6    C     C_3   0.504092 0.503382 0.123090 -0.066379
C7    C     C_R   0.556951 0.063396 0.599250 -0.072614
C8    C     C_R   0.442516 0.936490 0.401015 -0.026493
C9    C     C_R   0.439055 0.079842 0.403583 0.015214
C10   C     C_R   0.561022 0.920108 0.596310 0.005748
C11   C     C_R   0.075446 0.400566 0.571193 -0.091134
C12   C     C_R   0.126717 0.512961 0.515887 -0.146321
C13   C     C_R   0.924568 0.599891 0.428583 -0.086401
C14   C     C_R   0.949689 0.382663 0.547337 -0.160250
C15   C     C_R   0.050205 0.618197 0.452885 -0.157061
C16   C     C_2   0.610619 0.124082 0.714441 0.941686
C17   C     C_2   0.387449 0.875281 0.286741 0.919364
C18   C     C_2   0.357568 0.160539 0.308810 0.984493
C19   C     C_2   0.643145 0.839460 0.690610 0.987764
C20   C     C_2   0.289347 0.662896 0.903430 0.967833
C21   C     C_2   0.710177 0.337285 0.096100 0.964591
C22   C     C_2   0.153939 0.304030 0.657888 1.022547
C23   C     C_R   0.260092 0.504567 0.504509 0.907426
C24   C     C_2   0.845851 0.696520 0.342308 1.033605
C25   C     C_2   0.902617 0.251989 0.585060 1.056366
C26   C     C_2   0.096147 0.750238 0.417083 1.049560
C27   C     C_R   0.739886 0.495530 0.495252 0.905330
C28   C     C_R   0.502322 0.501463 0.257991 0.960194
C29   C     C_R   0.497491 0.498576 0.741987 0.959715
C30   C     C_3   0.511152 0.627711 0.035699 -0.171936
C31   C     C_3   0.488296 0.372545 0.964256 -0.171759
C32   C     C_3   0.604860 0.545248 0.958163 -0.176669
H1    H     H_    0.525315 0.730819 0.065946 0.210861
H2    H     H_    0.820668 0.265216 0.246685 0.379337
H3    H     H_    0.267720 0.277161 0.816301 0.347840
H4    H     H_    0.732915 0.723882 0.183299 0.347683
H5    H     H_    0.825268 0.083691 0.528001 0.369159
H6    H     H_    0.097683 0.899160 0.282797 0.375121
H7    H     H_    0.473886 0.269511 0.934075 0.210153
H8    H     H_    0.691597 0.580223 0.920968 0.191530
H9    H     H_    0.307910 0.419951 0.079038 0.190942
H10   H     H_    0.637713 0.112928 0.906074 0.374227
H11   H     H_    0.358181 0.884952 0.095313 0.373096
H12   H     H_    0.188167 0.251524 0.263961 0.338928
H13   H     H_    0.812997 0.749084 0.734494 0.343489
H14   H     H_    0.180351 0.736614 0.752266 0.377838
N1    N     N_R   0.500000 0.857200 0.500000 -0.149085
N2    N     N_R   0.500000 0.142800 0.500000 -0.151171
O1    O     O_R   0.316770 0.614620 0.499990 -0.547725
O2    O     O_R   0.585542 0.073966 0.835074 -0.774174
O3    O     O_2   0.319367 0.784193 0.297466 -0.573054
O4    O     O_R   0.410532 0.925123 0.165429 -0.781328
O5    O     O_2   0.394084 0.186906 0.203754 -0.598338
O6    O     O_R   0.235804 0.198190 0.336720 -0.774043
O7    O     O_2   0.607192 0.812542 0.795791 -0.593890
O8    O     O_R   0.764892 0.802510 0.662081 -0.780289
O9    O     O_2   0.221253 0.715379 0.979029 -0.590157
O10   O     O_R   0.260200 0.679195 0.772582 -0.755144
O11   O     O_2   0.777251 0.283595 0.020272 -0.586924
O12   O     O_R   0.683230 0.385380 0.500010 -0.550774
O13   O     O_R   0.740635 0.322425 0.226790 -0.754582
O14   O     O_2   0.165620 0.185084 0.633419 -0.546515
O15   O     O_R   0.217525 0.351523 0.764963 -0.807210
O16   O     O_2   0.832390 0.814936 0.368273 -0.575061
O17   O     O_R   0.783695 0.649561 0.234114 -0.802506
O18   O     O_2   0.919026 0.209058 0.695418 -0.546467
O19   O     O_R   0.848035 0.173583 0.492228 -0.741953
O20   O     O_2   0.145745 0.816865 0.498696 -0.555616
O21   O     O_R   0.073242 0.803266 0.292473 -0.735196
O22   O     O_R   0.683230 0.614620 0.500010 -0.620939
O23   O     O_R   0.316770 0.385380 0.499990 -0.618012
O24   O     O_R   0.499970 0.614650 0.313950 -0.617087
O25   O     O_R   0.500030 0.385350 0.686050 -0.617239
O26   O     O_R   0.500030 0.614650 0.686050 -0.590920
O27   O     O_R   0.499970 0.385350 0.313950 -0.591609
O28   O     O_2   0.679665 0.214434 0.705147 -0.564917
Zn1   Zn    Zn3+2 0.500000 0.653120 0.500000 1.063161
Zn2   Zn    Zn3+2 0.500000 0.346880 0.500000 1.057675

loop_
_geom_bond_atom_site_label_1
_geom_bond_atom_site_label_2
_ccdc_geom_bond_type
C19   O8    S    
C7    C10   A    
C25   O19   S    
C17   O3    D    
C28   O24   A    
C12   C23   S    
O12   Zn2   S    
C16   O2    S    
C21   O11   D    
C27   O12   A    
C11   C14   A    
H11   O4    S    
C23   O1    A    
C29   O25   A    
C2    H9    S    
N2    Zn2   S    
C18   O5    D    
C22   O15   S    
C6    C28   S    
H13   O8    S    
C31   H7    S    
C8    C9    A    
O26   Zn1   S    
O25   Zn2   S    
C21   O13   S    
C5    C32   S    
H6    O21   S    
C24   O16   D    
H14   O10   S    
O22   Zn1   S    
C2    C6    S    
C17   O4    S    
C5    C29   S    
C23   O23   A    
C4    C6    S    
H4    O17   S    
C15   C26   S    
C29   O26   A    
H2    O13   S    
C13   C24   S    
C2    C31   S    
C3    C30   S    
O24   Zn1   S    
C22   O14   D    
C12   C15   A    
C10   C19   S    
C3    C20   S    
C4    C32   S    
C27   O22   A    
C24   O17   S    
H10   O2    S    
C7    C16   S    
C6    C30   S    
C13   C15   A    
C1    C13   A    
N1    Zn1   S    
C20   O10   S    
C19   O7    D    
C30   H1    S    
C16   O28   D    
C25   O18   D    
C3    C5    S    
C11   C12   A    
C11   C22   S    
C8    C17   S    
C26   O20   D    
C7    N2    A    
C2    C3    S    
C8    N1    A    
C30   C32   S    
C4    C21   S    
H5    O19   S    
O1    Zn1   S    
C32   H8    S    
C14   C25   S    
O27   Zn2   S    
C4    C31   S    
C18   O6    S    
H12   O6    S    
C9    C18   S    
C9    N2    A    
C10   N1    A    
C1    C27   S    
C26   O21   S    
H3    O15   S    
C1    C14   A    
C20   O9    D    
C28   O27   A    
O23   Zn2   S    
C5    C31   S    
