data_mof_unit_28294.cif
_audit_creation_date              2013-03-05T15:47:08-0500
_audit_creation_method            fapswitch 2.2
_symmetry_space_group_name_H-M    P1
_symmetry_Int_Tables_number       1
_space_group_crystal_system       triclinic
_cell_length_a                    19.703221
_cell_length_b                    11.405804
_cell_length_c                    18.643044
_cell_angle_alpha                 90.009501
_cell_angle_beta                  90.503309
_cell_angle_gamma                 90.002751
_cell_volume                      4189.50964363

loop_
_atom_site_label
_atom_site_type_symbol
_atom_site_description
_atom_site_fract_x
_atom_site_fract_y
_atom_site_fract_z
_atom_type_partial_charge
O1    O     O_R   0.957210 0.449410 0.665480 -0.518030
O2    O     O_R   0.042790 0.449410 0.334520 -0.517201
O3    O     O_R   0.457210 0.949410 0.665480 -0.518027
O4    O     O_R   0.542790 0.949410 0.334520 -0.517202
O5    O     O_R   0.820730 0.541240 0.668250 -0.507917
O6    O     O_R   0.179270 0.541240 0.331750 -0.508563
O7    O     O_R   0.320730 0.041240 0.668250 -0.507914
O8    O     O_R   0.679270 0.041240 0.331750 -0.508559
C1    C     C_R   0.761126 0.523679 0.639447 0.546695
C2    C     C_R   0.238876 0.523694 0.360551 0.541212
C3    C     C_R   0.261126 0.023679 0.639447 0.546713
C4    C     C_R   0.738876 0.023694 0.360551 0.541216
O9    O     O_R   0.714240 0.455060 0.663710 -0.530343
O10   O     O_R   0.285760 0.455060 0.336290 -0.529788
O11   O     O_R   0.214240 0.955060 0.663710 -0.530339
O12   O     O_R   0.785760 0.955060 0.336290 -0.529790
O13   O     O_R   0.736780 0.204870 0.675910 -0.497082
O14   O     O_R   0.263220 0.204870 0.324090 -0.500754
O15   O     O_R   0.236780 0.704870 0.675910 -0.497091
O16   O     O_R   0.763220 0.704870 0.324090 -0.500755
C5    C     C_R   0.773930 0.121027 0.649700 0.587382
C6    C     C_R   0.226053 0.121076 0.350323 0.583968
C7    C     C_R   0.273930 0.621027 0.649700 0.587380
C8    C     C_R   0.726053 0.621076 0.350323 0.583965
O17   O     O_R   0.833070 0.087590 0.673490 -0.510932
O18   O     O_R   0.166930 0.087590 0.326510 -0.505655
O19   O     O_R   0.333070 0.587590 0.673490 -0.510931
O20   O     O_R   0.666930 0.587590 0.326510 -0.505659
O21   O     O_R   0.946890 0.246800 0.676300 -0.513572
O22   O     O_R   0.053110 0.246800 0.323700 -0.517758
O23   O     O_R   0.446890 0.746800 0.676300 -0.513564
O24   O     O_R   0.553110 0.746800 0.323700 -0.517760
C9    C     C_R   0.968851 0.342298 0.645152 0.549291
C10   C     C_R   0.031164 0.342307 0.354861 0.542446
C11   C     C_R   0.468851 0.842298 0.645152 0.549331
C12   C     C_R   0.531164 0.842307 0.354861 0.542445
O25   O     O_R   0.956650 0.457120 0.827980 -0.423381
O26   O     O_R   0.043350 0.457120 0.172020 -0.458614
O27   O     O_R   0.456650 0.957120 0.827980 -0.423405
O28   O     O_R   0.543350 0.957120 0.172020 -0.458642
O29   O     O_R   0.820220 0.548390 0.818890 -0.484644
O30   O     O_R   0.179780 0.548390 0.181110 -0.478752
O31   O     O_R   0.320220 0.048390 0.818890 -0.484579
O32   O     O_R   0.679780 0.048390 0.181110 -0.478739
C13   C     C_R   0.769649 0.500903 0.856908 0.538840
C14   C     C_R   0.225531 0.484949 0.142717 0.525498
C15   C     C_R   0.269654 0.000883 0.856910 0.538908
C16   C     C_R   0.725531 0.984950 0.142717 0.525506
O33   O     O_R   0.713680 0.462770 0.826210 -0.514013
O34   O     O_R   0.286320 0.462770 0.173790 -0.511298
O35   O     O_R   0.213680 0.962770 0.826210 -0.513972
O36   O     O_R   0.786320 0.962770 0.173790 -0.511296
O37   O     O_R   0.736260 0.212010 0.826560 -0.494195
O38   O     O_R   0.263740 0.212010 0.173440 -0.495185
O39   O     O_R   0.236260 0.712010 0.826560 -0.494206
O40   O     O_R   0.763740 0.712010 0.173440 -0.495194
C17   C     C_R   0.775228 0.132988 0.858063 0.607030
C18   C     C_R   0.223413 0.140538 0.139952 0.615669
C19   C     C_R   0.275228 0.632988 0.858063 0.607046
C20   C     C_R   0.723415 0.640535 0.139954 0.615690
O41   O     O_R   0.832520 0.095300 0.836000 -0.491821
O42   O     O_R   0.167480 0.095300 0.164000 -0.454063
O43   O     O_R   0.332520 0.595300 0.836000 -0.491803
O44   O     O_R   0.667480 0.595300 0.164000 -0.454075
O45   O     O_R   0.946380 0.253940 0.826940 -0.508395
O46   O     O_R   0.053620 0.253940 0.173060 -0.528368
O47   O     O_R   0.446380 0.753940 0.826940 -0.508398
O48   O     O_R   0.553620 0.753940 0.173060 -0.528384
C21   C     C_R   0.947454 0.357288 0.860662 0.552662
C22   C     C_R   0.026277 0.352963 0.150240 0.583352
C23   C     C_R   0.447553 0.857278 0.860666 0.552874
C24   C     C_R   0.526268 0.852962 0.150251 0.583386
Cr1   Cr    Cr6+3 0.885690 0.492860 0.745310 1.074061
Cr2   Cr    Cr6+3 0.114310 0.492860 0.254690 1.072739
Cr3   Cr    Cr6+3 0.385690 0.992860 0.745310 1.074112
Cr4   Cr    Cr6+3 0.614310 0.992860 0.254690 1.072739
Cr5   Cr    Cr6+3 0.729880 0.332270 0.748190 1.044911
Cr6   Cr    Cr6+3 0.270120 0.332270 0.251810 1.050285
Cr7   Cr    Cr6+3 0.229880 0.832270 0.748190 1.044932
Cr8   Cr    Cr6+3 0.770120 0.832270 0.251810 1.050279
Cr9   Cr    Cr6+3 0.888120 0.178590 0.753010 1.038496
Cr10  Cr    Cr6+3 0.111880 0.178590 0.246990 1.048376
Cr11  Cr    Cr6+3 0.388120 0.678590 0.753010 1.038531
Cr12  Cr    Cr6+3 0.611880 0.678590 0.246990 1.048368
O49   O     O_3   0.834560 0.334570 0.748840 -0.338718
O50   O     O_3   0.165440 0.334570 0.251160 -0.336469
O51   O     O_3   0.334560 0.834570 0.748840 -0.338687
O52   O     O_3   0.665440 0.834570 0.251160 -0.336467
C25   C     C_3   0.687409 0.131578 0.464530 -0.235073
C26   C     C_3   0.312590 0.131569 0.535488 -0.234834
C27   C     C_3   0.187409 0.631578 0.464530 -0.235072
C28   C     C_3   0.812590 0.631569 0.535488 -0.234834
H1    H     H_    0.638584 0.094363 0.449553 0.133273
H2    H     H_    0.361412 0.094337 0.550442 0.132595
H3    H     H_    0.138584 0.594364 0.449553 0.133273
H4    H     H_    0.861412 0.594337 0.550442 0.132597
H5    H     H_    0.687553 0.219180 0.438776 0.115442
H6    H     H_    0.312459 0.219165 0.561267 0.115600
H7    H     H_    0.187553 0.719180 0.438776 0.115442
H8    H     H_    0.812459 0.719165 0.561267 0.115598
C29   C     C_3   0.692683 0.145467 0.545918 -0.234485
C30   C     C_3   0.307308 0.145474 0.454105 -0.234533
C31   C     C_3   0.192683 0.645467 0.545918 -0.234485
C32   C     C_3   0.807308 0.645474 0.454105 -0.234533
H9    H     H_    0.688231 0.237528 0.560749 0.136512
H10   H     H_    0.311775 0.237530 0.439291 0.137027
H11   H     H_    0.188231 0.737528 0.560749 0.136511
H12   H     H_    0.811775 0.737530 0.439291 0.137027
H13   H     H_    0.648646 0.102828 0.571727 0.121016
H14   H     H_    0.351338 0.102823 0.428283 0.119907
H15   H     H_    0.148646 0.602828 0.571727 0.121012
H16   H     H_    0.851338 0.602823 0.428283 0.119906
H17   H     H_    0.722177 0.870449 0.463273 0.104667
H18   H     H_    0.277826 0.870458 0.536667 0.104537
H19   H     H_    0.222177 0.370449 0.463273 0.104667
H20   H     H_    0.777825 0.370458 0.536667 0.104539
H21   H     H_    0.704996 0.925451 0.583996 0.124277
H22   H     H_    0.294967 0.925460 0.415969 0.121805
H23   H     H_    0.204996 0.425451 0.583996 0.124268
H24   H     H_    0.794967 0.425460 0.415969 0.121803
C33   C     C_3   0.756600 0.940091 0.480569 -0.228342
C34   C     C_3   0.243387 0.940088 0.519406 -0.228243
C35   C     C_3   0.256600 0.440091 0.480569 -0.228340
C36   C     C_3   0.743387 0.440088 0.519406 -0.228239
C37   C     C_3   0.810755 0.130503 0.449226 -0.257566
C38   C     C_3   0.189244 0.130497 0.550809 -0.257462
C39   C     C_3   0.310755 0.630503 0.449226 -0.257565
C40   C     C_3   0.689244 0.630497 0.550809 -0.257464
C41   C     C_3   0.747258 0.056760 0.436539 0.065321
C42   C     C_3   0.252737 0.056750 0.563468 0.064812
C43   C     C_3   0.247258 0.556760 0.436539 0.065321
C44   C     C_3   0.752737 0.556750 0.563468 0.064816
H25   H     H_    0.855105 0.090563 0.422182 0.127944
H26   H     H_    0.144894 0.090554 0.577849 0.126695
H27   H     H_    0.355105 0.590563 0.422182 0.127946
H28   H     H_    0.644894 0.590554 0.577849 0.126698
H29   H     H_    0.804171 0.220165 0.427359 0.111678
H30   H     H_    0.195837 0.220153 0.572703 0.112257
H31   H     H_    0.304171 0.720165 0.427359 0.111680
H32   H     H_    0.695837 0.720153 0.572703 0.112261
C45   C     C_3   0.759873 0.090785 0.574274 0.056864
C46   C     C_3   0.240111 0.090813 0.425742 0.056199
C47   C     C_3   0.259873 0.590785 0.574274 0.056864
C48   C     C_3   0.740110 0.590813 0.425742 0.056201
C49   C     C_3   0.753308 0.959122 0.562028 -0.252940
C50   C     C_3   0.246662 0.959141 0.437952 -0.253334
C51   C     C_3   0.253308 0.459122 0.562028 -0.252939
C52   C     C_3   0.746662 0.459141 0.437952 -0.253336
C53   C     C_3   0.822716 0.133806 0.530536 -0.227280
C54   C     C_3   0.177273 0.133817 0.469502 -0.226875
C55   C     C_3   0.322716 0.633806 0.530536 -0.227281
C56   C     C_3   0.677273 0.633817 0.469502 -0.226875
H33   H     H_    0.840886 0.219760 0.548300 0.107159
H34   H     H_    0.159097 0.219768 0.451767 0.107044
H35   H     H_    0.340886 0.719760 0.548300 0.107156
H36   H     H_    0.659097 0.719768 0.451767 0.107044
H37   H     H_    0.863407 0.069128 0.541545 0.129324
H38   H     H_    0.136580 0.069136 0.458482 0.129457
H39   H     H_    0.363407 0.569128 0.541545 0.129324
H40   H     H_    0.636580 0.569136 0.458482 0.129457
H41   H     H_    0.808915 0.909577 0.470042 0.127890
H42   H     H_    0.191077 0.909548 0.529938 0.127678
H43   H     H_    0.308915 0.409577 0.470042 0.127890
H44   H     H_    0.691077 0.409548 0.529938 0.127679
H45   H     H_    0.795241 0.911175 0.589446 0.135169
H46   H     H_    0.204719 0.911203 0.410529 0.135561
H47   H     H_    0.295241 0.411175 0.589446 0.135172
H48   H     H_    0.704719 0.411203 0.410529 0.135561
C57   C     C_3   0.004063 0.206150 0.458921 -0.232294
C58   C     C_3   0.995947 0.206141 0.541060 -0.233268
C59   C     C_3   0.504062 0.706150 0.458921 -0.232296
C60   C     C_3   0.495947 0.706141 0.541060 -0.233270
H49   H     H_    0.046829 0.152683 0.442935 0.131350
H50   H     H_    0.953175 0.152676 0.557028 0.131017
H51   H     H_    0.546829 0.652683 0.442935 0.131350
H52   H     H_    0.453175 0.652676 0.557028 0.131015
H53   H     H_    0.959816 0.162521 0.433477 0.112397
H54   H     H_    0.040190 0.162506 0.566494 0.111612
H55   H     H_    0.459816 0.662521 0.433477 0.112399
H56   H     H_    0.540191 0.662506 0.566494 0.111618
H57   H     H_    0.616413 0.889870 0.457173 0.107286
H58   H     H_    0.383600 0.889837 0.542847 0.107033
H59   H     H_    0.116414 0.389870 0.457173 0.107286
H60   H     H_    0.883600 0.389837 0.542847 0.107037
H61   H     H_    0.599841 0.835046 0.578042 0.113248
H62   H     H_    0.400173 0.835066 0.421972 0.113140
H63   H     H_    0.099841 0.335046 0.578042 0.113225
H64   H     H_    0.900173 0.335066 0.421972 0.113137
C61   C     C_3   0.064616 0.405569 0.475034 -0.222236
C62   C     C_3   0.935400 0.405553 0.524996 -0.222657
C63   C     C_3   0.564616 0.905569 0.475034 -0.222245
C64   C     C_3   0.435400 0.905553 0.524996 -0.222666
C65   C     C_3   0.941805 0.390210 0.443718 -0.255997
C66   C     C_3   0.058214 0.390198 0.556309 -0.255807
C67   C     C_3   0.441805 0.890210 0.443718 -0.255993
C68   C     C_3   0.558214 0.890198 0.556309 -0.255797
C69   C     C_3   0.010666 0.333483 0.430844 0.061664
C70   C     C_3   0.989350 0.333467 0.569168 0.059754
C71   C     C_3   0.510666 0.833483 0.430844 0.061665
C72   C     C_3   0.489350 0.833467 0.569168 0.059749
H65   H     H_    0.938415 0.476783 0.416638 0.135642
H66   H     H_    0.061613 0.476760 0.583421 0.136409
H67   H     H_    0.438415 0.976783 0.416638 0.135644
H68   H     H_    0.561613 0.976760 0.583421 0.136416
H69   H     H_    0.947183 0.498927 0.535527 0.131355
H70   H     H_    0.052830 0.498941 0.464532 0.131606
H71   H     H_    0.447183 0.998927 0.535527 0.131354
H72   H     H_    0.552830 0.998941 0.464532 0.131607
C73   C     C_3   0.808489 0.007046 0.041873 -0.244732
C74   C     C_3   0.183671 0.070388 0.945416 -0.253695
C75   C     C_3   0.308492 0.507059 0.041876 -0.244735
C76   C     C_3   0.683671 0.570428 0.945414 -0.253746
H73   H     H_    0.835523 0.927946 0.061388 0.161543
H74   H     H_    0.149469 0.996193 0.930671 0.159717
H75   H     H_    0.335531 0.427965 0.061393 0.161556
H76   H     H_    0.649459 0.496260 0.930651 0.159747
H77   H     H_    0.835071 0.082131 0.067692 0.181986
H78   H     H_    0.167403 0.145300 0.912956 0.206017
H79   H     H_    0.335067 0.582153 0.067694 0.181987
H80   H     H_    0.667418 0.645374 0.912976 0.205897
C77   C     C_3   0.817543 0.014465 0.962258 -0.231385
C78   C     C_3   0.175100 0.095116 0.024266 -0.261458
C79   C     C_3   0.317549 0.514473 0.962261 -0.231397
C80   C     C_3   0.675099 0.595110 0.024270 -0.261451
H81   H     H_    0.867084 0.055313 0.952617 0.134977
H82   H     H_    0.154965 0.180248 0.026499 0.099425
H83   H     H_    0.367088 0.555329 0.952620 0.134973
H84   H     H_    0.654950 0.680231 0.026523 0.099428
H85   H     H_    0.821983 0.924524 0.940144 0.193813
H86   H     H_    0.138584 0.030736 0.046941 0.189755
H87   H     H_    0.321995 0.424530 0.940150 0.193817
H88   H     H_    0.638598 0.530696 0.046936 0.189763
H89   H     H_    0.695063 0.848312 0.996233 0.127787
H90   H     H_    0.228803 0.888121 0.990348 0.155524
H91   H     H_    0.195084 0.348301 0.996234 0.127799
H92   H     H_    0.728799 0.388139 0.990336 0.155521
C81   C     C_3   0.689022 0.942334 0.000120 -0.272957
C82   C     C_3   0.273896 0.942445 0.989076 -0.269951
C83   C     C_3   0.189032 0.442319 0.000117 -0.272946
C84   C     C_3   0.773893 0.442459 0.989067 -0.269916
C85   C     C_3   0.705275 0.136245 0.047612 -0.223843
C86   C     C_3   0.298512 0.156506 0.950846 -0.247751
C87   C     C_3   0.205268 0.636236 0.047606 -0.223845
C88   C     C_3   0.798514 0.656516 0.950846 -0.247770
C89   C     C_3   0.731375 0.011984 0.060814 -0.009805
C90   C     C_3   0.258651 0.042462 0.933160 0.002600
C91   C     C_3   0.231376 0.511981 0.060813 -0.009804
C92   C     C_3   0.758647 0.542484 0.933157 0.002602
H93   H     H_    0.648841 0.142135 0.047920 0.160672
H94   H     H_    0.351719 0.150226 0.934671 0.199757
H95   H     H_    0.148833 0.642110 0.047906 0.160668
H96   H     H_    0.851719 0.650214 0.934678 0.199759
H97   H     H_    0.720634 0.191920 0.090490 0.262200
H98   H     H_    0.276786 0.229118 0.919610 0.210918
H99   H     H_    0.220617 0.691922 0.090484 0.262185
H100  H     H_    0.776804 0.729134 0.919606 0.210861
C93   C     C_3   0.755837 0.081235 0.927477 0.033947
C94   C     C_3   0.243025 0.102154 0.068052 0.040257
C95   C     C_3   0.255840 0.581232 0.927477 0.033940
C96   C     C_3   0.743026 0.602156 0.068052 0.040258
C97   C     C_3   0.696967 0.996597 0.922360 0.120185
C98   C     C_3   0.280307 0.985489 0.067465 0.125127
C99   C     C_3   0.196976 0.496581 0.922358 0.120196
C100  C     C_3   0.780312 0.485496 0.067458 0.125110
C101  C     C_3   0.732666 0.180323 0.976817 -0.317036
C102  C     C_3   0.292634 0.187914 0.030856 -0.296744
C103  C     C_3   0.232665 0.680317 0.976814 -0.317030
C104  C     C_3   0.792629 0.687927 0.030855 -0.296730
H101  H     H_    0.778339 0.227490 0.991426 0.142116
H102  H     H_    0.277437 0.277352 0.039431 0.111939
H103  H     H_    0.278343 0.727478 0.991424 0.142102
H104  H     H_    0.777416 0.777357 0.039424 0.111935
H105  H     H_    0.692467 0.233071 0.949635 0.152433
H106  H     H_    0.343645 0.186438 0.056077 0.208108
H107  H     H_    0.192468 0.733066 0.949630 0.152441
H108  H     H_    0.843638 0.686473 0.056081 0.208099
H109  H     H_    0.636911 0.962300 0.013099 0.079202
H110  H     H_    0.318320 0.896623 0.972044 0.054938
H111  H     H_    0.136917 0.462269 0.013086 0.079201
H112  H     H_    0.818315 0.396643 0.972025 0.054923
H113  H     H_    0.652092 0.051223 0.912420 0.193487
H114  H     H_    0.333984 0.001422 0.074895 0.165744
H115  H     H_    0.152099 0.551197 0.912414 0.193498
H116  H     H_    0.833988 0.501441 0.074886 0.165740
C105  C     C_3   0.989650 0.484843 0.048777 0.105724
C106  C     C_3   0.959907 0.485620 0.972952 0.078574
C107  C     C_3   0.489642 0.984845 0.048792 0.105729
C108  C     C_3   0.459915 0.985619 0.972959 0.078530
H117  H     H_    0.041323 0.522363 0.045612 0.149468
H118  H     H_    0.905571 0.500821 0.977348 0.081667
H119  H     H_    0.541314 0.022373 0.045634 0.149487
H120  H     H_    0.405573 0.000804 0.977341 0.081701
H121  H     H_    0.600293 0.816486 0.052631 0.099055
H122  H     H_    0.375460 0.755010 0.956921 0.094097
H123  H     H_    0.100284 0.316465 0.052599 0.099030
H124  H     H_    0.875440 0.255011 0.956943 0.094050
H125  H     H_    0.576507 0.885003 0.929698 0.225757
H126  H     H_    0.389441 0.840224 0.077203 0.222633
H127  H     H_    0.076490 0.384975 0.929670 0.225781
H128  H     H_    0.889451 0.340250 0.077212 0.222665
C109  C     C_3   0.051519 0.292797 0.030155 -0.307119
C110  C     C_3   0.926223 0.265264 0.978644 -0.306846
C111  C     C_3   0.551529 0.792811 0.030182 -0.307102
C112  C     C_3   0.426242 0.765258 0.978637 -0.306828
C113  C     C_3   0.931837 0.286267 0.060912 -0.256500
C114  C     C_3   0.041961 0.317557 0.949066 -0.239876
C115  C     C_3   0.431837 0.786255 0.060910 -0.256528
C116  C     C_3   0.541990 0.817569 0.949095 -0.240020
C117  C     C_3   0.997845 0.354597 0.075802 0.004147
C118  C     C_3   0.968855 0.358723 0.937426 -0.000588
C119  C     C_3   0.497841 0.854598 0.075815 0.004207
C120  C     C_3   0.468893 0.858721 0.937437 -0.000666
H129  H     H_    0.931110 0.201793 0.090596 0.161395
H130  H     H_    0.051856 0.235478 0.918727 0.179498
H131  H     H_    0.431112 0.701780 0.090593 0.161376
H132  H     H_    0.551895 0.735490 0.918759 0.179485
H133  H     H_    0.948011 0.177118 0.967996 0.148554
H134  H     H_    0.046880 0.196357 0.038769 0.153172
H135  H     H_    0.448033 0.677111 0.967996 0.148548
H136  H     H_    0.546887 0.696370 0.038791 0.153192
S1    S     S_3+6 0.699225 0.907625 0.840394 -0.033701
O53   O     O_2   0.679189 0.986966 0.779368 -0.252507
O54   O     O_2   0.769367 0.862855 0.825413 -0.301046
O55   O     O_3   0.644411 0.796022 0.837944 -0.591343
H137  H     H_    0.649570 0.760833 0.789708 0.377948
S2    S     S_3+6 0.261153 0.890815 0.144441 -0.028543
O56   O     O_2   0.278035 0.956340 0.212328 -0.236315
O57   O     O_2   0.186643 0.862169 0.144896 -0.289872
O58   O     O_3   0.307928 0.767767 0.149417 -0.609107
H138  H     H_    0.297357 0.733002 0.196726 0.385018
S3    S     S_3+6 0.199247 0.407607 0.840395 -0.033710
O59   O     O_2   0.179207 0.486945 0.779367 -0.252679
O60   O     O_2   0.269392 0.362850 0.825417 -0.300907
O61   O     O_3   0.144441 0.295991 0.837950 -0.591365
H139  H     H_    0.149454 0.261024 0.789631 0.377974
S4    S     S_3+6 0.761168 0.390820 0.144437 -0.028565
O62   O     O_2   0.778055 0.456348 0.212321 -0.236336
O63   O     O_2   0.686659 0.362169 0.144900 -0.289863
O64   O     O_3   0.807944 0.267775 0.149410 -0.609136
H140  H     H_    0.797396 0.233029 0.196729 0.385020
N1    N     N_R   0.951958 0.563883 0.097267 0.043828
O65   O     O_R   0.965007 0.675641 0.094852 -0.303541
O66   O     O_R   0.920932 0.524178 0.153760 -0.317053
N2    N     N_R   0.988304 0.587595 0.934203 0.079031
O67   O     O_R   0.968432 0.692850 0.950699 -0.326327
O68   O     O_R   0.040646 0.578127 0.892975 -0.339537
N3    N     N_R   0.451941 0.063872 0.097283 0.043812
O69   O     O_R   0.464994 0.175633 0.094886 -0.303532
O70   O     O_R   0.420919 0.024148 0.153775 -0.317055
N4    N     N_R   0.488307 0.087609 0.934222 0.078960
O71   O     O_R   0.468441 0.192863 0.950736 -0.326330
O72   O     O_R   0.540633 0.078148 0.892960 -0.339486

loop_
_geom_bond_atom_site_label_1
_geom_bond_atom_site_label_2
_geom_bond_distance
_ccdc_geom_bond_type
C108  N4    1.481558 S    
O4    C12   1.300079 A    
O39   C19   1.318768 A    
C46   C50   1.524330 S    
C21   C118  1.488476 S    
C96   C100  1.520053 S    
C59   H55   1.106935 S    
Cr7   O51   2.062630 S    
C103  H107  1.113195 S    
C114  C118  1.528705 S    
C58   H54   1.106936 S    
C93   C97   1.511429 S    
C87   C103  1.516146 S    
O25   C21   1.304900 A    
C27   C43   1.549803 S    
C77   H81   1.097831 S    
C87   H99   1.062753 S    
C1    O9    1.295357 A    
C2    C43   1.473799 S    
O44   Cr12  2.127387 S    
C3    O11   1.295357 A    
C61   C66   1.531657 S    
C112  C115  1.555305 S    
C56   H36   1.093937 S    
O55   H137  0.990758 S    
S2    O56   1.504410 D    
C55   H35   1.093969 S    
C68   H68   1.110837 S    
H20   C36   1.091334 S    
H125  C116  1.090525 S    
O58   H138  0.990879 S    
C45   C49   1.524268 S    
O2    C10   1.300079 A    
C47   C55   1.567372 S    
O17   Cr9   2.103024 S    
C7    C47   1.471725 S    
H58   C64   1.091122 S    
H59   C61   1.091098 S    
O31   Cr3   1.994435 S    
H19   C35   1.091316 S    
O16   Cr8   1.987369 S    
C114  H130  1.111815 S    
C64   C67   1.531611 S    
C93   C101  1.529346 S    
C97   S1    1.835082 S    
C99   S3    1.835059 S    
C76   H80   1.093512 S    
C73   H73   1.107606 S    
O28   Cr4   2.111447 S    
O12   Cr8   2.127820 S    
O22   Cr10  2.005033 S    
C81   H109  1.081206 S    
O46   Cr10  1.982086 S    
C35   H43   1.107127 S    
C61   H70   1.107130 S    
O48   C24   1.320244 A    
C33   H41   1.107127 S    
S2    O58   1.681180 S    
C81   C89   1.609613 S    
C51   H47   1.111618 S    
H24   C52   1.108259 S    
C85   C89   1.526994 S    
C111  C119  1.534629 S    
C58   H50   1.084041 S    
C61   C69   1.571291 S    
C112  C120  1.563366 S    
C25   C29   1.528166 S    
Cr12  O52   2.069580 S    
C27   C31   1.528166 S    
S4    O62   1.504405 D    
C100  H116  1.080816 S    
C31   C47   1.552076 S    
C6    C46   1.471779 S    
C17   O41   1.279220 A    
C19   O43   1.279203 A    
C20   O44   1.300188 A    
C73   H77   1.111221 S    
C20   C96   1.465164 S    
O1    Cr1   2.117310 S    
Cr8   O52   2.062628 S    
C79   C95   1.570046 S    
O46   C22   1.320245 A    
C105  C117  1.576598 S    
C17   C93   1.475797 S    
C64   C72   1.571321 S    
N4    O71   1.300489 A    
C39   C43   1.524230 S    
C28   C32   1.528154 S    
C37   C41   1.524230 S    
C16   O36   1.349824 A    
C67   H67   1.110839 S    
C38   H26   1.110422 S    
S1    O53   1.503878 D    
C88   H100  1.097285 S    
C95   C99   1.511418 S    
O27   C23   1.304768 A    
C31   H11   1.089526 S    
H23   C51   1.108251 S    
O32   C16   1.363717 A    
H128  C113  1.083224 S    
O47   Cr11  1.981839 S    
C74   C78   1.507724 S    
O21   C9    1.309750 A    
C12   C71   1.479871 S    
C76   C92   1.530394 S    
C25   C41   1.549803 S    
H124  C110  1.082316 S    
C18   C94   1.465156 S    
O24   C12   1.309718 A    
H21   C49   1.108251 S    
C28   C44   1.549813 S    
C8    C48   1.471779 S    
O30   C14   1.363722 A    
C79   H83   1.097830 S    
C105  H117  1.106441 S    
C28   H4    1.085723 S    
C36   C44   1.573593 S    
C75   C91   1.563941 S    
O32   Cr4   1.994539 S    
C26   C30   1.528154 S    
C53   H33   1.093969 S    
C39   C55   1.532477 S    
C63   C68   1.531657 S    
C40   C56   1.532484 S    
O11   Cr7   2.128184 S    
C104  H104  1.075464 S    
O27   Cr3   2.111572 S    
C96   C104  1.550849 S    
O3    Cr3   2.117310 S    
C22   C117  1.492100 S    
C115  C119  1.539342 S    
H126  C115  1.083247 S    
C34   C50   1.535979 S    
Cr5   O49   2.062630 S    
C83   C99   1.585351 S    
C94   C98   1.520067 S    
C84   C100  1.545732 S    
S4    O64   1.681171 S    
C13   C92   1.515858 S    
C57   H53   1.106936 S    
C67   C71   1.524088 S    
N1    O66   1.303633 A    
C87   H95   1.114040 S    
O22   C10   1.309718 A    
C81   C97   1.585364 S    
C4    O12   1.295392 A    
C2    O10   1.295392 A    
C111  H136  1.115534 S    
C32   H16   1.108293 S    
O61   H139  0.990829 S    
C112  H135  1.111740 S    
C55   H39   1.107393 S    
O5    C1    1.302505 A    
O3    C11   1.300066 A    
O8    C4    1.302543 A    
S1    O55   1.669679 S    
C104  H108  1.106008 S    
Cr1   O49   2.068773 S    
C97   H113  1.096140 S    
C101  H105  1.113193 S    
H64   C65   1.107628 S    
C64   H71   1.107144 S    
H60   C62   1.091122 S    
C115  H131  1.111346 S    
C74   C90   1.530410 S    
C94   C102  1.550848 S    
C57   C69   1.549717 S    
O26   Cr2   2.111447 S    
Cr3   O51   2.068773 S    
C5    O17   1.300379 A    
O29   C13   1.342028 A    
O28   C24   1.298750 A    
O14   C6    1.302030 A    
H122  C112  1.082400 S    
C8    O20   1.300304 A    
C35   C51   1.535968 S    
C82   H110  1.070037 S    
C111  C116  1.547722 S    
C31   H15   1.108284 S    
C75   H79   1.111230 S    
C45   C53   1.567372 S    
O40   Cr8   2.006998 S    
C40   H32   1.108197 S    
C48   C56   1.567378 S    
O41   Cr9   2.127572 S    
C38   C54   1.532484 S    
C66   C70   1.524097 S    
O31   C15   1.342062 A    
C9    C70   1.479854 S    
C113  C117  1.539299 S    
O33   Cr5   2.107257 S    
C60   C72   1.549679 S    
C33   C49   1.535967 S    
C86   C102  1.539339 S    
C25   H1    1.085723 S    
S3    O61   1.669690 S    
O35   Cr7   2.107257 S    
O29   Cr1   1.994435 S    
C85   H97   1.062727 S    
N2    O67   1.300449 A    
C78   H86   1.113979 S    
C100  S4    1.837908 S    
C57   H49   1.084051 S    
S2    O57   1.504080 D    
C30   C46   1.552029 S    
C27   H7    1.108624 S    
C23   C120  1.488263 S    
Cr9   O49   2.069689 S    
C60   H52   1.084040 S    
C24   C119  1.492030 S    
C18   O42   1.300189 A    
Cr11  O51   2.069689 S    
O26   C22   1.298754 A    
O20   Cr12  2.103318 S    
C73   C77   1.498912 S    
C49   H45   1.111619 S    
C106  C118  1.601987 S    
C86   C90   1.553294 S    
C108  H120  1.088411 S    
C39   H27   1.110419 S    
C40   H28   1.110421 S    
C76   C80   1.507717 S    
C38   C42   1.524228 S    
C29   H13   1.108284 S    
C66   H66   1.110838 S    
C80   H84   1.049890 S    
C113  H129  1.111340 S    
C83   C91   1.609628 S    
H90   C82   1.083605 S    
C101  H101  1.081222 S    
C62   C65   1.531611 S    
C103  H103  1.081270 S    
C83   H111  1.081195 S    
C84   H112  1.070027 S    
C26   H2    1.085720 S    
H121  C111  1.078943 S    
C88   H96   1.095693 S    
C105  N1    1.480904 S    
C68   C72   1.524098 S    
H123  C109  1.078901 S    
C60   H56   1.106936 S    
O42   Cr10  2.127387 S    
O18   Cr10  2.103318 S    
C19   C95   1.475791 S    
O34   Cr6   2.107576 S    
C79   H87   1.109278 S    
O6    Cr2   1.993483 S    
C47   C51   1.524267 S    
O24   Cr12  2.005033 S    
O30   Cr2   1.994539 S    
C4    C41   1.473799 S    
C106  H118  1.088357 S    
O1    C9    1.300066 A    
O48   Cr12  1.982086 S    
S4    O63   1.504068 D    
N3    O69   1.301245 A    
O37   C17   1.318760 A    
C15   O35   1.312120 A    
C37   H29   1.108186 S    
Cr10  O50   2.069580 S    
C88   C92   1.553259 S    
O43   Cr11  2.127572 S    
C86   H94   1.095742 S    
O37   Cr5   2.007337 S    
S3    O59   1.503904 D    
O21   Cr9   2.005172 S    
C105  C106  1.525543 S    
O39   Cr7   2.007337 S    
C62   H69   1.107144 S    
O45   Cr9   1.981839 S    
O64   H140  0.990862 S    
C13   O33   1.312093 A    
C82   C90   1.572652 S    
O13   Cr5   1.987053 S    
C85   H93   1.114028 S    
O15   Cr7   1.987053 S    
C107  N3    1.480925 S    
H63   C66   1.107629 S    
C52   H48   1.111639 S    
O23   C11   1.309750 A    
C82   C98   1.545702 S    
H61   C68   1.107629 S    
C3    C42   1.473812 S    
C73   C89   1.563928 S    
C32   H12   1.089485 S    
C62   C70   1.571321 S    
C1    C44   1.473814 S    
C54   H38   1.107393 S    
C35   C43   1.573589 S    
H91   C83   1.081453 S    
C33   C41   1.573591 S    
C34   H42   1.107130 S    
O6    C2    1.302543 A    
H89   C81   1.081478 S    
C46   C54   1.567378 S    
O19   Cr11  2.103024 S    
C5    C45   1.471723 S    
H57   C63   1.091098 S    
C98   H114  1.080812 S    
C65   H65   1.110838 S    
C109  C114  1.547830 S    
C102  H106  1.105998 S    
O45   C21   1.335921 A    
O47   C23   1.335882 A    
O13   C5    1.302018 A    
C95   C103  1.529327 S    
C26   C42   1.549813 S    
O40   C20   1.294864 A    
C6    O18   1.300305 A    
C77   H85   1.109274 S    
C84   C92   1.572640 S    
O36   Cr8   2.107576 S    
C53   H37   1.107394 S    
C15   C90   1.515880 S    
O38   Cr6   2.006998 S    
C75   H75   1.107608 S    
C59   C60   1.541037 S    
C56   H40   1.107395 S    
C57   C58   1.541038 S    
O15   C7    1.302018 A    
O8    Cr4   1.993483 S    
C48   C52   1.524330 S    
C99   H115  1.096124 S    
N1    O65   1.301212 A    
O7    C3    1.302506 A    
C110  C113  1.555261 S    
C16   C89   1.563036 S    
C26   H6    1.108620 S    
C63   C71   1.571291 S    
C14   C91   1.563048 S    
C80   H88   1.113991 S    
C78   H82   1.049898 S    
C109  H134  1.115528 S    
C36   H44   1.107130 S    
O23   Cr11  2.005172 S    
C59   C71   1.549718 S    
C116  H132  1.111819 S    
C29   C45   1.552077 S    
O16   C8    1.302030 A    
S1    O54   1.501842 D    
C32   C48   1.552030 S    
C7    O19   1.300379 A    
Cr4   O52   2.068838 S    
O2    Cr2   2.117395 S    
O14   Cr6   1.987369 S    
C80   C96   1.563563 S    
Cr6   O50   2.062628 S    
C50   H46   1.111641 S    
C75   C79   1.498920 S    
O5    Cr1   1.993648 S    
C39   H31   1.108186 S    
C77   C93   1.570043 S    
C40   C44   1.524226 S    
C11   C72   1.479854 S    
C29   H9    1.089525 S    
O9    Cr5   2.128184 S    
C110  H133  1.111731 S    
C76   H76   1.114623 S    
H62   C67   1.107628 S    
H22   C50   1.108259 S    
C102  H102  1.075478 S    
O7    Cr3   1.993648 S    
C74   H74   1.114660 S    
C59   H51   1.084051 S    
H92   C84   1.083599 S    
C25   H5    1.108624 S    
C88   C104  1.539347 S    
N4    O72   1.296236 A    
N3    O70   1.303647 A    
C110  C118  1.563300 S    
H17   C33   1.091316 S    
Cr2   O50   2.068838 S    
S3    O60   1.501851 D    
C78   C94   1.563572 S    
C37   C53   1.532477 S    
N2    O68   1.296135 A    
C107  C108  1.525560 S    
C86   H98   1.097297 S    
C107  H119  1.106456 S    
C106  N2    1.481557 S    
C58   C70   1.549679 S    
C28   H8    1.108620 S    
O38   C18   1.294872 A    
C37   H25   1.110418 S    
C98   S2    1.837900 S    
O25   Cr1   2.111572 S    
C38   H30   1.108196 S    
C36   C52   1.535978 S    
H127  C114  1.090530 S    
C14   O34   1.349824 A    
C87   C91   1.527002 S    
C74   H78   1.093527 S    
C10   C69   1.479871 S    
C65   C69   1.524088 S    
C108  C120  1.602032 S    
C30   H10   1.089486 S    
C85   C101  1.516141 S    
C63   H72   1.107130 S    
O10   Cr6   2.127820 S    
O4    Cr4   2.117395 S    
C30   H14   1.108292 S    
C109  C117  1.534635 S    
H18   C34   1.091334 S    
C116  C120  1.528545 S    
C27   H3    1.085723 S    
C54   H34   1.093936 S    
C107  C119  1.576597 S    
C34   C42   1.573593 S    
