data_mof_unit_41936.cif
_audit_creation_date              2012-10-26T19:38:02-0400
_audit_creation_method            fapswitch 2.2
_symmetry_space_group_name_H-M    P1
_symmetry_Int_Tables_number       1
_space_group_crystal_system       triclinic
_cell_length_a                    10.624311
_cell_length_b                    15.94355
_cell_length_c                    16.903909
_cell_angle_alpha                 96.306262
_cell_angle_beta                  90.943265
_cell_angle_gamma                 93.221964
_cell_volume                      2840.77597727

loop_
_atom_site_label
_atom_site_type_symbol
_atom_type_description
_atom_site_fract_x
_atom_site_fract_y
_atom_site_fract_z
_atom_type_partial_charge
C1    C     C_R   0.501329 0.489247 0.347963 0.559345
C2    C     C_R   0.532531 0.259049 0.556823 -0.010894
C3    C     C_R   0.400140 0.825993 0.463308 -0.047928
C4    C     C_R   0.523288 0.173457 0.568783 -0.049824
C5    C     C_R   0.496754 0.886646 0.491463 0.186036
C6    C     C_R   0.475840 0.112443 0.507247 0.185341
C7    C     C_R   0.602633 0.858370 0.531178 0.012920
C8    C     C_R   0.431789 0.142089 0.435129 -0.009713
C9    C     C_R   0.612391 0.769655 0.536407 0.262328
C10   C     C_R   0.435147 0.231523 0.429269 0.260557
C11   C     C_R   0.259381 0.499752 0.499994 0.565533
C12   C     C_R   0.502124 0.510343 0.651734 0.573280
C13   C     C_R   0.740802 0.500081 0.499723 0.530094
C14   C     C_3   0.040157 0.462969 0.562784 -0.121875
C15   C     C_3   0.960565 0.535845 0.436455 -0.131340
C16   C     C_3   0.951933 0.419414 0.495063 -0.116767
C17   C     C_3   0.048781 0.579479 0.504223 -0.121346
C18   C     C_3   0.877869 0.499679 0.499444 0.046004
C19   C     C_3   0.122659 0.499403 0.499937 0.053543
C20   C     C_3   0.963945 0.543056 0.567140 -0.133897
C21   C     C_3   0.036870 0.455908 0.432259 -0.128639
C22   C     C_R   0.489725 0.480848 0.260029 0.018947
C23   C     C_R   0.432163 0.454010 0.095750 0.183575
C24   C     C_R   0.500042 0.515007 0.739238 0.026067
C25   C     C_R   0.411004 0.535122 0.224084 0.082899
C26   C     C_R   0.395985 0.475230 0.773522 0.084237
C27   C     C_R   0.382441 0.520513 0.143042 -0.111882
C28   C     C_R   0.392004 0.474363 0.855617 -0.107739
C29   C     C_3   0.704923 0.921751 0.568839 -0.230735
C30   C     C_3   0.701398 0.927771 0.660034 -0.296650
C31   C     C_3   0.815725 0.979754 0.698656 -0.471302
C32   C     C_3   0.372865 0.081861 0.367318 -0.244705
C33   C     C_3   0.471049 0.054733 0.305235 -0.289919
C34   C     C_R   0.491709 0.511311 0.905142 0.177877
C35   C     C_3   0.409003 0.003204 0.232071 -0.466208
C36   C     C_3   0.834434 0.745207 0.515677 -0.313532
C37   C     C_3   0.258630 0.285584 0.360148 -0.268619
C38   C     C_3   0.289005 0.346247 0.712896 -0.293739
C39   C     C_3   0.434902 0.684483 0.262333 -0.294309
C40   C     C_3   0.558315 0.323808 0.076094 -0.237991
C41   C     C_3   0.475417 0.243498 0.084791 -0.302038
C42   C     C_3   0.525539 0.166500 0.036376 -0.464724
C43   C     C_3   0.700334 0.594404 0.930154 -0.233377
C44   C     C_3   0.657484 0.671305 0.984277 -0.287633
C45   C     C_R   0.511578 0.398689 0.129250 0.025645
C46   C     C_3   0.769407 0.720699 0.028515 -0.470096
C47   C     C_3   0.652170 0.366141 0.244427 -0.255028
C48   C     C_3   0.780575 0.409154 0.228305 -0.304131
C49   C     C_3   0.888036 0.354435 0.247175 -0.464750
C50   C     C_3   0.716198 0.595811 0.751442 -0.250519
C51   C     C_3   0.721367 0.692985 0.765998 -0.295324
C52   C     C_3   0.853917 0.731333 0.754479 -0.466027
C53   C     C_3   0.566165 0.149198 0.648645 -0.255593
C54   C     C_3   0.453868 0.123300 0.698508 -0.285391
C55   C     C_3   0.494948 0.116031 0.784340 -0.467484
C56   C     C_R   0.594924 0.554618 0.872764 0.013023
C57   C     C_3   0.282737 0.849636 0.421122 -0.257223
C58   C     C_3   0.193264 0.894846 0.479692 -0.287523
C59   C     C_3   0.073380 0.916467 0.437293 -0.471295
C60   C     C_R   0.545173 0.413777 0.211847 -0.040248
C61   C     C_R   0.600596 0.555950 0.788467 -0.054169
C62   C     C_R   0.412771 0.740440 0.473040 0.004289
Cu1   Cu    Cu3+1 0.493870 0.415220 0.496180 0.933660
Cu2   Cu    Cu3+1 0.506130 0.584780 0.503820 0.927678
H1    H     H_    0.909957 0.353684 0.491095 0.111861
H2    H     H_    0.340542 0.695532 0.446662 0.160906
H3    H     H_    0.822242 0.043923 0.678857 0.141552
H4    H     H_    0.807292 0.985933 0.764395 0.135593
H5    H     H_    0.903514 0.947762 0.682697 0.151857
H6    H     H_    0.613555 0.956922 0.680656 0.161221
H7    H     H_    0.700328 0.863977 0.680409 0.182155
H8    H     H_    0.799123 0.904383 0.548209 0.142223
H9    H     H_    0.695233 0.985558 0.550275 0.163949
H10   H     H_    0.358171 0.945334 0.248998 0.142754
H11   H     H_    0.341615 0.041596 0.202906 0.145366
H12   H     H_    0.091140 0.645125 0.507964 0.106381
H13   H     H_    0.482387 0.984129 0.188753 0.137251
H14   H     H_    0.522741 0.111144 0.285814 0.142434
H15   H     H_    0.541564 0.016319 0.331302 0.189601
H16   H     H_    0.325616 0.026703 0.390531 0.169499
H17   H     H_    0.295130 0.111439 0.338188 0.130884
H18   H     H_    0.717150 0.689116 0.596881 0.281990
H19   H     H_    0.854926 0.681463 0.489247 0.168997
H20   H     H_    0.917904 0.773170 0.551560 0.128580
H21   H     H_    0.818671 0.783123 0.465371 0.127842
H22   H     H_    0.417060 0.234111 0.305908 0.220722
H23   H     H_    0.075208 0.432910 0.614351 0.113121
H24   H     H_    0.200694 0.240128 0.318029 0.087476
H25   H     H_    0.253681 0.349329 0.340261 0.160013
H26   H     H_    0.217773 0.285928 0.420332 0.156810
H27   H     H_    0.207117 0.459243 0.743916 0.232250
H28   H     H_    0.267936 0.319285 0.769447 0.117013
H29   H     H_    0.380618 0.324371 0.690767 0.173667
H30   H     H_    0.214387 0.322614 0.667919 0.133119
H31   H     H_    0.267068 0.611897 0.257009 0.231830
H32   H     H_    0.435576 0.699200 0.199551 0.121427
H33   H     H_    0.533378 0.680032 0.283958 0.172742
H34   H     H_    0.925212 0.565422 0.384574 0.093627
H35   H     H_    0.392714 0.737082 0.298993 0.125156
H36   H     H_    0.527662 0.175914 0.972267 0.149623
H37   H     H_    0.622130 0.155540 0.057589 0.146082
H38   H     H_    0.463127 0.109692 0.043449 0.138518
H39   H     H_    0.471391 0.231451 0.148229 0.151660
H40   H     H_    0.377760 0.252011 0.063692 0.165455
H41   H     H_    0.556560 0.335166 0.012469 0.172064
H42   H     H_    0.658659 0.314102 0.089252 0.131105
H43   H     H_    0.820238 0.679175 0.065216 0.149886
H44   H     H_    0.835396 0.746287 0.985579 0.147490
H45   H     H_    0.931713 0.578539 0.622456 0.094734
H46   H     H_    0.735314 0.774369 0.068353 0.136023
H47   H     H_    0.607592 0.714301 0.948749 0.149034
H48   H     H_    0.591015 0.650807 0.029271 0.188396
H49   H     H_    0.731580 0.546115 0.967772 0.147637
H50   H     H_    0.785907 0.614161 0.899211 0.138123
H51   H     H_    0.883938 0.340263 0.309990 0.153541
H52   H     H_    0.881533 0.294113 0.207236 0.144250
H53   H     H_    0.979818 0.388379 0.237886 0.136717
H54   H     H_    0.786301 0.421475 0.164991 0.162012
H55   H     H_    0.792452 0.470916 0.265966 0.155367
H56   H     H_    0.070300 0.420947 0.377105 0.088464
H57   H     H_    0.648478 0.361650 0.308854 0.185723
H58   H     H_    0.646572 0.299114 0.218433 0.134540
H59   H     H_    0.921039 0.709995 0.798128 0.143728
H60   H     H_    0.886543 0.712615 0.693493 0.158084
H61   H     H_    0.854014 0.801309 0.764308 0.144528
H62   H     H_    0.653108 0.717679 0.725227 0.166752
H63   H     H_    0.693187 0.715107 0.826982 0.168437
H64   H     H_    0.802543 0.569981 0.774751 0.123890
H65   H     H_    0.719541 0.577309 0.686474 0.136697
H66   H     H_    0.412604 0.094884 0.818226 0.136842
H67   H     H_    0.310611 0.443737 0.880531 0.136948
H68   H     H_    0.568438 0.069417 0.786184 0.149789
H69   H     H_    0.532953 0.178400 0.813404 0.148024
H70   H     H_    0.381579 0.171026 0.698933 0.149341
H71   H     H_    0.409671 0.061456 0.672406 0.181794
H72   H     H_    0.630485 0.097147 0.639330 0.158067
H73   H     H_    0.621589 0.203004 0.682724 0.118679
H74   H     H_    0.096798 0.959087 0.391219 0.145486
H75   H     H_    0.022215 0.857981 0.408715 0.143654
H76   H     H_    0.010645 0.948989 0.481133 0.133842
H77   H     H_    0.166885 0.853174 0.526127 0.150448
H78   H     H_    0.324466 0.563619 0.115584 0.121356
H79   H     H_    0.239986 0.954104 0.509642 0.194354
H80   H     H_    0.309715 0.888455 0.373107 0.147966
H81   H     H_    0.230511 0.792150 0.391040 0.115067
H82   H     H_    0.577044 0.303497 0.602867 0.138422
N1    N     N_2   0.418614 0.451914 0.012418 -0.275113
N2    N     N_2   0.361648 0.606255 0.268742 -0.502928
N3    N     N_2   0.492510 0.506664 0.988539 -0.263475
N4    N     N_R   0.515330 0.712130 0.509560 -0.237411
N5    N     N_R   0.484670 0.287870 0.490440 -0.220102
N6    N     N_2   0.496903 0.971186 0.468899 -0.270780
N7    N     N_2   0.467978 0.025228 0.523930 -0.269247
N8    N     N_2   0.725994 0.741314 0.566534 -0.514788
N9    N     N_2   0.388793 0.263143 0.359603 -0.473967
N10   N     N_2   0.292536 0.437597 0.725130 -0.507479
O1    O     O_R   0.494270 0.420530 0.382500 -0.484944
O2    O     O_R   0.505730 0.579470 0.617500 -0.504897
O3    O     O_R   0.504620 0.563720 0.388950 -0.470107
O4    O     O_R   0.495380 0.436280 0.611050 -0.503496
O5    O     O_R   0.311680 0.428420 0.496760 -0.490047
O6    O     O_R   0.688320 0.571580 0.503240 -0.517749
O7    O     O_R   0.322030 0.571610 0.503210 -0.519663
O8    O     O_R   0.677970 0.428390 0.496790 -0.515071

loop_
_geom_bond_atom_site_label_1
_geom_bond_atom_site_label_2
_ccdc_geom_bond_type
C15   C18   S    
C35   H10   S    
C34   C56   A    
C24   C61   A    
C23   C45   A    
C57   H81   S    
C4    C53   S    
C41   C42   S    
C37   N9    S    
C37   H24   S    
C26   N10   S    
C38   N10   S    
H22   N9    S    
C17   C20   S    
C30   H7    S    
C36   N8    S    
C13   O6    A    
C45   C60   A    
C53   C54   S    
C31   H3    S    
C32   H17   S    
C35   H11   S    
C16   C21   S    
C5    N6    S    
C13   C18   S    
C7    C29   S    
N1    N3    D    
C24   C26   A    
C14   H23   S    
C21   H56   S    
C43   H50   S    
C22   C60   A    
C30   C31   S    
C52   H59   S    
C33   H14   S    
C47   H57   S    
C29   H9    S    
C36   H19   S    
C54   H70   S    
C38   H28   S    
C11   O5    A    
C27   H78   S    
C31   H4    S    
C38   H29   S    
C15   C17   S    
C2    H82   S    
C17   C19   S    
C47   C60   S    
C58   H79   S    
C49   H53   S    
C22   C25   A    
C46   H44   S    
C39   N2    S    
C17   H12   S    
C23   C27   A    
C29   H8    S    
C28   C34   A    
C1    C22   S    
C40   C45   S    
C53   H72   S    
Cu1   O4    S    
Cu2   O7    S    
C42   H38   S    
C30   H6    S    
C34   N3    S    
C44   C46   S    
C48   H55   S    
Cu1   O8    S    
C9    N4    A    
C62   H2    S    
C51   C52   S    
C8    C32   S    
C14   C20   S    
C1    O3    A    
Cu2   O6    S    
C5    C7    A    
C33   H15   S    
C47   H58   S    
C6    C8    A    
C59   H74   S    
C58   C59   S    
C55   H69   S    
C23   N1    S    
C35   H13   S    
C20   H45   S    
Cu2   N4    S    
C2    C4    A    
C43   C44   S    
C29   C30   S    
C50   H65   S    
C42   H36   S    
C10   N5    A    
C32   H16   S    
C31   H5    S    
C39   H35   S    
C47   C48   S    
C59   H75   S    
C55   H66   S    
C11   C19   S    
C46   H43   S    
C38   H30   S    
C11   O7    A    
C50   C51   S    
C16   C18   S    
C12   O4    A    
Cu1   N5    S    
C44   H48   S    
C4    C6    A    
C48   C49   S    
C49   H51   S    
C9    N8    S    
C46   H46   S    
C14   C16   S    
C50   H64   S    
Cu1   O1    S    
C15   H34   S    
C42   H37   S    
C3    C57   S    
C13   O8    A    
C40   H42   S    
C53   H73   S    
C3    C62   A    
C2    N5    A    
C7    C9    A    
C54   C55   S    
C40   C41   S    
C62   N4    A    
C57   H80   S    
C37   H26   S    
C51   H62   S    
C14   C19   S    
H31   N2    S    
C3    C5    A    
C10   N9    S    
C48   H54   S    
C52   H61   S    
C36   H21   S    
C25   C27   A    
C12   C24   S    
C26   C28   A    
C41   H40   S    
C37   H25   S    
C28   H67   S    
C51   H63   S    
C32   C33   S    
C1    O1    A    
H27   N10   S    
Cu1   O5    S    
C43   H49   S    
C52   H60   S    
C58   H77   S    
C57   C58   S    
C59   H76   S    
C36   H20   S    
C54   H71   S    
Cu2   O3    S    
C33   C35   S    
C25   N2    S    
C18   C20   S    
C39   H32   S    
C6    N7    S    
C39   H33   S    
Cu1   Cu2   S    
H18   N8    S    
C44   H47   S    
C41   H39   S    
C43   C56   S    
C15   C21   S    
C49   H52   S    
N6    N7    D    
C8    C10   A    
C55   H68   S    
Cu2   O2    S    
C50   C61   S    
C56   C61   A    
C16   H1    S    
C12   O2    A    
C40   H41   S    
C19   C21   S    
