data_mof_unit_51895.cif
_audit_creation_date              2012-12-11T14:13:16-0500
_audit_creation_method            fapswitch 2.2
_symmetry_space_group_name_H-M    P1
_symmetry_Int_Tables_number       1
_space_group_crystal_system       triclinic
_cell_length_a                    11.552818
_cell_length_b                    18.714125
_cell_length_c                    9.955034
_cell_angle_alpha                 90.413734
_cell_angle_beta                  110.546027
_cell_angle_gamma                 89.883162
_cell_volume                      2015.32850385

loop_
_atom_site_label
_atom_site_type_symbol
_atom_type_description
_atom_site_fract_x
_atom_site_fract_y
_atom_site_fract_z
_atom_type_partial_charge
C1    C     C_R   0.073625 0.646095 0.140021 0.537133
C2    C     C_R   0.926832 0.353784 0.860039 0.544909
C3    C     C_R   0.924997 0.145429 0.858825 0.557387
C4    C     C_R   0.075010 0.854573 0.141178 0.558876
C5    C     C_R   0.374041 0.443504 0.433241 0.035983
C6    C     C_R   0.552893 0.526336 0.382544 0.009417
C7    C     C_R   0.606441 0.958110 0.520259 0.031528
C8    C     C_R   0.393377 0.042027 0.479299 0.034246
C9    C     C_2   0.404897 0.923007 0.915937 -0.117323
C10   C     C_2   0.595159 0.076910 0.083844 -0.118102
C11   C     C_2   0.593402 0.427648 0.065106 -0.096679
C12   C     C_2   0.392173 0.573479 0.927137 -0.094381
C13   C     C_2   0.504520 0.960334 0.995512 0.003838
C14   C     C_2   0.495600 0.039567 0.004135 0.005098
C15   C     C_2   0.495507 0.461385 0.970560 0.006012
C16   C     C_2   0.499561 0.539777 0.953395 -0.021631
C17   C     C_2   0.013900 0.923585 0.115652 -0.107138
C18   C     C_2   0.986129 0.076424 0.884360 -0.106635
C19   C     C_2   0.991138 0.421729 0.888093 -0.117581
C20   C     C_2   0.011235 0.577701 0.112008 -0.080531
C21   C     C_2   0.022374 0.963582 0.008856 -0.143367
C22   C     C_2   0.977720 0.036440 0.991207 -0.143230
C23   C     C_2   0.981739 0.462761 0.993918 -0.119747
C24   C     C_2   0.028743 0.535022 0.012934 -0.128563
C25   C     C_R   0.432942 0.639051 0.367580 0.554153
C26   C     C_R   0.531598 0.353469 0.560624 0.534784
C27   C     C_R   0.530459 0.146761 0.556540 0.532191
C28   C     C_R   0.469490 0.853284 0.443364 0.550309
C29   C     C_R   0.376847 0.646573 0.960461 0.582979
C30   C     C_R   0.622376 0.354779 0.036568 0.572143
C31   C     C_R   0.622095 0.146718 0.039526 0.551471
C32   C     C_R   0.377920 0.853254 0.960425 0.562474
C33   C     C_R   0.497811 0.419856 0.480428 -0.007587
C34   C     C_R   0.443121 0.560507 0.386008 -0.029735
C35   C     C_R   0.494115 0.925199 0.510316 -0.029111
C36   C     C_R   0.505716 0.074921 0.489311 -0.027213
C37   C     C_R   0.273958 0.396913 0.418640 -0.038834
C38   C     C_R   0.636070 0.555658 0.320976 -0.083133
C39   C     C_R   0.716827 0.918106 0.553310 -0.034433
C40   C     C_R   0.283037 0.082073 0.446290 -0.034771
C41   C     C_R   0.160516 0.424046 0.414242 -0.083896
C42   C     C_R   0.761028 0.537582 0.373103 -0.124859
C43   C     C_R   0.823339 0.948688 0.543471 -0.084826
C44   C     C_R   0.176483 0.051508 0.456030 -0.084980
C45   C     C_R   0.147739 0.497092 0.429588 -0.104470
C46   C     C_R   0.803597 0.489702 0.485339 -0.120697
C47   C     C_R   0.820461 0.018686 0.496783 -0.094532
C48   C     C_R   0.179283 0.981492 0.502600 -0.094403
C49   C     C_R   0.242943 0.543398 0.431691 -0.076174
C50   C     C_R   0.718628 0.454344 0.531572 -0.066004
C51   C     C_R   0.713866 0.059698 0.469841 -0.054796
C52   C     C_R   0.285851 0.940449 0.529548 -0.055246
C53   C     C_R   0.352385 0.517513 0.415420 -0.002199
C54   C     C_R   0.590169 0.464949 0.464010 0.004364
C55   C     C_R   0.608315 0.031751 0.492531 0.013190
C56   C     C_R   0.391461 0.968376 0.506959 0.011420
Cr1   Cr    Cr6+3 0.187610 0.750000 0.979860 1.018784
Cr2   Cr    Cr6+3 0.812390 0.250000 0.020140 1.017004
Cr3   Cr    Cr6+3 0.245810 0.750000 0.341640 1.014117
Cr4   Cr    Cr6+3 0.754190 0.250000 0.658360 1.016289
Cr5   Cr    Cr6+3 0.485760 0.750000 0.219910 1.075147
Cr6   Cr    Cr6+3 0.514240 0.250000 0.780090 1.100734
H1    H     H_    0.085199 0.388231 0.407541 0.110175
H2    H     H_    0.824888 0.563100 0.330897 0.118200
H3    H     H_    0.906817 0.917261 0.567438 0.102830
H4    H     H_    0.093036 0.082961 0.432096 0.100352
H5    H     H_    0.063633 0.518178 0.438960 0.098307
H6    H     H_    0.901557 0.479552 0.535931 0.113149
H7    H     H_    0.901048 0.041444 0.481818 0.099809
H8    H     H_    0.098661 0.958747 0.517504 0.100301
H9    H     H_    0.283833 0.339514 0.414067 0.122293
H10   H     H_    0.606993 0.594371 0.236435 0.163860
H11   H     H_    0.720702 0.862885 0.586471 0.130556
H12   H     H_    0.279243 0.137318 0.413265 0.119229
H13   H     H_    0.230260 0.597910 0.454657 0.184964
H14   H     H_    0.754190 0.423370 0.626378 0.178112
H15   H     H_    0.714231 0.112559 0.427015 0.139908
H16   H     H_    0.285415 0.887595 0.572361 0.142341
H17   H     H_    0.674987 0.050521 0.158656 0.128862
H18   H     H_    0.325051 0.949400 0.841153 0.127820
H19   H     H_    0.307439 0.543230 0.906957 0.108238
H20   H     H_    0.669311 0.458005 0.137877 0.125711
H21   H     H_    0.933049 0.056613 0.063621 0.161555
H22   H     H_    0.067081 0.943417 0.936473 0.161535
H23   H     H_    0.081788 0.552734 0.948005 0.151938
H24   H     H_    0.933517 0.444163 0.063441 0.177231
H25   H     H_    0.025463 0.055097 0.807894 0.111787
H26   H     H_    0.974525 0.944902 0.192088 0.112078
H27   H     H_    0.962935 0.559097 0.181112 0.109095
H28   H     H_    0.033312 0.441676 0.813726 0.107719
O1    O     O_R   0.267710 0.668200 0.902110 -0.526826
O2    O     O_R   0.732290 0.331800 0.097890 -0.527853
O3    O     O_R   0.732290 0.168200 0.097890 -0.540569
O4    O     O_R   0.267710 0.831800 0.902110 -0.536222
O5    O     O_R   0.099480 0.674460 0.038850 -0.500045
O6    O     O_R   0.900520 0.325540 0.961150 -0.497683
O7    O     O_R   0.900520 0.174460 0.961150 -0.501470
O8    O     O_R   0.099480 0.825540 0.038850 -0.497974
O9    O     O_R   0.116720 0.669210 0.267660 -0.550715
O10   O     O_R   0.883280 0.330790 0.732340 -0.536342
O11   O     O_R   0.883280 0.169210 0.732340 -0.516071
O12   O     O_R   0.116720 0.830790 0.267660 -0.515249
O13   O     O_R   0.366710 0.675440 0.427590 -0.503578
O14   O     O_R   0.633290 0.324560 0.572410 -0.520248
O15   O     O_R   0.633290 0.175440 0.572410 -0.514299
O16   O     O_R   0.366710 0.824560 0.427590 -0.507211
O17   O     O_R   0.534870 0.669390 0.371760 -0.512691
O18   O     O_R   0.465130 0.330610 0.628240 -0.493149
O19   O     O_R   0.465130 0.169390 0.628240 -0.487943
O20   O     O_R   0.534870 0.830610 0.371760 -0.479129
O21   O     O_R   0.453080 0.674480 0.075160 -0.503183
O22   O     O_R   0.546920 0.325520 0.924840 -0.458056
O23   O     O_R   0.546920 0.174480 0.924840 -0.453385
O24   O     O_R   0.453080 0.825520 0.075160 -0.447618
O25   O     O_3   0.306390 0.750000 0.180470 -0.283959
O26   O     O_3   0.693610 0.250000 0.819530 -0.260130
C57   C     C_2   0.377605 0.078076 0.928351 0.584513
O27   O     O_2   0.329014 0.073944 0.797930 -0.528433
O28   O     O_R   0.326588 0.122102 0.007118 -0.698002
H29   H     H_    0.248019 0.146575 0.944425 0.330694
C58   C     C_2   0.622528 0.921795 0.071091 0.585672
O29   O     O_2   0.671378 0.925975 0.201476 -0.528946
O30   O     O_R   0.673223 0.877651 0.992178 -0.692246
H30   H     H_    0.751813 0.853145 0.054724 0.330964
C59   C     C_2   0.614716 0.577598 0.955965 0.561054
O31   O     O_2   0.708732 0.543558 0.970590 -0.560387
O32   O     O_R   0.614223 0.651294 0.933270 -0.670106
H31   H     H_    0.697341 0.669878 0.935733 0.340704
C60   C     C_2   0.379205 0.421724 0.887526 0.589689
O33   O     O_2   0.324864 0.435043 0.760820 -0.521231
O34   O     O_R   0.332067 0.370364 0.956025 -0.697142
H32   H     H_    0.253005 0.347679 0.889203 0.327666

loop_
_geom_bond_atom_site_label_1
_geom_bond_atom_site_label_2
_ccdc_geom_bond_type
C32   O4    A    
C4    O8    A    
C12   C29   S    
C17   H26   S    
Cr3   O9    S    
C44   H4    S    
C7    C55   A    
C1    O9    A    
O30   H30   S    
Cr1   O25   S    
Cr6   O26   S    
C50   C54   A    
C5    C53   A    
Cr2   O3    S    
C38   C42   A    
C5    C37   A    
C57   O28   S    
C42   C46   A    
Cr6   O18   S    
C27   O15   A    
C15   C16   S    
C3    C18   S    
C8    C36   A    
C9    C13   D    
C47   H7    S    
Cr2   O6    S    
C9    C32   S    
C26   O14   A    
C11   C15   D    
C10   C31   S    
C20   C24   D    
C11   C30   S    
C28   O16   A    
C23   H24   S    
C4    O12   A    
Cr5   O25   S    
C23   C24   S    
C6    C38   A    
C16   C59   S    
C40   C44   A    
C43   H3    S    
C25   C34   S    
C3    O11   A    
C35   C56   A    
C2    O10   A    
C13   C14   S    
Cr2   O26   S    
C8    C56   A    
Cr2   O7    S    
C6    C54   A    
C52   H16   S    
Cr5   O20   S    
C36   C55   A    
C11   H20   S    
C38   H10   S    
Cr3   O16   S    
C12   C16   D    
C44   C48   A    
C28   C35   S    
Cr6   O23   S    
C30   O2    A    
C10   C14   D    
C26   O18   A    
C25   O13   A    
C39   C43   A    
C28   O20   A    
C31   O3    A    
C17   C21   D    
C6    C34   A    
C30   O22   A    
C9    H18   S    
C19   C23   D    
C51   H15   S    
C46   H6    S    
C50   H14   S    
C13   C58   S    
C3    O7    A    
C26   C33   S    
C15   C60   S    
C21   H22   S    
C45   C49   A    
C1    O5    A    
C14   C57   S    
C49   H13   S    
O28   H29   S    
C58   O29   D    
C4    C17   S    
Cr1   O4    S    
C37   H9    S    
C59   O31   D    
Cr4   O26   S    
C41   H1    S    
Cr4   O11   S    
Cr5   O21   S    
C42   H2    S    
C29   O1    A    
C25   O17   A    
C60   O33   D    
C24   H23   S    
C33   C54   A    
C1    C20   S    
C7    C39   A    
Cr1   O1    S    
C2    C19   S    
C18   C22   D    
Cr3   O12   S    
C7    C35   A    
C29   O21   A    
C48   H8    S    
Cr4   O10   S    
C47   C51   A    
C10   H17   S    
C45   H5    S    
C27   C36   S    
C20   H27   S    
C46   C50   A    
C18   H25   S    
Cr3   O13   S    
C22   H21   S    
C2    O6    A    
C19   H28   S    
Cr4   O14   S    
C57   O27   D    
Cr6   O19   S    
Cr2   O2    S    
C49   C53   A    
Cr1   O8    S    
C40   H12   S    
C12   H19   S    
C51   C55   A    
C5    C33   A    
C39   H11   S    
C37   C41   A    
O34   H32   S    
Cr5   O17   S    
C58   O30   S    
C52   C56   A    
C48   C52   A    
Cr6   O22   S    
C27   O19   A    
C34   C53   A    
Cr3   O25   S    
Cr1   O5    S    
Cr5   O24   S    
C59   O32   S    
C41   C45   A    
C8    C40   A    
C32   O24   A    
C21   C22   S    
C43   C47   A    
C31   O23   A    
Cr4   O15   S    
O32   H31   S    
C60   O34   S    
