data_mof_unit_36583.cif
_audit_creation_date              2012-12-10T17:55:29-0500
_audit_creation_method            fapswitch 2.2
_symmetry_space_group_name_H-M    P1
_symmetry_Int_Tables_number       1
_space_group_crystal_system       triclinic
_cell_length_a                    10.931739
_cell_length_b                    9.640258
_cell_length_c                    10.950626
_cell_angle_alpha                 89.706066
_cell_angle_beta                  94.464534
_cell_angle_gamma                 88.860165
_cell_volume                      1150.27421539

loop_
_atom_site_label
_atom_site_type_symbol
_atom_type_description
_atom_site_fract_x
_atom_site_fract_y
_atom_site_fract_z
_atom_type_partial_charge
C1    C     C_R   0.262869 0.501878 0.506625 0.838374
C2    C     C_R   0.737375 0.498715 0.497959 0.827989
C3    C     C_R   0.498573 0.499899 0.265344 0.848409
C4    C     C_R   0.499348 0.499516 0.734118 0.856406
C5    C     C_2   0.458817 0.398860 0.931796 0.178529
C6    C     C_2   0.495851 0.387719 0.062519 0.180407
C7    C     C_2   0.510603 0.496950 0.866441 -0.354247
C8    C     C_2   0.481170 0.500657 0.132462 -0.374137
C9    C     C_R   0.070253 0.386134 0.553875 0.074354
C10   C     C_R   0.941795 0.382967 0.547441 0.076494
C11   C     C_R   0.871691 0.497360 0.497757 -0.108156
C12   C     C_R   0.128987 0.506513 0.516655 -0.118448
C13   C     C_R   0.931056 0.616103 0.457269 0.120144
C14   C     C_R   0.057501 0.628121 0.485245 0.121266
C15   C     C_R   0.421855 0.075716 0.419601 0.225585
C16   C     C_R   0.572077 0.071839 0.585700 0.217618
C17   C     C_R   0.428125 0.928356 0.413800 0.244560
C18   C     C_R   0.573584 0.924339 0.584990 0.239697
Cu1   Cu    Cu3+1 0.500000 0.640660 0.500000 0.917047
Cu2   Cu    Cu3+1 0.500000 0.359340 0.500000 0.932075
H1    H     H_    0.571742 0.571683 0.911731 0.118980
H2    H     H_    0.446244 0.597203 0.089808 0.128529
N1    N     N_R   0.500000 0.852070 0.500000 -0.199580
N2    N     N_R   0.500000 0.147940 0.500000 -0.218923
O1    O     O_R   0.319640 0.618740 0.499990 -0.595807
O2    O     O_R   0.680360 0.618740 0.500010 -0.592942
O3    O     O_R   0.319620 0.381170 0.499990 -0.560435
O4    O     O_R   0.680380 0.381170 0.500010 -0.566324
O5    O     O_R   0.500000 0.618750 0.321940 -0.588888
O6    O     O_R   0.500000 0.618750 0.678060 -0.589950
O7    O     O_R   0.499970 0.381180 0.321940 -0.583188
O8    O     O_R   0.500030 0.381180 0.678060 -0.585672
C19   C     C_3   0.360032 0.304192 0.878465 -0.805168
H3    H     H_    0.317705 0.247228 0.952357 0.219236
H4    H     H_    0.286571 0.366858 0.827209 0.225657
H5    H     H_    0.397603 0.226073 0.817092 0.242233
C20   C     C_3   0.554396 0.251951 0.108637 -0.785647
H6    H     H_    0.576782 0.185024 0.030776 0.214267
H7    H     H_    0.641601 0.271056 0.164440 0.231095
H8    H     H_    0.490968 0.193642 0.162701 0.238760
N3    N     N_3   0.141451 0.270765 0.606786 -0.576996
H9    H     H_    0.121002 0.257985 0.697726 0.211439
H10   H     H_    0.117525 0.180655 0.558850 0.209861
N4    N     N_3   0.882515 0.262979 0.590927 -0.586380
H11   H     H_    0.907267 0.176358 0.540680 0.222899
H12   H     H_    0.910196 0.246734 0.683479 0.213210
C21   C     C_3   0.862627 0.727195 0.378302 -0.807291
H13   H     H_    0.790763 0.680403 0.314989 0.229453
H14   H     H_    0.820843 0.806084 0.436751 0.247277
H15   H     H_    0.924809 0.780248 0.318447 0.221928
C22   C     C_3   0.109631 0.772732 0.491855 -0.818400
H16   H     H_    0.179565 0.782751 0.570116 0.249590
H17   H     H_    0.145833 0.800164 0.403899 0.232234
H18   H     H_    0.038159 0.851679 0.510316 0.218606
N5    N     N_3   0.321695 0.144003 0.349486 -0.620704
H19   H     H_    0.253969 0.171298 0.407095 0.247517
H20   H     H_    0.347668 0.228922 0.300522 0.261533
N6    N     N_3   0.640303 0.137577 0.685731 -0.601901
H21   H     H_    0.672454 0.232653 0.660871 0.297499
H22   H     H_    0.583147 0.150905 0.756868 0.218521
C23   C     C_3   0.361679 0.859936 0.304486 -0.776843
H23   H     H_    0.281225 0.921128 0.264830 0.209630
H24   H     H_    0.425689 0.847366 0.231291 0.220496
H25   H     H_    0.324524 0.759144 0.327030 0.260061
C24   C     C_3   0.660437 0.853927 0.681693 -0.748553
H26   H     H_    0.753563 0.897284 0.678372 0.206298
H27   H     H_    0.627924 0.873784 0.773720 0.204549
H28   H     H_    0.673774 0.742459 0.673056 0.264271

loop_
_geom_bond_atom_site_label_1
_geom_bond_atom_site_label_2
_ccdc_geom_bond_type
C23   H25   S    
C8    H2    S    
N5    H19   S    
C15   C17   A    
C20   H6    S    
Cu2   O3    S    
C21   H14   S    
C11   C13   A    
N3    H9    S    
C22   H17   S    
C9    N3    S    
C14   C22   S    
C3    O7    A    
C22   H18   S    
C13   C21   S    
C24   H28   S    
C23   H24   S    
C19   H3    S    
C6    C20   S    
C22   H16   S    
C2    O2    A    
C15   N5    S    
C16   N6    S    
C13   C14   A    
C18   C24   S    
C1    O1    A    
N3    H10   S    
C3    O5    A    
C17   N1    A    
C1    C12   S    
C4    C7    S    
C5    C6    S    
C2    C11   S    
C9    C10   A    
C16   C18   A    
C15   N2    A    
C19   H4    S    
C12   C14   A    
C3    C8    S    
C21   H15   S    
C5    C7    D    
N5    H20   S    
C23   H23   S    
C20   H7    S    
C9    C12   A    
C2    O4    A    
C10   C11   A    
C4    O8    A    
Cu1   O1    S    
N6    H22   S    
C18   N1    A    
Cu1   O5    S    
C21   H13   S    
Cu2   N2    S    
C19   H5    S    
N4    H11   S    
Cu1   O2    S    
C16   N2    A    
C24   H26   S    
Cu2   O8    S    
C1    O3    A    
C20   H8    S    
Cu1   N1    S    
C6    C8    D    
Cu2   O4    S    
C17   C23   S    
N6    H21   S    
C7    H1    S    
Cu1   O6    S    
C10   N4    S    
C4    O6    A    
Cu1   Cu2   S    
N4    H12   S    
C24   H27   S    
Cu2   O7    S    
C5    C19   S    
