data_mof_unit_17997.cif
_audit_creation_date              2012-12-10T18:13:47-0500
_audit_creation_method            fapswitch 2.2
_symmetry_space_group_name_H-M    P1
_symmetry_Int_Tables_number       1
_space_group_crystal_system       triclinic
_cell_length_a                    10.731888
_cell_length_b                    9.408059
_cell_length_c                    23.45063
_cell_angle_alpha                 89.884731
_cell_angle_beta                  89.436239
_cell_angle_gamma                 90.074604
_cell_volume                      2367.60035562

loop_
_atom_site_label
_atom_site_type_symbol
_atom_type_description
_atom_site_fract_x
_atom_site_fract_y
_atom_site_fract_z
_atom_type_partial_charge
C1    C     C_R   0.259587 0.499795 0.498999 0.823462
C2    C     C_R   0.529822 0.760145 0.969312 -0.167318
C3    C     C_R   0.522357 0.759557 0.028737 -0.162224
C4    C     C_R   0.526938 0.630847 0.059184 -0.010751
C5    C     C_R   0.539631 0.501984 0.029311 -0.020216
C6    C     C_R   0.546739 0.372754 0.059447 -0.008720
C7    C     C_R   0.556987 0.244439 0.029153 -0.162424
C8    C     C_R   0.558191 0.244418 0.969639 -0.166625
C9    C     C_R   0.517878 0.627574 0.118905 0.537144
C10   C     C_R   0.543225 0.375204 0.119291 0.533303
C11   C     C_R   0.599630 0.588048 0.241213 -0.081692
C12   C     C_R   0.500519 0.500172 0.391120 0.820540
C13   C     C_R   0.591077 0.589979 0.300548 -0.223340
C14   C     C_R   0.506016 0.500889 0.328901 -0.026351
C15   C     C_R   0.427883 0.411702 0.297534 -0.200164
C16   C     C_R   0.433293 0.413534 0.238063 -0.078584
C17   C     C_R   0.520058 0.500788 0.209381 0.325060
C18   C     C_R   0.426116 0.547125 0.765159 -0.145486
C19   C     C_R   0.411654 0.551577 0.705951 0.062537
C20   C     C_R   0.509415 0.500622 0.670882 -0.070017
C21   C     C_R   0.621451 0.455788 0.695107 -0.281922
C22   C     C_R   0.639070 0.461128 0.754172 0.143256
C23   C     C_R   0.739869 0.500140 0.497779 0.774636
C24   C     C_R   0.538291 0.502849 0.789593 0.305044
C25   C     C_3   0.071991 0.639754 0.470254 -0.028715
C26   C     C_3   0.068001 0.488487 0.559875 -0.043187
C27   C     C_3   0.928541 0.639735 0.470074 -0.394232
C28   C     C_3   0.924197 0.488894 0.559016 -0.391732
C29   C     C_3   0.071806 0.371502 0.462521 -0.342898
C30   C     C_3   0.121371 0.499134 0.497751 0.066428
C31   C     C_3   0.877503 0.500422 0.497082 0.094406
C32   C     C_3   0.928426 0.372881 0.461907 -0.369145
C33   C     C_3   0.625340 0.083922 0.487500 -0.190530
C34   C     C_3   0.625314 0.916547 0.487476 -0.189075
C35   C     C_3   0.462300 0.083352 0.557568 -0.174692
C36   C     C_3   0.462276 0.915870 0.557551 -0.198163
C37   C     C_3   0.412740 0.083843 0.458585 -0.191037
C38   C     C_3   0.412594 0.916385 0.458665 -0.169555
C39   C     C_R   0.500945 0.500020 0.608814 0.821118
C40   C     C_R   0.550257 0.375534 0.879358 0.516931
C41   C     C_R   0.543577 0.629493 0.879253 0.528355
C42   C     C_R   0.539768 0.631872 0.939046 -0.010028
C43   C     C_R   0.544155 0.502279 0.969131 -0.018776
C44   C     C_R   0.551547 0.372897 0.939178 -0.011048
Cu1   Cu    Cu3+1 0.499860 0.642410 0.500030 0.908396
Cu2   Cu    Cu3+1 0.499860 0.357590 0.500030 0.914246
H1    H     H_    0.526048 0.861198 0.947192 0.184480
H2    H     H_    0.697252 0.421079 0.667551 0.139468
H3    H     H_    0.103281 0.731959 0.496186 0.131414
H4    H     H_    0.099180 0.582954 0.584199 0.124006
H5    H     H_    0.894774 0.733634 0.494531 0.155031
H6    H     H_    0.888653 0.579993 0.584678 0.139804
H7    H     H_    0.892820 0.650723 0.425933 0.190537
H8    H     H_    0.886054 0.390600 0.579049 0.193023
H9    H     H_    0.108725 0.375347 0.418100 0.183173
H10   H     H_    0.103820 0.269024 0.480918 0.194473
H11   H     H_    0.895453 0.380021 0.417137 0.169250
H12   H     H_    0.893438 0.270671 0.479952 0.177300
H13   H     H_    0.694202 0.121211 0.519313 0.145722
H14   H     H_    0.694148 0.879076 0.519277 0.144469
H15   H     H_    0.513231 0.860243 0.050690 0.185229
H16   H     H_    0.657751 0.123982 0.445205 0.147109
H17   H     H_    0.657656 0.877012 0.445166 0.144276
H18   H     H_    0.527077 0.120574 0.591125 0.156086
H19   H     H_    0.527020 0.878526 0.591119 0.153720
H20   H     H_    0.316603 0.122400 0.467329 0.152699
H21   H     H_    0.316446 0.878066 0.467719 0.166270
H22   H     H_    0.438104 0.122215 0.415148 0.155382
H23   H     H_    0.437432 0.878033 0.415236 0.172447
H24   H     H_    0.368110 0.122746 0.569626 0.183122
H25   H     H_    0.368029 0.875879 0.569472 0.152868
H26   H     H_    0.562521 0.143519 0.051285 0.185013
H27   H     H_    0.564527 0.143544 0.947631 0.183970
H28   H     H_    0.668252 0.654536 0.219962 0.161397
H29   H     H_    0.652790 0.658436 0.324415 0.143661
H30   H     H_    0.361309 0.342922 0.319046 0.146900
H31   H     H_    0.370058 0.346929 0.214272 0.160626
H32   H     H_    0.350004 0.580029 0.792818 0.144625
N1    N     N_R   0.547443 0.502610 0.850697 -0.468112
N2    N     N_R   0.527210 0.501154 0.147933 -0.467553
N3    N     N_3   0.500250 0.143650 0.501250 -0.124176
N4    N     N_3   0.500250 0.856350 0.501250 -0.125132
O1    O     O_R   0.317570 0.620260 0.500030 -0.591947
O2    O     O_R   0.317570 0.379740 0.500030 -0.571608
O3    O     O_R   0.499840 0.620290 0.417900 -0.574444
O4    O     O_R   0.499840 0.379710 0.417900 -0.594395
O5    O     O_R   0.682190 0.620260 0.500010 -0.599740
O6    O     O_R   0.682190 0.379740 0.500010 -0.599828
O7    O     O_R   0.499920 0.620230 0.582140 -0.590726
O8    O     O_R   0.499920 0.379770 0.582140 -0.571029
O9    O     O_2   0.550881 0.252294 0.850007 -0.530277
O10   O     O_2   0.542317 0.752847 0.849784 -0.537030
O11   O     O_2   0.498129 0.749760 0.147641 -0.525360
O12   O     O_2   0.556875 0.252677 0.148577 -0.530592
C45   C     C_3   0.290895 0.608505 0.682105 -0.408376
C46   C     C_3   0.277157 0.768196 0.693701 -0.334616
C47   C     C_3   0.160138 0.827950 0.666025 -0.845409
H33   H     H_    0.166078 0.817160 0.618934 0.239252
H34   H     H_    0.076004 0.771043 0.682053 0.255711
H35   H     H_    0.151001 0.942504 0.676549 0.271737
H36   H     H_    0.271288 0.787467 0.740388 0.234533
H37   H     H_    0.359908 0.825842 0.676549 0.226998
H38   H     H_    0.285542 0.590703 0.635548 0.209114
H39   H     H_    0.211633 0.549895 0.701917 0.219008
C48   C     C_3   0.766773 0.427133 0.777417 -0.364001
C49   C     C_3   0.860484 0.544570 0.761649 -0.370580
C50   C     C_3   0.988851 0.513713 0.786165 -0.817247
H40   H     H_    0.982947 0.502718 0.833285 0.259435
H41   H     H_    0.027383 0.414381 0.767540 0.269006
H42   H     H_    0.053010 0.602942 0.775802 0.241514
H43   H     H_    0.869522 0.553996 0.714516 0.220952
H44   H     H_    0.826804 0.647941 0.778750 0.242650
H45   H     H_    0.764624 0.415979 0.824473 0.213487
H46   H     H_    0.798701 0.323694 0.759709 0.212384
I1    I     I_    0.143974 0.679241 0.384992 -0.457962
I2    I     I_    0.132076 0.305974 0.607823 -0.529402

loop_
_geom_bond_atom_site_label_1
_geom_bond_atom_site_label_2
_ccdc_geom_bond_type
C46   H37   S    
C11   C13   A    
C41   C42   A    
C45   C46   S    
C32   H12   S    
C47   H33   S    
C35   N3    S    
C7    C8    A    
C49   H44   S    
Cu1   Cu2   S    
C1    O2    A    
C29   C30   S    
C12   O3    A    
C18   C24   A    
C48   H45   S    
Cu1   O5    S    
C18   C19   A    
C29   C32   S    
C26   H4    S    
C5    C6    A    
C49   C50   S    
C10   O12   S    
C15   C16   A    
C37   H22   S    
C16   H31   S    
C34   H17   S    
Cu1   N4    S    
C35   H24   S    
C36   N4    S    
C33   H16   S    
C45   H38   S    
C25   H3    S    
C50   H40   S    
C35   H18   S    
C13   C14   A    
Cu1   O7    S    
C39   O8    A    
C36   H25   S    
C21   H2    S    
C15   H30   S    
C5    C43   A    
C38   H23   S    
C33   H13   S    
C23   O5    A    
C46   H36   S    
C46   C47   S    
C34   H14   S    
C50   H41   S    
C37   N3    S    
Cu1   O1    S    
C32   H11   S    
C8    H27   S    
C47   H34   S    
C27   H5    S    
Cu2   O6    S    
C49   H43   S    
C3    H15   S    
C27   C31   S    
C13   H29   S    
C48   H46   S    
C9    N2    A    
C7    H26   S    
C20   C39   S    
C10   N2    A    
C36   H19   S    
C16   C17   A    
C29   H9    S    
C17   N2    S    
C35   C36   S    
C23   C31   S    
Cu1   O3    S    
C43   C44   A    
C41   N1    A    
C37   C38   S    
Cu2   N3    S    
C24   N1    S    
C31   C32   S    
C18   H32   S    
C37   H20   S    
C33   C34   S    
C40   N1    A    
C38   H21   S    
Cu2   O2    S    
C12   C14   S    
C26   C30   S    
C23   O6    A    
C50   H42   S    
C22   C24   A    
C1    O1    A    
C42   C43   A    
C3    C4    A    
C9    O11   S    
C47   H35   S    
C19   C45   S    
C45   H39   S    
C25   C30   S    
C11   C17   A    
C28   H8    S    
C28   C31   S    
C8    C44   A    
C4    C5    A    
C11   H28   S    
C6    C10   A    
C27   H7    S    
C6    C7    A    
Cu2   O8    S    
C29   H10   S    
C2    H1    S    
C25   C27   S    
C22   C48   S    
C48   C49   S    
C26   C28   S    
C12   O4    A    
C19   C20   A    
C25   I1    S    
C2    C3    A    
C28   H6    S    
C2    C42   A    
C1    C30   S    
C40   O9    S    
C26   I2    S    
C40   C44   A    
C41   O10   S    
C20   C21   A    
C14   C15   A    
C34   N4    S    
C4    C9    A    
C21   C22   A    
C33   N3    S    
C39   O7    A    
C38   N4    S    
Cu2   O4    S    
