data_mof_unit_32722.cif
_audit_creation_date              2012-12-10T17:51:33-0500
_audit_creation_method            fapswitch 2.2
_symmetry_space_group_name_H-M    P1
_symmetry_Int_Tables_number       1
_space_group_crystal_system       triclinic
_cell_length_a                    9.889377
_cell_length_b                    10.642807
_cell_length_c                    16.662431
_cell_angle_alpha                 91.380296
_cell_angle_beta                  85.09567
_cell_angle_gamma                 88.63572
_cell_volume                      1746.21612776

loop_
_atom_site_label
_atom_site_type_symbol
_atom_type_description
_atom_site_fract_x
_atom_site_fract_y
_atom_site_fract_z
_atom_type_partial_charge
C1    C     C_R   0.499452 0.738303 0.487823 0.937229
C2    C     C_R   0.527887 0.550256 0.264350 -0.101783
C3    C     C_R   0.241901 0.897839 0.481459 0.605877
C4    C     C_R   0.480895 0.503628 0.653512 0.881445
C5    C     C_R   0.130268 0.950916 0.527507 -0.286778
C6    C     C_R   0.146570 0.050704 0.580825 -0.403003
C7    C     C_R   0.273084 0.110729 0.580813 0.626263
C8    C     C_R   0.384127 0.060005 0.528903 -0.131239
C9    C     C_R   0.373415 0.941563 0.492690 -0.140380
C10   C     C_R   0.494856 0.871315 0.471192 -0.217027
C11   C     C_R   0.617808 0.932317 0.455413 0.083534
C12   C     C_R   0.342258 0.569783 0.778732 -0.251442
C13   C     C_R   0.624249 0.058304 0.476457 0.461274
C14   C     C_R   0.505793 0.123880 0.510059 -0.256709
C15   C     C_R   0.841046 0.662362 0.607559 -0.150502
C16   C     C_R   0.501245 0.259434 0.505778 0.989517
C17   C     C_R   0.902219 0.739904 0.661452 -0.209008
C18   C     C_R   0.042090 0.738833 0.661592 -0.191985
C19   C     C_R   0.121575 0.661106 0.607288 -0.160501
C20   C     C_R   0.063011 0.579563 0.552935 0.185342
C21   C     C_R   0.918284 0.579755 0.552991 0.174487
C22   C     C_R   0.937679 0.423701 0.449399 -0.109045
C23   C     C_R   0.421920 0.665660 0.162671 -0.247593
C24   C     C_R   0.080925 0.423622 0.449482 -0.118167
C25   C     C_R   0.518682 0.506723 0.346841 0.888084
C26   C     C_R   0.467982 0.529812 0.740036 -0.060293
C27   C     C_R   0.583892 0.528864 0.782599 -0.208159
C28   C     C_R   0.574576 0.568561 0.862654 -0.183819
C29   C     C_R   0.449259 0.611061 0.901196 0.146954
C30   C     C_R   0.332152 0.610165 0.858958 0.179556
C31   C     C_3   0.807900 0.474529 0.061579 -0.308659
C32   C     C_3   0.221745 0.865450 0.348352 -0.282809
C33   C     C_3   0.180769 0.269284 0.671947 -0.256795
C34   C     C_R   0.413367 0.609278 0.236592 -0.200164
C35   C     C_3   0.814334 0.118927 0.531521 -0.273351
C36   C     C_R   0.652578 0.550488 0.217479 -0.274543
C37   C     C_R   0.660127 0.601039 0.140383 0.566426
C38   C     C_R   0.543057 0.656981 0.112543 0.089335
C39   C     C_2   0.437272 0.638928 0.987773 -0.216615
C40   C     C_2   0.540538 0.682257 0.026707 -0.192892
H1    H     H_    0.682036 0.498271 0.753967 0.165509
H2    H     H_    0.142405 0.361093 0.408337 0.150252
H3    H     H_    0.743231 0.510355 0.239978 0.175784
H4    H     H_    0.632769 0.712560 0.993451 0.198110
H5    H     H_    0.331666 0.710926 0.142963 0.174789
H6    H     H_    0.251986 0.572790 0.746424 0.165518
H7    H     H_    0.347012 0.605255 0.021361 0.188776
H8    H     H_    0.665160 0.562462 0.894631 0.155941
H9    H     H_    0.829778 0.409015 0.110110 0.165168
H10   H     H_    0.722346 0.439943 0.028433 0.153346
H11   H     H_    0.899278 0.474858 0.018070 0.221353
H12   H     H_    0.031256 0.911882 0.522938 0.209180
H13   H     H_    0.327157 0.889476 0.326431 0.166464
H14   H     H_    0.153681 0.950745 0.350558 0.172961
H15   H     H_    0.183441 0.798741 0.304046 0.196698
H16   H     H_    0.210884 0.353804 0.705322 0.198735
H17   H     H_    0.128167 0.208318 0.717273 0.153086
H18   H     H_    0.111997 0.301388 0.626615 0.148436
H19   H     H_    0.830328 0.022321 0.553507 0.154824
H20   H     H_    0.758613 0.177352 0.580414 0.164502
H21   H     H_    0.914781 0.161107 0.517852 0.187417
H22   H     H_    0.058635 0.081393 0.619858 0.156285
H23   H     H_    0.891241 0.361337 0.408159 0.177829
H24   H     H_    0.733415 0.670635 0.610687 0.207090
H25   H     H_    0.840559 0.801964 0.702925 0.161055
H26   H     H_    0.316939 0.613732 0.272598 0.191289
H27   H     H_    0.089629 0.800337 0.702943 0.178350
H28   H     H_    0.228317 0.668776 0.609007 0.199745
I1    I     I_    0.793191 0.842885 0.391549 -0.316161
I2    I     I_    0.137556 0.671908 0.911184 -0.430783
N1    N     N_R   0.857140 0.501200 0.500750 -0.117527
N2    N     N_R   0.142740 0.501280 0.500770 -0.110386
O1    O     O_R   0.385310 0.683220 0.500000 -0.597077
O2    O     O_3   0.219658 0.807197 0.423562 -0.581785
O3    O     O_3   0.298965 0.208099 0.634929 -0.611617
O4    O     O_3   0.746045 0.117733 0.460531 -0.574712
O5    O     O_R   0.614640 0.683250 0.500010 -0.624490
O6    O     O_R   0.371780 0.500010 0.615800 -0.634835
O7    O     O_R   0.601110 0.500030 0.615800 -0.653323
O8    O     O_R   0.385360 0.316750 0.499990 -0.599193
O9    O     O_R   0.614690 0.316780 0.500000 -0.583718
O10   O     O_R   0.398890 0.499970 0.384200 -0.612929
O11   O     O_R   0.628220 0.499990 0.384200 -0.603494
O12   O     O_3   0.781730 0.597998 0.092587 -0.601415
Zn1   Zn    Zn3+2 0.346870 0.499980 0.499990 0.970751
Zn2   Zn    Zn3+2 0.653130 0.500020 0.500010 0.962140

loop_
_geom_bond_atom_site_label_1
_geom_bond_atom_site_label_2
_ccdc_geom_bond_type
C33   H18   S    
C23   H5    S    
C1    O5    A    
C32   H13   S    
C19   C20   A    
C34   H26   S    
N2    Zn1   S    
C7    C8    A    
C26   C27   A    
O8    Zn1   S    
C21   N1    A    
C28   C29   A    
C37   C38   A    
C32   O2    S    
C5    C6    A    
C24   H2    S    
C35   H19   S    
C18   C19   A    
C3    O2    S    
C22   H23   S    
C33   O3    S    
C28   H8    S    
C8    C9    A    
C8    C14   A    
C15   H24   S    
C37   O12   S    
C9    C10   A    
C32   H15   S    
O9    Zn2   S    
C2    C34   A    
C33   H16   S    
C13   C14   A    
C31   H9    S    
C32   H14   S    
C30   I2    S    
C35   O4    S    
C4    O7    A    
C35   H21   S    
C39   C40   D    
C7    O3    S    
C18   H27   S    
C31   O12   S    
C12   C26   A    
C35   H20   S    
C16   O8    A    
C4    O6    A    
C29   C30   A    
C3    C9    A    
N1    Zn2   S    
C27   H1    S    
C13   O4    S    
C15   C21   A    
C23   C34   A    
C29   C39   S    
C17   C18   A    
C19   H28   S    
C5    H12   S    
O1    Zn1   S    
O6    Zn1   S    
C12   H6    S    
O5    Zn2   S    
C25   O10   A    
C22   C24   A    
C31   H10   S    
C23   C38   A    
C22   N1    A    
C24   N2    A    
C39   H7    S    
C2    C36   A    
C15   C17   A    
C36   C37   A    
C33   H17   S    
C12   C30   A    
C1    C10   S    
C31   H11   S    
C3    C5    A    
C4    C26   S    
C11   I1    S    
C6    C7    A    
O10   Zn1   S    
C17   H25   S    
C1    O1    A    
C6    H22   S    
C38   C40   S    
C11   C13   A    
C16   O9    A    
C2    C25   S    
C14   C16   S    
C10   C11   A    
C40   H4    S    
O11   Zn2   S    
C20   C21   A    
C27   C28   A    
C25   O11   A    
C20   N2    A    
C36   H3    S    
O7    Zn2   S    
