data_mof_unit_14129.cif
_audit_creation_date              2012-12-10T20:38:17-0500
_audit_creation_method            fapswitch 2.2
_symmetry_space_group_name_H-M    P1
_symmetry_Int_Tables_number       1
_space_group_crystal_system       triclinic
_cell_length_a                    9.85245
_cell_length_b                    10.677513
_cell_length_c                    16.65965
_cell_angle_alpha                 90.069286
_cell_angle_beta                  85.239822
_cell_angle_gamma                 89.928449
_cell_volume                      1746.54161474

loop_
_atom_site_label
_atom_site_type_symbol
_atom_type_description
_atom_site_fract_x
_atom_site_fract_y
_atom_site_fract_z
_atom_type_partial_charge
C1    C     C_R   0.500247 0.740121 0.497566 0.885327
C2    C     C_R   0.347224 0.422858 0.776573 -0.202886
C3    C     C_R   0.435564 0.327623 0.159708 -0.160178
C4    C     C_R   0.422938 0.379660 0.236103 -0.207149
C5    C     C_R   0.652139 0.463346 0.215002 -0.204074
C6    C     C_R   0.663865 0.412868 0.137682 -0.173003
C7    C     C_R   0.553926 0.348491 0.108932 0.206690
C8    C     C_2   0.446497 0.354993 0.983850 -0.232526
C9    C     C_2   0.555954 0.324818 0.022496 -0.244204
C10   C     C_R   0.529954 0.450078 0.263591 -0.028861
C11   C     C_R   0.378720 0.936378 0.485311 0.142828
C12   C     C_R   0.480950 0.497546 0.653581 0.861336
C13   C     C_R   0.501417 0.871486 0.484636 -0.108370
C14   C     C_R   0.625161 0.935055 0.468315 -0.228312
C15   C     C_R   0.625250 0.064593 0.468072 -0.223275
C16   C     C_R   0.501604 0.128627 0.484196 -0.103007
C17   C     C_R   0.378807 0.064137 0.485000 0.125424
C18   C     C_3   0.254811 0.071973 0.542959 -0.475901
C19   C     C_3   0.254972 0.930038 0.543504 -0.494162
C20   C     C_R   0.923506 0.594389 0.536937 0.219036
C21   C     C_R   0.934070 0.413219 0.457444 -0.135757
C22   C     C_R   0.078145 0.413173 0.457464 -0.138233
C23   C     C_R   0.500432 0.259926 0.497345 0.881234
C24   C     C_R   0.066203 0.594439 0.536877 0.218033
C25   C     C_3   0.060015 0.627728 0.623974 -0.515148
C26   C     C_3   0.906063 0.627182 0.624143 -0.517239
C27   C     C_R   0.518780 0.493042 0.346751 0.852932
C28   C     C_R   0.468445 0.473248 0.739826 -0.036418
C29   C     C_R   0.582056 0.486834 0.784082 -0.211480
C30   C     C_R   0.576656 0.446281 0.863198 -0.146285
C31   C     C_R   0.457433 0.390558 0.898922 0.204962
C32   C     C_R   0.341794 0.382141 0.855949 -0.181252
H1    H     H_    0.675415 0.527769 0.757459 0.143219
H2    H     H_    0.755838 0.429650 0.098914 0.122483
H3    H     H_    0.721681 0.885865 0.461405 0.169491
H4    H     H_    0.721796 0.113473 0.461031 0.165316
H5    H     H_    0.275894 0.113998 0.601775 0.205356
H6    H     H_    0.166314 0.112695 0.514832 0.200721
H7    H     H_    0.276739 0.889605 0.602585 0.198354
H8    H     H_    0.884358 0.341776 0.424364 0.142366
H9    H     H_    0.137312 0.341672 0.424416 0.140605
H10   H     H_    0.099797 0.552114 0.661424 0.214881
H11   H     H_    0.329972 0.363142 0.274027 0.150679
H12   H     H_    0.102274 0.722215 0.634162 0.197821
H13   H     H_    0.857897 0.550494 0.661237 0.213518
H14   H     H_    0.859339 0.721208 0.634642 0.201113
H15   H     H_    0.737213 0.514212 0.236295 0.149853
H16   H     H_    0.654083 0.309500 0.989187 0.146176
H17   H     H_    0.247928 0.342842 0.883586 0.125460
H18   H     H_    0.351072 0.274855 0.139369 0.127161
H19   H     H_    0.258141 0.411082 0.743370 0.148404
H20   H     H_    0.348307 0.371007 0.016983 0.149459
H21   H     H_    0.665056 0.461229 0.896410 0.124373
N1    N     N_R   0.857140 0.500860 0.500530 -0.104650
N2    N     N_R   0.142780 0.500820 0.500530 -0.103923
O1    O     O_R   0.385310 0.683210 0.499990 -0.610606
O2    O     O_R   0.614650 0.683240 0.500000 -0.620951
O3    O     O_R   0.371780 0.500000 0.615800 -0.620186
O4    O     O_R   0.601120 0.500040 0.615800 -0.612029
O5    O     O_R   0.385350 0.316760 0.500000 -0.621629
O6    O     O_R   0.614690 0.316790 0.500010 -0.622169
O7    O     O_R   0.398880 0.499960 0.384200 -0.617998
O8    O     O_R   0.628220 0.500000 0.384200 -0.617465
Zn1   Zn    Zn3+2 0.346870 0.499980 0.499990 0.939059
Zn2   Zn    Zn3+2 0.653130 0.500020 0.500010 0.942318
H22   H     H_    0.166333 0.888647 0.515931 0.203332

loop_
_geom_bond_atom_site_label_1
_geom_bond_atom_site_label_2
_ccdc_geom_bond_type
C10   C27   S    
C25   H10   S    
O7    Zn1   S    
O1    Zn1   S    
C22   N2    A    
C27   O7    A    
O6    Zn2   S    
C11   C13   A    
C8    H20   S    
C31   C32   A    
C21   N1    A    
O5    Zn1   S    
C12   O3    A    
N2    Zn1   S    
O8    Zn2   S    
C17   C18   S    
C18   H6    S    
C5    C10   A    
C19   H22   S    
N1    Zn2   S    
C21   C22   A    
O4    Zn2   S    
C24   N2    A    
C5    H15   S    
C30   C31   A    
C11   C19   S    
C29   C30   A    
C21   H8    S    
C27   O8    A    
C12   C28   S    
C5    C6    A    
C19   H7    S    
C25   H12   S    
C2    C32   A    
C28   C29   A    
C4    H11   S    
C18   H5    S    
C16   C23   S    
C3    C7    A    
C12   O4    A    
O3    Zn1   S    
C23   O5    A    
C30   H21   S    
C1    O1    A    
C32   H17   S    
C22   H9    S    
C1    C13   S    
C2    H19   S    
C26   H14   S    
C4    C10   A    
C15   C16   A    
C29   H1    S    
C15   H4    S    
C23   O6    A    
C24   C25   S    
C9    H16   S    
C20   N1    A    
C18   C19   S    
C6    H2    S    
C14   H3    S    
C7    C9    S    
C20   C24   A    
C14   C15   A    
C11   C17   A    
C2    C28   A    
C26   H13   S    
C25   C26   S    
C13   C14   A    
C8    C31   S    
C3    H18   S    
C6    C7    A    
C3    C4    A    
C16   C17   A    
O2    Zn2   S    
C8    C9    D    
C20   C26   S    
C1    O2    A    
