data_mof_unit_63763.cif
_audit_creation_date              2012-10-26T21:26:23-0400
_audit_creation_method            fapswitch 2.2
_symmetry_space_group_name_H-M    P1
_symmetry_Int_Tables_number       1
_space_group_crystal_system       triclinic
_cell_length_a                    15.875621
_cell_length_b                    17.986952
_cell_length_c                    29.421117
_cell_angle_alpha                 90.103236
_cell_angle_beta                  90.022384
_cell_angle_gamma                 90.039137
_cell_volume                      8401.30236906

loop_
_atom_site_label
_atom_site_type_symbol
_atom_type_description
_atom_site_fract_x
_atom_site_fract_y
_atom_site_fract_z
_atom_type_partial_charge
Br1   Br    Br    0.691022 0.834802 0.702525 -0.520577
Br2   Br    Br    0.245210 0.139386 0.747388 -0.452663
Br3   Br    Br    0.323476 0.838623 0.687632 -0.512416
Br4   Br    Br    0.726800 0.154418 0.726835 -0.528712
C1    C     C_R   0.499990 0.390037 0.058871 0.537799
C2    C     C_1   0.421032 0.996938 0.755975 0.052399
C3    C     C_1   0.499697 0.877633 0.835203 0.087816
C4    C     C_1   0.498451 0.123489 0.833291 0.108000
C5    C     C_1   0.354780 0.993595 0.735997 0.097062
C6    C     C_1   0.639320 0.996696 0.734422 0.103344
C7    C     C_R   0.620905 0.021631 0.284599 -0.122794
C8    C     C_R   0.376989 0.895800 0.301809 -0.122783
C9    C     C_R   0.404565 0.027995 0.297498 -0.109706
C10   C     C_R   0.587312 0.903459 0.319470 -0.108590
C11   C     C_R   0.682149 0.034139 0.317980 -0.105061
C12   C     C_R   0.500033 0.610166 0.058748 0.548465
C13   C     C_R   0.315504 0.908972 0.334664 -0.103613
C14   C     C_R   0.342969 0.040940 0.330512 -0.102364
C15   C     C_R   0.648301 0.916119 0.352633 -0.101387
C16   C     C_R   0.575761 0.997681 0.182534 -0.111148
C17   C     C_R   0.427495 0.835849 0.207235 -0.110034
C18   C     C_R   0.429086 0.030379 0.192580 -0.123212
C19   C     C_R   0.572528 0.817055 0.229718 -0.122734
C20   C     C_R   0.579084 0.041333 0.143342 -0.104768
C21   C     C_R   0.424421 0.763329 0.190178 -0.108867
C22   C     C_R   0.432612 0.073997 0.153349 -0.107986
C23   C     C_R   0.720572 0.994035 0.712558 0.057267
C24   C     C_R   0.569308 0.744591 0.212614 -0.106253
C25   C     C_R   0.500018 0.610792 0.941809 0.555394
C26   C     C_R   0.499991 0.389174 0.941772 0.555778
C27   C     C_3   0.499358 0.941705 0.250821 -0.007986
C28   C     C_R   0.573819 0.954775 0.283851 0.020591
C29   C     C_R   0.421911 0.955216 0.281709 0.020229
C30   C     C_R   0.695971 0.981282 0.351935 0.039657
C31   C     C_R   0.298680 0.981324 0.349264 0.039926
C32   C     C_R   0.501632 0.993528 0.208993 0.019967
C33   C     C_R   0.499930 0.862611 0.229938 0.020739
C34   C     C_R   0.273275 0.988301 0.714556 0.050410
C35   C     C_R   0.507726 0.080109 0.128878 0.036002
C36   C     C_R   0.494696 0.716963 0.193862 0.033119
C37   C     C_1   0.238110 0.992923 0.384844 -0.053659
C38   C     C_1   0.759001 0.992780 0.386293 -0.053739
C39   C     C_1   0.186645 0.998470 0.414702 -0.014324
C40   C     C_1   0.812099 0.998348 0.415334 -0.014557
C41   C     C_1   0.511131 0.125096 0.088472 -0.021332
C42   C     C_1   0.489908 0.640657 0.179238 -0.031189
C43   C     C_1   0.513964 0.162796 0.054653 -0.017211
C44   C     C_1   0.485822 0.576476 0.167549 -0.021507
C45   C     C_R   0.884695 0.986822 0.677693 -0.060804
C46   C     C_R   0.123766 0.999874 0.449561 0.561861
C47   C     C_R   0.876281 0.999835 0.449523 0.561532
C48   C     C_R   0.576661 0.777593 0.874421 0.238889
C49   C     C_R   0.423632 0.229777 0.867632 0.242989
C50   C     C_R   0.423511 0.773687 0.871009 0.234323
C51   C     C_R   0.575701 0.218840 0.876827 0.240462
C52   C     C_R   0.892769 0.000033 0.569137 0.556715
C53   C     C_R   0.107209 0.000069 0.569172 0.556082
C54   C     C_R   0.576294 0.712206 0.900413 -0.125020
C55   C     C_R   0.424694 0.295872 0.893005 -0.121409
C56   C     C_R   0.110481 0.974254 0.678553 -0.057052
C57   C     C_R   0.423917 0.708360 0.896959 -0.120144
C58   C     C_R   0.575249 0.283679 0.903737 -0.133150
C59   C     C_R   0.754318 0.925423 0.698301 0.145498
C60   C     C_R   0.215858 0.047796 0.717792 0.149545
C61   C     C_R   0.248590 0.921899 0.692832 0.141058
C62   C     C_R   0.769310 0.059181 0.708479 0.152794
C63   C     C_R   0.836326 0.922293 0.680971 -0.088723
C64   C     C_R   0.134736 0.040353 0.699690 -0.089445
C65   C     C_R   0.167219 0.915348 0.674940 -0.092228
C66   C     C_R   0.851226 0.055089 0.691096 -0.089393
C67   C     C_1   0.499124 0.933499 0.812660 0.019099
C68   C     C_3   0.497944 0.999250 0.783440 -0.027224
C69   C     C_R   0.499939 0.809510 0.860905 0.055501
C70   C     C_R   0.499252 0.191321 0.859534 0.059650
C71   C     C_R   0.500117 0.677133 0.912007 -0.070779
C72   C     C_R   0.500106 0.322807 0.911831 -0.069603
C73   C     C_3   0.692962 0.774671 0.829711 -0.088005
C74   C     C_3   0.304772 0.164131 0.881798 -0.084023
C75   C     C_3   0.321460 0.771577 0.817292 -0.092307
C76   C     C_3   0.709871 0.221899 0.848149 -0.075295
C77   C     C_1   0.498023 0.067009 0.811143 0.038078
C78   C     C_1   0.573684 0.998295 0.755036 0.061490
Cu1   Cu    Cu3+1 0.415470 0.500000 0.000080 0.959839
Cu2   Cu    Cu3+1 0.584530 0.500000 0.000080 0.958183
Cu3   Cu    Cu3+1 0.000000 0.072960 0.508900 0.978110
Cu4   Cu    Cu3+1 1.000000 0.927040 0.508900 0.971709
H1    H     H_    0.635772 0.689920 0.912167 0.155852
H2    H     H_    0.282693 0.862243 0.349711 0.117978
H3    H     H_    0.331354 0.097189 0.342135 0.116524
H4    H     H_    0.657737 0.875193 0.379136 0.120527
H5    H     H_    0.637233 0.044439 0.124173 0.117469
H6    H     H_    0.366811 0.743117 0.174733 0.115315
H7    H     H_    0.376333 0.102321 0.141810 0.113042
H8    H     H_    0.624961 0.709875 0.214384 0.115384
H9    H     H_    0.609258 0.065577 0.260412 0.116643
H10   H     H_    0.391409 0.838485 0.294047 0.118516
H11   H     H_    0.440474 0.074848 0.284946 0.115698
H12   H     H_    0.366070 0.325350 0.898408 0.158719
H13   H     H_    0.549820 0.853313 0.321771 0.117988
H14   H     H_    0.631536 0.967159 0.192504 0.115227
H15   H     H_    0.371997 0.870467 0.204268 0.116106
H16   H     H_    0.368804 0.024723 0.209271 0.115271
H17   H     H_    0.632074 0.836713 0.242912 0.116419
H18   H     H_    0.651798 0.768483 0.799265 0.164674
H19   H     H_    0.715170 0.719299 0.841439 0.115470
H20   H     H_    0.749134 0.807113 0.819247 0.175286
H21   H     H_    0.286637 0.199915 0.911097 0.107061
H22   H     H_    0.341952 0.115419 0.893703 0.113726
H23   H     H_    0.364283 0.682872 0.905725 0.159271
H24   H     H_    0.245935 0.142519 0.866285 0.181639
H25   H     H_    0.307853 0.711417 0.822210 0.123169
H26   H     H_    0.368940 0.779291 0.789840 0.161846
H27   H     H_    0.262344 0.798698 0.805967 0.171558
H28   H     H_    0.739919 0.261585 0.872150 0.108349
H29   H     H_    0.683161 0.251946 0.818349 0.160166
H30   H     H_    0.760175 0.184674 0.835239 0.186268
H31   H     H_    0.633354 0.302375 0.919240 0.148311
H32   H     H_    0.862983 0.869796 0.670214 0.158405
H33   H     H_    0.090070 0.085582 0.702201 0.153680
H34   H     H_    0.147569 0.864466 0.658369 0.159428
H35   H     H_    0.889365 0.104718 0.688150 0.155793
H36   H     H_    0.717844 0.085492 0.317660 0.114982
O1    O     O_R   0.429360 0.416280 0.044700 -0.508562
O2    O     O_R   0.906590 0.940530 0.464300 -0.504180
O3    O     O_R   0.906590 0.059470 0.464300 -0.503232
O4    O     O_R   0.093410 0.940530 0.464300 -0.503825
O5    O     O_R   0.920740 0.061400 0.553530 -0.486666
O6    O     O_R   0.079260 0.938600 0.553530 -0.490175
O7    O     O_R   0.079260 0.061400 0.553530 -0.486319
O8    O     O_R   0.920740 0.938600 0.553530 -0.489222
O9    O     O_3   0.651723 0.813411 0.864946 -0.556297
O10   O     O_3   0.349070 0.204952 0.848658 -0.516242
O11   O     O_3   0.347772 0.805203 0.858217 -0.564561
O12   O     O_R   0.570640 0.583720 0.044700 -0.506503
O13   O     O_3   0.648848 0.178019 0.870401 -0.554654
O14   O     O_R   0.570640 0.416280 0.044700 -0.507130
O15   O     O_R   0.429360 0.583720 0.044700 -0.507165
O16   O     O_R   0.427420 0.583550 0.955440 -0.512752
O17   O     O_R   0.572580 0.416450 0.955440 -0.514202
O18   O     O_R   0.572580 0.583550 0.955440 -0.514064
O19   O     O_R   0.427420 0.416450 0.955440 -0.513832
O20   O     O_R   0.093410 0.059470 0.464300 -0.503769

loop_
_geom_bond_atom_site_label_1
_geom_bond_atom_site_label_2
_ccdc_geom_bond_type
C6    C23   S    
C1    O14   A    
C11   H36   S    
Cu4   O4    S    
C13   H2    S    
Cu3   O3    S    
C49   C70   A    
C30   C38   S    
C57   H23   S    
C54   H1    S    
C53   O6    A    
C49   C55   A    
C10   H13   S    
C3    C69   S    
Cu3   Cu4   S    
C57   C71   A    
C36   C42   S    
C25   O16   A    
Cu2   O12   S    
C76   O13   S    
C75   H26   S    
C60   C64   A    
C53   O7    A    
C73   H20   S    
C64   H33   S    
C3    C67   T    
C61   C65   A    
C22   C35   A    
C24   C36   A    
C51   C58   A    
C20   C35   A    
C24   H8    S    
C73   O9    S    
C52   O5    A    
C74   O10   S    
C58   H31   S    
Cu3   O7    S    
C51   C70   A    
C7    C11   A    
C19   H17   S    
C12   O15   A    
Cu2   O17   S    
C8    C13   A    
C76   H29   S    
C46   O4    A    
C14   C31   A    
C11   C30   A    
C68   C77   S    
C35   C41   S    
C17   H15   S    
C22   H7    S    
C12   O12   A    
C74   H22   S    
C47   O2    A    
C37   C39   T    
C58   C72   A    
Br3   C61   S    
C38   C40   T    
C2    C5    T    
Br1   C59   S    
Br2   C60   S    
C54   C71   A    
C34   C60   A    
C41   C43   T    
C75   O11   S    
C59   C63   A    
C27   C29   S    
Cu4   O6    S    
C4    C77   T    
C47   O3    A    
C16   C20   A    
C48   C69   A    
Cu1   O19   S    
Cu4   O8    S    
C14   H3    S    
C19   C33   A    
C50   O11   S    
C6    C78   T    
C27   C33   S    
C74   H21   S    
C2    C68   S    
C9    C29   A    
C50   C69   A    
C26   C72   S    
Cu1   Cu2   S    
C16   H14   S    
C34   C61   A    
C4    C70   S    
C74   H24   S    
C49   O10   S    
C19   C24   A    
C26   O19   A    
Cu2   O18   S    
C48   C54   A    
C9    C14   A    
C40   C47   S    
C8    H10   S    
C76   H28   S    
C7    C28   A    
C45   C66   A    
C75   H27   S    
Cu4   O2    S    
Cu3   O5    S    
C20   H5    S    
Cu1   O15   S    
C7    H9    S    
C25   O18   A    
C17   C21   A    
Cu2   O14   S    
C21   H6    S    
C26   O17   A    
C45   C63   A    
C48   O9    S    
C10   C15   A    
C27   C28   S    
C76   H30   S    
C10   C28   A    
C15   C30   A    
Cu3   O20   S    
C39   C46   S    
C25   C71   S    
C50   C57   A    
C18   C32   A    
C1    O1    A    
C65   H34   S    
C18   H16   S    
C75   H25   S    
C73   H19   S    
C67   C68   S    
C21   C36   A    
C15   H4    S    
Br4   C62   S    
C66   H35   S    
C62   C66   A    
C56   C65   A    
C51   O13   S    
C5    C34   S    
C9    H11   S    
C31   C37   S    
C63   H32   S    
C68   C78   S    
C16   C32   A    
C42   C44   T    
C17   C33   A    
C56   C64   A    
C18   C22   A    
C23   C62   A    
C55   H12   S    
C27   C32   S    
C23   C59   A    
C73   H18   S    
C13   C31   A    
Cu1   O1    S    
C8    C29   A    
C55   C72   A    
Cu1   O16   S    
C52   O8    A    
C46   O20   A    
