data_mof_unit_27728.cif
_audit_creation_date              2012-12-11T14:50:34-0500
_audit_creation_method            fapswitch 2.2
_symmetry_space_group_name_H-M    P1
_symmetry_Int_Tables_number       1
_space_group_crystal_system       triclinic
_cell_length_a                    10.860743
_cell_length_b                    10.884455
_cell_length_c                    18.740262
_cell_angle_alpha                 90.349839
_cell_angle_beta                  89.891372
_cell_angle_gamma                 60.569247
_cell_volume                      1929.39099451

loop_
_atom_site_label
_atom_site_type_symbol
_atom_type_description
_atom_site_fract_x
_atom_site_fract_y
_atom_site_fract_z
_atom_type_partial_charge
C1    C     C_R   0.239007 0.645433 0.610489 0.541370
C2    C     C_3   0.639943 0.579045 0.800378 -0.034304
C3    C     C_3   0.702873 0.677703 0.810726 0.082631
C4    C     C_3   0.672586 0.649862 0.675009 0.044493
C5    C     C_3   0.828527 0.606196 0.690563 -0.250821
C6    C     C_3   0.629235 0.556367 0.719768 -0.198873
C7    C     C_R   0.791852 0.129114 0.706511 -0.157508
C8    C     C_R   0.809787 0.107580 0.779971 -0.152686
C9    C     C_R   0.690472 0.154645 0.824520 0.010484
C10   C     C_R   0.554721 0.227672 0.796036 -0.152975
C11   C     C_R   0.537484 0.243490 0.723687 -0.137538
C12   C     C_R   0.655348 0.623964 0.599897 0.541506
C13   C     C_R   0.655115 0.193113 0.678210 0.021486
C14   C     C_R   0.189885 0.554520 0.722135 -0.161186
C15   C     C_R   0.180562 0.558397 0.796256 -0.157045
C16   C     C_R   0.180669 0.669761 0.834508 0.025233
C17   C     C_R   0.203230 0.769242 0.798564 -0.156296
C18   C     C_R   0.211076 0.766218 0.725225 -0.151074
C19   C     C_R   0.203443 0.659597 0.686139 0.026818
C20   C     C_R   0.743136 0.532785 0.273548 -0.110913
C21   C     C_R   0.736226 0.541098 0.200525 -0.100499
C22   C     C_R   0.651050 0.670664 0.167858 0.025964
C23   C     C_R   0.626782 0.230583 0.603681 0.548290
C24   C     C_R   0.556730 0.787556 0.209453 -0.128794
C25   C     C_R   0.554517 0.775195 0.283539 -0.129229
C26   C     C_R   0.651226 0.648202 0.316001 0.026987
C27   C     C_R   0.485377 0.274094 0.272354 -0.123339
C28   C     C_R   0.505360 0.235440 0.201048 -0.111810
C29   C     C_R   0.637053 0.192173 0.168875 0.026103
C30   C     C_R   0.743208 0.201952 0.206406 -0.150877
C31   C     C_R   0.724729 0.236221 0.278165 -0.141972
C32   C     C_R   0.597006 0.268712 0.311950 0.026456
C33   C     C_R   0.076669 0.817308 0.308208 -0.133347
C34   C     C_R   0.216472 0.651551 0.402794 0.544817
C35   C     C_R   0.036196 0.836221 0.237561 -0.158095
C36   C     C_R   0.048686 0.722710 0.196355 0.038739
C37   C     C_R   0.084009 0.593152 0.230331 0.147698
C38   C     C_R   0.122291 0.576436 0.301868 -0.111126
C39   C     C_R   0.130131 0.684057 0.338931 -0.001957
C40   C     C_R   0.702832 0.101468 0.896119 0.546362
C41   C     C_R   0.726844 0.690734 0.886924 0.581560
C42   C     C_R   0.119503 0.705681 0.905875 0.548939
C43   C     C_R   0.672622 0.112568 0.102534 0.543866
C44   C     C_R   0.693669 0.689538 0.096909 0.545159
C45   C     C_R   0.641582 0.621642 0.391334 0.539927
C46   C     C_R   0.026606 0.745740 0.119362 0.575485
C47   C     C_R   0.579449 0.296161 0.388191 0.567531
C48   C     C_3   0.598709 0.823814 0.777376 -0.256610
C49   C     C_3   0.578295 0.806463 0.697381 -0.254990
C50   C     C_3   0.846542 0.620459 0.770533 -0.226964
Cr1   Cr    Cr6+3 0.392930 0.397900 0.502230 1.007106
Cr2   Cr    Cr6+3 0.398240 0.708600 0.501260 1.009580
Cr3   Cr    Cr6+3 0.708800 0.393470 0.496460 1.008633
Cr4   Cr    Cr6+3 0.937620 0.938540 0.007640 1.021423
Cr5   Cr    Cr6+3 0.625150 0.937450 0.994520 1.018250
Cr6   Cr    Cr6+3 0.937990 0.625080 0.001190 1.066223
H1    H     H_    0.640815 0.898065 0.784003 0.148436
H2    H     H_    0.696953 0.443456 0.704757 0.147759
H3    H     H_    0.925964 0.515707 0.791376 0.143428
H4    H     H_    0.900728 0.494899 0.674048 0.137987
H5    H     H_    0.883393 0.093613 0.671999 0.122835
H6    H     H_    0.915609 0.049293 0.801381 0.136844
H7    H     H_    0.461381 0.265695 0.829554 0.134751
H8    H     H_    0.430851 0.297168 0.703424 0.141046
H9    H     H_    0.186224 0.470042 0.693121 0.115923
H10   H     H_    0.164075 0.479791 0.823090 0.123286
H11   H     H_    0.205373 0.855543 0.826581 0.128927
H12   H     H_    0.494130 0.871669 0.804866 0.123701
H13   H     H_    0.225749 0.846913 0.699441 0.129235
H14   H     H_    0.819788 0.433735 0.296543 0.146604
H15   H     H_    0.808288 0.448514 0.169872 0.170209
H16   H     H_    0.490451 0.889339 0.185350 0.144401
H17   H     H_    0.480103 0.864648 0.315290 0.135260
H18   H     H_    0.385594 0.300533 0.297421 0.144647
H19   H     H_    0.421336 0.230193 0.172649 0.180518
H20   H     H_    0.844397 0.172736 0.181935 0.130729
H21   H     H_    0.812966 0.230236 0.307669 0.130638
H22   H     H_    0.076516 0.904137 0.336871 0.144342
H23   H     H_    0.464915 0.841070 0.687578 0.135689
H24   H     H_    0.004054 0.937772 0.213852 0.134663
H25   H     H_    0.156517 0.475365 0.326780 0.145995
H26   H     H_    0.606366 0.875179 0.665459 0.128504
H27   H     H_    0.888824 0.694109 0.778948 0.124116
H28   H     H_    0.860107 0.673955 0.660136 0.120314
H29   H     H_    0.530957 0.632834 0.823511 0.137663
H30   H     H_    0.518677 0.583276 0.707242 0.117959
O1    O     O_R   0.507430 0.255570 0.581420 -0.522938
O2    O     O_R   0.524460 0.695920 0.424060 -0.499666
O3    O     O_R   0.736530 0.504260 0.414810 -0.533062
O4    O     O_R   0.691460 0.277160 0.422180 -0.506078
O5    O     O_3   0.499990 0.499990 0.499980 -0.267518
O6    O     O_R   0.089490 0.825610 0.930610 -0.520882
O7    O     O_R   0.818370 0.054540 0.929880 -0.499613
O8    O     O_R   0.605870 0.077310 0.915530 -0.524496
O9    O     O_R   0.646440 0.806700 0.917570 -0.520504
O10   O     O_R   0.837200 0.593290 0.915250 -0.494368
O11   O     O_R   0.065330 0.635370 0.931590 -0.506701
O12   O     O_R   0.280190 0.527390 0.578910 -0.508482
O13   O     O_R   0.068300 0.828790 0.091860 -0.518472
O14   O     O_R   0.798730 0.057480 0.079370 -0.524330
O15   O     O_R   0.584680 0.080480 0.076790 -0.515220
O16   O     O_R   0.626790 0.809640 0.067050 -0.505623
O17   O     O_R   0.816010 0.596460 0.076500 -0.489663
O18   O     O_R   0.045680 0.638310 0.081070 -0.440143
O19   O     O_3   0.833590 0.833690 0.001120 -0.282746
O20   O     O_R   0.260310 0.739740 0.584580 -0.528112
O21   O     O_R   0.532250 0.695150 0.573830 -0.505922
O22   O     O_R   0.744930 0.503430 0.576380 -0.526075
O23   O     O_R   0.699250 0.276390 0.571950 -0.499610
O24   O     O_R   0.499020 0.256400 0.419850 -0.515531
O25   O     O_R   0.272400 0.528160 0.429140 -0.525546
O26   O     O_R   0.251910 0.740570 0.423020 -0.515336
Br1   Br    Br    0.098206 0.428424 0.183982 -0.574626
N1    N     N_3   0.722745 0.445887 0.838316 -0.619829
H31   H     H_    0.811517 0.375700 0.808551 0.238087
H32   H     H_    0.658320 0.401189 0.846244 0.238303

loop_
_geom_bond_atom_site_label_1
_geom_bond_atom_site_label_2
_ccdc_geom_bond_type
C46   O13   A    
C34   O26   A    
C3    C48   S    
C35   C36   A    
C40   O7    A    
C20   H14   S    
N1    H31   S    
C7    C8    A    
C41   O9    A    
Cr5   O16   S    
C33   C39   A    
Cr5   O19   S    
C50   H3    S    
C28   C29   A    
C38   C39   A    
C33   H22   S    
C41   O10   A    
C37   Br1   S    
Cr2   O26   S    
C15   C16   A    
C35   H24   S    
C11   C13   A    
C13   C23   S    
C2    H29   S    
C18   C19   A    
C6    H2    S    
C7    H5    S    
Cr4   O7    S    
C26   C45   S    
Cr1   O5    S    
C44   O17   A    
C22   C44   S    
C10   H7    S    
Cr2   O21   S    
C32   C47   S    
C8    C9    A    
Cr3   O5    S    
C36   C46   S    
C4    C12   S    
C27   H18   S    
C45   O3    A    
C9    C10   A    
C25   H17   S    
C5    H4    S    
C1    O20   A    
C18   H13   S    
Cr2   O20   S    
C23   O1    A    
C21   C22   A    
C29   C43   S    
C34   O25   A    
Cr4   O14   S    
C2    C6    S    
Cr6   O11   S    
Cr5   O8    S    
C3    C50   S    
C50   H27   S    
C31   H21   S    
C23   O23   A    
C17   H11   S    
C1    C19   S    
C34   C39   S    
Cr2   O2    S    
C45   O2    A    
C43   O14   A    
Cr6   O18   S    
C4    C6    S    
C11   H8    S    
C42   O11   A    
Cr1   O1    S    
C12   O22   A    
C5    H28   S    
C44   O16   A    
C16   C17   A    
C25   C26   A    
C15   H10   S    
C46   O18   A    
C9    C40   S    
C48   H12   S    
C49   H23   S    
C49   H26   S    
C43   O15   A    
Cr4   O6    S    
C37   C38   A    
C30   H20   S    
C31   C32   A    
C17   C18   A    
C24   C25   A    
Cr5   O9    S    
C48   C49   S    
C21   H15   S    
Cr1   O24   S    
C38   H25   S    
Cr3   O3    S    
C47   O4    A    
C22   C24   A    
C5    C50   S    
C16   C42   S    
Cr3   O4    S    
C24   H16   S    
Cr3   O23   S    
Cr6   O10   S    
C36   C37   A    
Cr1   O25   S    
Cr4   O19   S    
C27   C32   A    
C14   C19   A    
Cr6   O17   S    
C40   O8    A    
C4    C5    S    
C1    O12   A    
C12   O21   A    
N1    H32   S    
C47   O24   A    
Cr5   O15   S    
C6    H30   S    
C4    C49   S    
C2    C3    S    
C2    N1    S    
Cr3   O22   S    
C30   C31   A    
C20   C26   A    
Cr1   O12   S    
C33   C35   A    
C14   H9    S    
C42   O6    A    
Cr4   O13   S    
Cr6   O19   S    
C3    C41   S    
C10   C11   A    
C29   C30   A    
C7    C13   A    
C48   H1    S    
C20   C21   A    
C27   C28   A    
C14   C15   A    
Cr2   O5    S    
C28   H19   S    
C8    H6    S    
