data_mof_unit_21159.cif
_audit_creation_date              2012-12-10T17:17:31-0500
_audit_creation_method            fapswitch 2.2
_symmetry_space_group_name_H-M    P1
_symmetry_Int_Tables_number       1
_space_group_crystal_system       triclinic
_cell_length_a                    10.184402
_cell_length_b                    10.76593
_cell_length_c                    12.244861
_cell_angle_alpha                 89.87424
_cell_angle_beta                  108.965563
_cell_angle_gamma                 96.628323
_cell_volume                      1260.32044001

loop_
_atom_site_label
_atom_site_type_symbol
_atom_type_description
_atom_site_fract_x
_atom_site_fract_y
_atom_site_fract_z
_atom_type_partial_charge
C1    C     C_R   0.049830 0.732636 0.487634 0.972588
C2    C     C_R   0.205898 0.513693 0.839945 -0.135796
C3    C     C_2   0.078233 0.866964 0.480737 -0.377561
C4    C     C_R   0.133484 0.509069 0.714696 0.870879
C5    C     C_2   0.969851 0.934539 0.460577 -0.047805
C6    C     C_2   0.898396 0.136398 0.485848 -0.312317
C7    C     C_2   0.987808 0.052668 0.527778 -0.069240
C8    C     C_2   0.432937 0.510868 0.510110 -0.126822
C9    C     C_2   0.567442 0.487804 0.491234 -0.096812
C10   C     C_R   0.946425 0.267538 0.506770 1.012412
C11   C     C_R   0.865906 0.486896 0.286118 0.905490
C12   C     C_R   0.422737 0.490446 0.993313 0.080022
C13   C     C_R   0.725315 0.321360 0.997264 -0.145207
C14   C     C_R   0.788248 0.459729 0.165362 -0.050867
C15   C     C_R   0.165018 0.589064 0.915524 -0.016374
C16   C     C_R   0.248487 0.605721 0.030988 -0.178976
C17   C     C_R   0.377038 0.560125 0.069082 -0.199225
C18   C     C_2   0.828009 0.884753 0.379617 0.476814
C19   C     C_2   0.514702 0.226607 0.770532 0.378295
C20   C     C_R   0.038372 0.654252 0.877640 0.122156
C21   C     C_R   0.922858 0.612320 0.912284 -0.106348
C22   C     C_R   0.803150 0.673865 0.877704 -0.122334
C23   C     C_R   0.328157 0.453298 0.883674 0.072576
C24   C     C_R   0.798488 0.778096 0.808898 -0.158261
C25   C     C_R   0.913393 0.820731 0.774416 -0.099420
C26   C     C_R   0.033525 0.759607 0.809127 -0.103140
C27   C     C_2   0.097733 0.074761 0.644033 0.369898
C28   C     C_R   0.558774 0.454686 0.024318 0.030688
C29   C     C_R   0.592642 0.364444 0.955899 0.129010
C30   C     C_R   0.490453 0.316401 0.851892 -0.054130
C31   C     C_R   0.359362 0.358645 0.819455 -0.236176
C32   C     C_R   0.662903 0.508841 0.122013 -0.236591
C33   C     C_R   0.821330 0.367062 0.102701 -0.266798
H1    H     H_    0.918175 0.326226 0.137447 0.170518
H2    H     H_    0.437052 0.577932 0.159271 0.146128
H3    H     H_    0.217081 0.659802 0.090823 0.157558
H4    H     H_    0.281943 0.316826 0.741711 0.205322
H5    H     H_    0.734139 0.909474 0.393360 0.040560
H6    H     H_    0.428510 0.160022 0.719154 0.057773
H7    H     H_    0.925751 0.531793 0.965520 0.153689
H8    H     H_    0.714028 0.640761 0.904128 0.152032
H9    H     H_    0.705636 0.825500 0.781887 0.140312
H10   H     H_    0.909091 0.901031 0.720712 0.159116
H11   H     H_    0.122070 0.793536 0.782107 0.099635
H12   H     H_    0.805523 0.115358 0.410914 0.091445
H13   H     H_    0.187286 0.023004 0.669598 0.042153
H14   H     H_    0.185712 0.908668 0.520078 0.112868
H15   H     H_    0.565015 0.413832 0.430303 0.161043
H16   H     H_    0.435679 0.583898 0.572038 0.162883
H17   H     H_    0.684243 0.623130 0.601811 0.170800
H18   H     H_    0.315227 0.378011 0.396814 0.166159
H19   H     H_    0.753692 0.247340 0.953354 0.203793
H20   H     H_    0.646736 0.586764 0.169563 0.183510
N1    N     N_2   0.313640 0.446500 0.454900 -0.193107
N2    N     N_2   0.686360 0.553430 0.545150 -0.181518
O1    O     O_R   0.936910 0.692950 0.509080 -0.599986
O2    O     O_2   0.626849 0.231403 0.753656 -0.569487
O3    O     O_2   0.084271 0.146500 0.715722 -0.594445
O4    O     O_R   0.138320 0.658600 0.480130 -0.611803
O5    O     O_R   0.002900 0.525670 0.675280 -0.584290
O6    O     O_R   0.204310 0.491320 0.646330 -0.620630
O7    O     O_R   0.861680 0.341400 0.519870 -0.593347
O8    O     O_R   0.063090 0.307050 0.490920 -0.615616
O9    O     O_R   0.795690 0.508680 0.353670 -0.607677
O10   O     O_R   0.997100 0.474330 0.324720 -0.618973
O11   O     O_2   0.815712 0.816187 0.296618 -0.592484
Zn1   Zn    Zn3+2 0.865520 0.522940 0.519330 0.984972
Zn2   Zn    Zn3+2 0.134480 0.477060 0.480670 0.940463

loop_
_geom_bond_atom_site_label_1
_geom_bond_atom_site_label_2
_ccdc_geom_bond_type
C12   C17   A    
C6    C10   S    
N2    Zn1   S    
C13   C33   A    
C6    C7    D    
C9    N2    D    
C6    H12   S    
O4    Zn2   S    
C18   O11   D    
O1    Zn1   S    
C24   H9    S    
C2    C4    S    
H17   N2    S    
O6    Zn2   S    
C8    N1    D    
C30   C31   A    
O10   Zn2   S    
C25   H10   S    
C14   C33   A    
C33   H1    S    
C18   H5    S    
C26   H11   S    
C4    O6    A    
C21   C22   A    
C16   H3    S    
H18   N1    S    
C2    C15   A    
C12   C23   A    
C4    O5    A    
C10   O7    A    
C21   H7    S    
C20   C26   A    
O7    Zn1   S    
C12   C28   A    
C19   H6    S    
C27   H13   S    
C3    H14   S    
C28   C29   A    
C1    O1    A    
C1    O4    A    
C15   C20   S    
C11   C14   S    
C22   C24   A    
C22   H8    S    
N1    Zn2   S    
C29   C30   A    
C15   C16   A    
C13   H19   S    
O9    Zn1   S    
C11   O10   A    
C32   H20   S    
C28   C32   A    
C7    C27   S    
C24   C25   A    
C9    H15   S    
C20   C21   A    
C11   O9    A    
C13   C29   A    
C2    C23   A    
C5    C7    S    
O8    Zn2   S    
C8    C9    S    
C5    C18   S    
C17   H2    S    
C3    C5    D    
C25   C26   A    
C19   C30   S    
C8    H16   S    
C10   O8    A    
C19   O2    D    
C31   H4    S    
O5    Zn1   S    
C14   C32   A    
C16   C17   A    
C1    C3    S    
C27   O3    D    
C23   C31   A    
