data_mof_unit_18935.cif
_audit_creation_date              2012-12-10T19:13:34-0500
_audit_creation_method            fapswitch 2.2
_symmetry_space_group_name_H-M    P1
_symmetry_Int_Tables_number       1
_space_group_crystal_system       triclinic
_cell_length_a                    9.74647
_cell_length_b                    10.843049
_cell_length_c                    16.430543
_cell_angle_alpha                 89.604553
_cell_angle_beta                  85.920929
_cell_angle_gamma                 88.151225
_cell_volume                      1731.08497427

loop_
_atom_site_label
_atom_site_type_symbol
_atom_type_description
_atom_site_fract_x
_atom_site_fract_y
_atom_site_fract_z
_atom_type_partial_charge
C1    C     C_R   0.498491 0.741752 0.498818 1.008455
C2    C     C_R   0.343614 0.460134 0.784188 -0.261034
C3    C     C_R   0.446777 0.294214 0.170271 0.200648
C4    C     C_R   0.432488 0.354712 0.244501 -0.199508
C5    C     C_R   0.649100 0.454311 0.213795 -0.207581
C6    C     C_R   0.664757 0.395101 0.138396 0.445460
C7    C     C_R   0.558920 0.319599 0.114749 -0.045305
C8    C     C_2   0.449371 0.366878 0.992456 -0.098211
C9    C     C_2   0.545544 0.298667 0.028014 -0.120642
C10   C     C_R   0.530538 0.438448 0.265212 -0.112511
C11   C     C_3   0.408075 0.926276 0.428083 -0.065282
C12   C     C_R   0.481934 0.494781 0.653953 0.978943
C13   C     C_3   0.412914 0.069213 0.424568 -0.048162
C14   C     C_3   0.437194 0.931516 0.579025 0.284093
C15   C     C_3   0.646491 0.918612 0.473468 -0.411706
C16   C     C_3   0.498162 0.876901 0.495718 -0.235522
C17   C     C_3   0.506038 0.118809 0.492332 -0.219848
C18   C     C_3   0.439412 0.073388 0.575517 -0.478619
C19   C     C_3   0.659378 0.059751 0.475723 0.658232
C20   C     C_3   0.912716 0.628486 0.505758 -0.232792
C21   C     C_3   0.073164 0.627982 0.517592 -0.215994
C22   C     C_3   0.914643 0.437777 0.574541 -0.220420
C23   C     C_R   0.502644 0.256920 0.495040 0.902748
C24   C     C_3   0.930700 0.443306 0.427229 -0.203824
C25   C     C_3   0.076316 0.420580 0.565598 -0.250423
C26   C     C_3   0.089684 0.464181 0.420836 0.076973
C27   C     C_R   0.518596 0.490955 0.346634 0.961946
C28   C     C_R   0.472567 0.468097 0.741277 -0.125098
C29   C     C_R   0.592248 0.438316 0.780255 -0.161817
C30   C     C_R   0.583458 0.400306 0.860929 -0.107151
C31   C     C_R   0.454716 0.391414 0.904438 0.036913
C32   C     C_R   0.333333 0.421804 0.865577 0.386760
H1    H     H_    0.693050 0.442925 0.748271 0.176039
H2    H     H_    0.301510 0.896854 0.444873 0.184447
H3    H     H_    0.452266 0.101211 0.363660 0.217524
H4    H     H_    0.326856 0.906849 0.585952 0.133360
H5    H     H_    0.331518 0.110121 0.584272 0.206321
H6    H     H_    0.717029 0.870914 0.512887 0.243674
H7    H     H_    0.681874 0.879915 0.412851 0.220336
H8    H     H_    0.345128 0.334850 0.286452 0.183399
H9    H     H_    0.487866 0.112716 0.627195 0.253921
H10   H     H_    0.856868 0.679274 0.557207 0.209541
H11   H     H_    0.890344 0.680530 0.449353 0.184663
H12   H     H_    0.123167 0.699129 0.477927 0.197024
H13   H     H_    0.089953 0.656456 0.581025 0.175402
H14   H     H_    0.885461 0.493281 0.630314 0.155945
H15   H     H_    0.118221 0.440122 0.625102 0.175958
H16   H     H_    0.913980 0.343604 0.426833 0.246219
H17   H     H_    0.727774 0.514716 0.231957 0.196376
H18   H     H_    0.883218 0.480543 0.372503 0.193409
H19   H     H_    0.145869 0.379232 0.400371 0.161019
H20   H     H_    0.863775 0.351429 0.587889 0.219246
H21   H     H_    0.105010 0.322935 0.551452 0.216683
H22   H     H_    0.625713 0.247310 0.992356 0.210195
H23   H     H_    0.250832 0.482669 0.753986 0.198340
H24   H     H_    0.372180 0.418294 0.030659 0.218449
H25   H     H_    0.678483 0.381318 0.889531 0.208360
N1    N     N_3   0.861190 0.500250 0.501720 -0.084612
N2    N     N_3   0.138550 0.503270 0.501080 -0.086501
O1    O     O_R   0.383960 0.685090 0.500020 -0.624447
O2    O     O_R   0.616040 0.685320 0.499960 -0.621339
O3    O     O_R   0.370240 0.499890 0.615830 -0.616870
O4    O     O_R   0.602330 0.500120 0.615770 -0.631928
O5    O     O_R   0.383960 0.314680 0.500040 -0.620739
O6    O     O_R   0.616040 0.314910 0.499980 -0.589224
O7    O     O_R   0.397670 0.499880 0.384230 -0.606538
O8    O     O_R   0.629760 0.500110 0.384170 -0.610084
Zn1   Zn    Zn3+2 0.345040 0.499850 0.500040 0.965912
Zn2   Zn    Zn3+2 0.654960 0.500150 0.499960 0.983174
S1    S     S_3+6 0.811377 0.426227 0.072650 0.088799
O9    O     O_2   0.923379 0.475409 0.120533 -0.209852
O10   O     O_2   0.863290 0.310152 0.029716 -0.226543
O11   O     O_3   0.766726 0.532384 0.003486 -0.547852
H26   H     H_    0.849619 0.540305 0.965564 0.418591
I1    I     I_    0.448524 0.842188 0.309254 -0.189186
I2    I     I_    0.201096 0.131538 0.427699 -0.295542
S2    S     S_3+6 0.739328 0.104486 0.375055 0.026942
O12   O     O_2   0.673704 0.044495 0.306202 -0.308355
O13   O     O_2   0.731917 0.241231 0.361237 -0.332586
O14   O     O_3   0.905119 0.056071 0.368816 -0.474688
H27   H     H_    0.941673 0.081084 0.313560 0.406135
S3    S     S_3+6 0.782445 0.092638 0.553678 0.091247
O15   O     O_2   0.862071 0.979190 0.578708 -0.223049
O16   O     O_2   0.888726 0.175800 0.516404 -0.297649
O17   O     O_3   0.712702 0.155223 0.641254 -0.518087
H28   H     H_    0.685334 0.241324 0.629087 0.331780
S4    S     S_3+6 0.507919 0.868155 0.670235 0.064633
O18   O     O_2   0.651281 0.815148 0.653601 -0.264251
O19   O     O_2   0.509098 0.964916 0.735301 -0.227200
O20   O     O_3   0.405006 0.755566 0.705673 -0.585321
H29   H     H_    0.432091 0.738353 0.761711 0.386712
I3    I     I_    0.131583 0.591651 0.319232 -0.236323
S5    S     S_3+6 0.167722 0.411350 0.916491 0.064417
O21   O     O_2   0.057428 0.419524 0.856999 -0.311717
O22   O     O_2   0.158305 0.290413 0.961383 -0.172693
O23   O     O_3   0.142796 0.527001 0.984055 -0.490002
H30   H     H_    0.149599 0.603383 0.950794 0.360506
I4    I     I_    0.292161 0.169759 0.144105 -0.091242

loop_
_geom_bond_atom_site_label_1
_geom_bond_atom_site_label_2
_ccdc_geom_bond_type
C10   C27   S    
O7    Zn1   S    
S4    O18   D    
S5    O21   D    
O11   H26   S    
C14   C18   S    
C8    H24   S    
O17   H28   S    
C15   C19   S    
C17   C23   S    
C12   C28   S    
O5    Zn1   S    
C28   C29   A    
C18   H5    S    
C24   C26   S    
C14   S4    S    
C21   N2    S    
C3    C7    A    
C2    H23   S    
C14   H4    S    
C30   C31   A    
C26   I3    S    
C15   C16   S    
C30   H25   S    
C29   H1    S    
C2    C32   A    
C19   S2    S    
C4    H8    S    
C8    C9    D    
C22   C25   S    
S1    O9    D    
C19   S3    S    
C26   N2    S    
C25   H15   S    
C32   S5    S    
S5    O22   D    
C5    H17   S    
C21   H13   S    
S2    O13   D    
C24   H18   S    
S1    O10   D    
C24   H16   S    
O4    Zn2   S    
C18   H9    S    
C12   O4    A    
S2    O12   D    
O8    Zn2   S    
C15   H6    S    
C29   C30   A    
N2    Zn1   S    
C21   H12   S    
C12   O3    A    
C11   C16   S    
C31   C32   A    
C13   I2    S    
O23   H30   S    
S1    O11   S    
C17   C18   S    
C1    C16   S    
C15   H7    S    
C23   O5    A    
C22   H14   S    
S5    O23   S    
S3    O16   D    
S4    O19   D    
C14   C16   S    
C1    O1    A    
C4    C10   A    
C3    C4    A    
C20   H11   S    
C22   H20   S    
S2    O14   S    
O2    Zn2   S    
C6    S1    S    
C8    C31   S    
C11   H2    S    
C25   H21   S    
O14   H27   S    
C1    O2    A    
C22   N1    S    
C20   H10   S    
N1    Zn2   S    
C13   H3    S    
C6    C7    A    
O3    Zn1   S    
S3    O17   S    
C13   C17   S    
C23   O6    A    
C5    C10   A    
C27   O7    A    
C11   I1    S    
C26   H19   S    
C11   C13   S    
C3    I4    S    
O20   H29   S    
C5    C6    A    
O6    Zn2   S    
C17   C19   S    
C27   O8    A    
C7    C9    S    
C20   C21   S    
O1    Zn1   S    
C24   N1    S    
S3    O15   D    
S4    O20   S    
C2    C28   A    
C9    H22   S    
C25   N2    S    
C20   N1    S    
