data_mof_unit_44880.cif
_audit_creation_date              2012-12-11T20:37:39-0500
_audit_creation_method            fapswitch 2.2
_symmetry_space_group_name_H-M    P1
_symmetry_Int_Tables_number       1
_space_group_crystal_system       triclinic
_cell_length_a                    8.260957
_cell_length_b                    18.840969
_cell_length_c                    22.91311
_cell_angle_alpha                 97.721477
_cell_angle_beta                  89.62421
_cell_angle_gamma                 93.623397
_cell_volume                      3526.8909873

loop_
_atom_site_label
_atom_site_type_symbol
_atom_type_description
_atom_site_fract_x
_atom_site_fract_y
_atom_site_fract_z
_atom_type_partial_charge
Ba1   Ba    Ba6+2 0.849480 0.533290 0.473010 1.691912
Ba2   Ba    Ba6+2 0.340340 0.466770 0.527000 1.739342
Br1   Br    Br    0.150971 0.803337 0.708400 -0.298737
Br2   Br    Br    0.201608 0.839365 0.581150 -0.538167
Br3   Br    Br    0.921460 0.212997 0.351522 -0.544947
Br4   Br    Br    0.459646 0.670470 0.744370 -0.305995
Br5   Br    Br    0.540717 0.785768 0.236835 -0.429672
Br6   Br    Br    0.812864 0.283708 0.946349 -0.439815
Br7   Br    Br    0.445437 0.680986 0.046784 -0.357992
Br8   Br    Br    0.031961 0.626379 0.777717 -0.429216
C1    C     C_3   0.638928 0.792166 0.314175 0.129321
C2    C     C_R   0.178981 0.528491 0.930897 -0.074862
C3    C     C_R   0.151543 0.517982 0.869404 0.677252
C4    C     C_3   0.089832 0.693380 0.314836 0.290054
C5    C     C_R   0.978489 0.414587 0.877020 0.626037
C6    C     C_R   0.011516 0.419569 0.938631 -0.050704
C7    C     C_R   0.108442 0.479223 0.965891 -0.087835
C8    C     C_R   0.278691 0.586758 0.957688 -0.041388
C9    C     C_R   0.304819 0.598147 0.018615 0.302261
C10   C     C_R   0.236718 0.548261 0.054870 -0.059971
C11   C     C_R   0.143635 0.487339 0.027506 -0.080845
C12   C     C_3   0.618899 0.720143 0.337460 0.353219
C13   C     C_R   0.953058 0.366891 0.974111 0.306881
C14   C     C_R   0.993892 0.373987 0.033890 -0.059326
C15   C     C_R   0.088384 0.433643 0.061278 -0.054462
C16   C     C_3   0.070300 0.724079 0.257376 -0.269047
C17   C     C_R   0.131549 0.439486 0.121515 0.613736
C18   C     C_R   0.258764 0.556540 0.117125 0.620012
C19   C     C_2   0.822700 0.435404 0.764137 -0.134715
C20   C     C_3   0.781133 0.423190 0.699103 -0.095500
C21   C     C_1   0.001729 0.513289 0.685950 0.000586
C22   C     C_2   0.029466 0.526594 0.744168 0.266011
C23   C     C_3   0.493582 0.366136 0.345936 0.281029
C24   C     C_2   0.962430 0.473446 0.784282 0.158396
C25   C     C_R   0.409932 0.537442 0.232914 -0.083296
C26   C     C_R   0.448948 0.545804 0.292973 -0.021965
C27   C     C_R   0.192108 0.486514 0.314632 0.005829
C28   C     C_3   0.171739 0.693375 0.607827 0.290383
C29   C     C_R   0.146829 0.482568 0.254825 -0.114745
C30   C     C_R   0.255584 0.507649 0.212619 0.193761
C31   C     C_2   0.882794 0.468675 0.662352 -0.312908
C32   C     C_2   0.396126 0.699954 0.481762 -0.217174
C33   C     C_3   0.324540 0.740458 0.436874 -0.051083
C34   C     C_3   0.449181 0.343585 0.281455 -0.337333
C35   C     C_2   0.373788 0.819692 0.446393 -0.081974
C36   C     C_2   0.505221 0.844673 0.479985 -0.046967
C37   C     C_2   0.590108 0.792883 0.511726 -0.085155
C38   C     C_1   0.530996 0.725350 0.509928 0.059558
C39   C     C_R   0.665996 0.063646 0.495010 0.473104
C40   C     C_3   0.106736 0.767837 0.626050 0.395026
C41   C     C_R   0.562542 0.922059 0.485629 0.487847
C42   C     C_R   0.623395 0.189703 0.476378 -0.074452
C43   C     C_R   0.672921 0.262630 0.480825 0.035303
C44   C     C_R   0.918821 0.241046 0.530571 0.036860
C45   C     C_3   0.012233 0.292506 0.674391 0.311809
C46   C     C_R   0.869830 0.167739 0.526920 -0.113423
C47   C     C_R   0.720680 0.141195 0.499765 -0.047455
C48   C     C_R   0.819258 0.287807 0.508126 -0.230344
C49   C     C_3   0.924513 0.311847 0.336411 0.527730
C50   C     C_3   0.910416 0.312883 0.270068 -0.304987
C51   C     C_3   0.677146 0.623735 0.650985 0.302338
C52   C     C_3   0.671858 0.642732 0.717575 0.154055
C53   C     C_3   0.976544 0.253356 0.727381 -0.302981
C54   C     C_3   0.510648 0.283877 0.681168 0.324730
C55   C     C_3   0.451028 0.224081 0.715942 -0.299266
C56   C     C_R   0.339084 0.521736 0.333390 -0.296103
H1    H     H_    0.670701 0.726522 0.382678 0.007355
H2    H     H_    0.487619 0.704623 0.338745 -0.067745
H3    H     H_    0.578699 0.833413 0.344422 0.015768
H4    H     H_    0.386422 0.388051 0.369416 0.045144
H5    H     H_    0.594300 0.408372 0.348902 0.024721
H6    H     H_    0.340289 0.305558 0.277899 0.159483
H7    H     H_    0.423156 0.390919 0.260119 0.055987
H8    H     H_    0.551054 0.317089 0.257642 0.129950
H9    H     H_    0.122917 0.688241 0.220703 0.145869
H10   H     H_    0.063712 0.347648 0.689939 0.063405
H11   H     H_    0.895608 0.295027 0.651218 -0.089355
H12   H     H_    0.973194 0.764376 0.619681 0.063463
H13   H     H_    0.082972 0.259472 0.757332 0.148598
H14   H     H_    0.871556 0.276099 0.751985 0.133463
H15   H     H_    0.473528 0.269569 0.634305 0.067519
H16   H     H_    0.509196 0.173907 0.698841 0.092437
H17   H     H_    0.318087 0.213898 0.711640 0.152050
H18   H     H_    0.025289 0.639469 0.311222 0.087796
H19   H     H_    0.483155 0.238881 0.763198 0.146719
H20   H     H_    0.948667 0.332486 0.059354 0.161421
H21   H     H_    0.500592 0.553688 0.202232 0.133952
H22   H     H_    0.334584 0.625070 0.931199 0.179630
H23   H     H_    0.867769 0.364933 0.261214 0.066929
H24   H     H_    0.744178 0.406577 0.792007 0.154050
H25   H     H_    0.027817 0.459930 0.241281 0.128144
H26   H     H_    0.372518 0.526443 0.379385 0.076579
H27   H     H_    0.863954 0.458203 0.615090 0.090297
H28   H     H_    0.309673 0.854875 0.422055 0.115148
H29   H     H_    0.696372 0.811636 0.538421 0.123622
H30   H     H_    0.510068 0.171147 0.454290 0.118422
H31   H     H_    0.947297 0.132035 0.545237 0.111046
H32   H     H_    0.344611 0.646336 0.485549 0.052418
H33   H     H_    0.857702 0.344153 0.510828 0.059619
H34   H     H_    0.820034 0.270336 0.250596 0.135585
H35   H     H_    0.940403 0.728593 0.247683 0.164996
H36   H     H_    0.134490 0.778037 0.260289 0.161567
H37   H     H_    0.305462 0.698682 0.603551 0.022161
H38   H     H_    0.116573 0.669493 0.565046 -0.001305
H39   H     H_    0.820928 0.335539 0.360130 0.028738
H40   H     H_    0.590686 0.577105 0.637768 0.077244
H41   H     H_    0.946046 0.195479 0.712692 0.131581
H42   H     H_    0.644471 0.287057 0.684215 -0.071903
H43   H     H_    0.221260 0.687378 0.320583 -0.038777
H44   H     H_    0.029245 0.303816 0.248309 0.153066
H45   H     H_    0.801226 0.609429 0.637873 -0.077279
H46   H     H_    0.769479 0.809328 0.311539 0.104344
H47   H     H_    0.760490 0.688549 0.731412 0.137201
H48   H     H_    0.701783 0.595705 0.738841 0.038750
N1    N     N_R   0.028520 0.469766 0.844450 -0.423524
N2    N     N_R   0.213086 0.501274 0.149721 -0.430880
N3    N     N_R   0.527704 0.038647 0.465319 -0.217760
N4    N     N_R   0.477296 0.969559 0.460687 -0.215770
N5    N     N_R   0.700947 0.946909 0.515463 -0.207211
N6    N     N_R   0.751659 0.016184 0.520020 -0.215116
O1    O     O_2   0.898140 0.461210 0.359840 -0.493701
O2    O     O_2   0.258754 0.248710 0.535397 -0.464162
O3    O     O_3   0.125177 0.255845 0.637873 -0.598821
O4    O     O_3   0.138540 0.461940 0.430900 -0.457105
O5    O     O_3   0.557600 0.585010 0.531050 -0.499304
O6    O     O_2   0.379790 0.327560 0.468300 -0.422059
O7    O     O_3   0.541431 0.305852 0.369446 -0.614740
O8    O     O_2   0.481369 0.487867 0.706543 -0.438489
O9    O     O_3   0.445440 0.348755 0.705004 -0.569919
O10   O     O_2   0.243800 0.549126 0.838204 -0.504917
O11   O     O_2   0.913713 0.359180 0.851930 -0.563567
O12   O     O_3   0.637355 0.683522 0.625247 -0.608115
O13   O     O_2   0.098797 0.388701 0.148416 -0.601386
O14   O     O_2   0.315759 0.613541 0.142568 -0.521556
O15   O     O_3   0.654260 0.589640 0.397760 -0.490053
O16   O     O_2   0.782362 0.537181 0.294038 -0.493427
O17   O     O_3   0.070772 0.346076 0.358988 -0.619230
O18   O     O_3   0.700503 0.668718 0.300467 -0.575721
O19   O     O_2   0.809910 0.672460 0.531740 -0.473113
O20   O     O_3   0.065030 0.625960 0.427320 -0.488203
O21   O     O_2   0.997775 0.756059 0.477164 -0.442679
O22   O     O_3   0.024771 0.739275 0.361580 -0.590991
O23   O     O_2   0.291560 0.538810 0.640200 -0.429898
O24   O     O_3   0.051160 0.538120 0.569110 -0.508369
O25   O     O_3   0.535440 0.410410 0.602240 -0.485981
O26   O     O_3   0.132912 0.652631 0.653246 -0.568067
O27   O     O_3   0.632100 0.415050 0.468960 -0.490554
O28   O     O_3   0.124670 0.374100 0.572690 -0.485174
P1    P     P_3+3 0.069200 0.440380 0.368230 0.983695
P2    P     P_3+3 0.634560 0.662100 0.548650 1.002032
P3    P     P_3+3 0.101800 0.717926 0.427552 0.995995
P4    P     P_3+3 0.120500 0.559680 0.631780 1.069848
P5    P     P_3+3 0.108112 0.279723 0.567212 1.007996
P6    P     P_3+3 0.647046 0.584255 0.320826 0.974881
P7    P     P_3+3 0.559483 0.326182 0.445969 0.994213
P8    P     P_3+3 0.560809 0.419145 0.679008 0.981457

loop_
_geom_bond_atom_site_label_1
_geom_bond_atom_site_label_2
_ccdc_geom_bond_type
C4    H43   S    
O4    P1    S    
C4    O22   S    
C38   P2    S    
C28   H37   S    
O12   P2    S    
C25   C26   A    
C4    H18   S    
Br6   C13   S    
C44   P5    S    
C42   H30   S    
C26   P6    S    
C53   H13   S    
C35   C36   D    
Ba2   O25   S    
Br5   C1    S    
C2    C3    A    
C49   H39   S    
O15   P6    S    
C18   O14   D    
Ba1   O5    S    
C52   H48   S    
C32   H32   S    
C16   H35   S    
O3    P5    S    
C45   H11   S    
C26   C56   A    
C55   H17   S    
C39   N6    A    
C49   O17   S    
Ba2   O28   S    
C5    C6    A    
C23   O7    S    
C41   N4    A    
Ba2   O24   S    
C46   C47   A    
Ba1   Ba2   S    
C28   O26   S    
C28   H38   S    
C18   N2    Am   
C51   O12   S    
O25   P8    S    
C25   H21   S    
Br7   C9    S    
C39   N3    A    
C9    C10   A    
C6    C7    A    
C45   C53   S    
C2    C7    A    
C41   N5    A    
C3    O10   D    
C20   C31   S    
Ba1   P1    S    
O27   P7    S    
Ba1   O19   S    
O6    P7    D    
O18   P6    S    
C20   P8    S    
C49   C50   S    
Ba2   O23   S    
O19   P2    D    
O17   P1    S    
C51   C52   S    
C46   H31   S    
C35   H28   S    
C40   H12   S    
C29   H25   S    
C19   H24   S    
Br1   C40   S    
C54   H42   S    
C44   C46   A    
C53   H14   S    
Ba2   P4    S    
C12   H1    S    
C45   O3    S    
Br3   C49   S    
C17   O13   D    
C14   C15   A    
C52   H47   S    
O5    P2    S    
O7    P7    S    
C29   C30   A    
C23   H5    S    
C8    C9    A    
C56   H26   S    
C10   C18   A    
C24   N1    S    
C50   H23   S    
C36   C41   S    
C8    H22   S    
Br2   C40   S    
C22   C24   S    
O22   P3    S    
C19   C20   S    
O16   P6    D    
C37   C38   D    
C13   C14   A    
C27   C56   A    
C16   H9    S    
Ba1   P2    S    
C32   C38   D    
C4    C16   S    
N5    N6    A    
C34   H8    S    
C51   H40   S    
C33   C35   S    
O20   P3    S    
C12   H2    S    
C3    N1    Am   
Ba1   O20   S    
C23   H4    S    
O26   P4    S    
C45   H10   S    
Ba2   O6    S    
O23   P4    D    
C43   P7    S    
C6    C13   A    
O2    P5    D    
C5    N1    Am   
Ba1   O27   S    
C32   C33   S    
C53   H41   S    
C51   H45   S    
C33   P3    S    
C42   C43   A    
O21   P3    D    
C44   C48   A    
C11   C15   A    
C36   C37   S    
C21   C31   D    
C1    H46   S    
C23   C34   S    
C21   C22   D    
C48   H33   S    
C27   P1    S    
C50   H34   S    
C30   N2    S    
O9    P8    S    
C43   C48   A    
C1    H3    S    
C55   H19   S    
C28   C40   S    
Ba2   O4    S    
C54   O9    S    
C15   C17   A    
C12   O18   S    
C1    C12   S    
C31   H27   S    
C54   C55   S    
Br4   C52   S    
C25   C30   A    
Ba2   O27   S    
Ba1   O4    S    
O24   P4    S    
Ba1   O24   S    
N3    N4    A    
C17   N2    Am   
C21   P4    S    
C55   H16   S    
C39   C47   S    
C19   C24   D    
O1    P1    D    
C34   H6    S    
C34   H7    S    
Ba1   O1    S    
C54   H15   S    
C50   H44   S    
C42   C47   A    
O8    P8    D    
Ba2   O5    S    
Br8   C22   S    
C5    O11   D    
C10   C11   A    
C27   C29   A    
O28   P5    S    
C2    C8    A    
C37   H29   S    
Ba1   O15   S    
C14   H20   S    
C16   H36   S    
C7    C11   A    
