data_mof_unit_40773.cif
_audit_creation_date              2012-10-26T20:48:50-0400
_audit_creation_method            fapswitch 2.2
_symmetry_space_group_name_H-M    P1
_symmetry_Int_Tables_number       1
_space_group_crystal_system       triclinic
_cell_length_a                    15.181376
_cell_length_b                    13.84084
_cell_length_c                    9.0707
_cell_angle_alpha                 90.000831
_cell_angle_beta                  89.99802
_cell_angle_gamma                 89.999969
_cell_volume                      1905.96266025

loop_
_atom_site_label
_atom_site_type_symbol
_atom_type_description
_atom_site_fract_x
_atom_site_fract_y
_atom_site_fract_z
_atom_type_partial_charge
C1    C     C_R   0.329778 0.500000 0.500009 0.601996
C2    C     C_R   0.532808 0.892852 0.620623 -0.141503
C3    C     C_R   0.500000 0.499999 0.220491 0.553462
C4    C     C_R   0.500000 0.500000 0.779508 0.553463
C5    C     C_R   0.500000 0.054425 0.500000 0.022696
C6    C     C_R   0.500000 0.945572 0.500000 0.022687
C7    C     C_1   0.499999 0.499999 0.065519 -0.061412
C8    C     C_1   0.500000 0.500000 0.934481 -0.061412
C9    C     C_R   0.094249 0.575252 0.429140 0.260339
C10   C     C_R   0.905768 0.424669 0.429333 0.260324
C11   C     C_R   0.905765 0.575335 0.570638 0.260329
C12   C     C_R   0.670225 0.500000 0.499989 0.601922
C13   C     C_R   0.094243 0.424750 0.570848 0.260335
C14   C     C_R   0.186475 0.576389 0.432155 0.050329
C15   C     C_R   0.813542 0.423535 0.432339 0.050326
C16   C     C_R   0.813538 0.576468 0.567632 0.050331
C17   C     C_R   0.186469 0.423612 0.567846 0.050317
C18   C     C_R   0.232930 0.500001 0.500004 -0.009659
C19   C     C_R   0.767078 0.500000 0.499987 -0.009701
C20   C     C_R   0.048271 0.500001 0.499991 0.031190
C21   C     C_R   0.951742 0.500002 0.499986 0.031198
C22   C     C_3   0.024307 0.628029 0.221353 -0.127895
C23   C     C_R   0.466863 0.208939 0.617770 0.053283
C24   C     C_3   0.975729 0.371646 0.221700 -0.127875
C25   C     C_3   0.975717 0.628359 0.778272 -0.127874
C26   C     C_3   0.024284 0.371973 0.778626 -0.127895
C27   C     C_R   0.466725 0.791058 0.382342 0.053289
C28   C     C_R   0.533137 0.208937 0.382230 0.053298
C29   C     C_R   0.533275 0.791060 0.617657 0.053302
C30   C     C_R   0.467335 0.107148 0.620735 -0.141504
C31   C     C_R   0.467192 0.892849 0.379376 -0.141506
C32   C     C_R   0.532664 0.107145 0.379264 -0.141501
Cu1   Cu    Cu3+1 0.500000 0.596430 0.500000 0.969064
Cu2   Cu    Cu3+1 0.500000 0.403570 0.500000 0.969069
H1    H     H_    0.439657 0.247832 0.710515 0.134487
H2    H     H_    0.077643 0.591404 0.158081 0.076109
H3    H     H_    0.007811 0.695539 0.161550 0.143807
H4    H     H_    0.036003 0.416936 0.222960 0.106603
H5    H     H_    0.922399 0.408194 0.158318 0.076110
H6    H     H_    0.992232 0.304065 0.162085 0.143885
H7    H     H_    0.035998 0.583079 0.777011 0.106610
H8    H     H_    0.922388 0.591798 0.841649 0.076106
H9    H     H_    0.992205 0.695940 0.837895 0.143881
H10   H     H_    0.964009 0.417261 0.777245 0.106608
H11   H     H_    0.077615 0.408598 0.841905 0.076102
H12   H     H_    0.439414 0.752157 0.289693 0.134522
H13   H     H_    0.007784 0.304463 0.838427 0.143808
H14   H     H_    0.212708 0.719269 0.410901 0.267379
H15   H     H_    0.216599 0.655902 0.251064 0.229752
H16   H     H_    0.783437 0.343807 0.251455 0.229759
H17   H     H_    0.787319 0.280627 0.411463 0.267397
H18   H     H_    0.787300 0.719373 0.588471 0.267377
H19   H     H_    0.783442 0.656218 0.748502 0.229772
H20   H     H_    0.216576 0.344084 0.748930 0.229762
H21   H     H_    0.212702 0.280731 0.589080 0.267388
H22   H     H_    0.560343 0.247829 0.289485 0.134472
H23   H     H_    0.560586 0.752162 0.710307 0.134505
H24   H     H_    0.440825 0.069863 0.715849 0.096540
H25   H     H_    0.440569 0.930133 0.284354 0.096559
H26   H     H_    0.559175 0.069860 0.284150 0.096537
H27   H     H_    0.559431 0.930138 0.715645 0.096557
H28   H     H_    0.964032 0.582741 0.222727 0.106602
N1    N     N_R   0.500000 0.258690 0.500000 -0.219994
N2    N     N_R   0.500000 0.741310 0.500000 -0.220019
N3    N     N_3   0.233127 0.654352 0.362862 -0.595442
N4    N     N_3   0.766902 0.345487 0.363247 -0.595327
N5    N     N_3   0.766895 0.654518 0.636718 -0.595382
N6    N     N_3   0.233115 0.345644 0.637136 -0.595387
O1    O     O_R   0.371460 0.581430 0.500010 -0.471016
O2    O     O_3   0.950210 0.347444 0.366652 -0.516254
O3    O     O_3   0.950203 0.652561 0.633320 -0.516251
O4    O     O_3   0.049801 0.347600 0.633738 -0.516245
O5    O     O_R   0.628540 0.418570 0.499990 -0.470955
O6    O     O_R   0.628540 0.581430 0.499990 -0.470989
O7    O     O_R   0.371460 0.418570 0.500010 -0.470986
O8    O     O_R   0.500000 0.581420 0.288390 -0.510296
O9    O     O_R   0.500000 0.418580 0.711610 -0.510343
O10   O     O_R   0.500000 0.581420 0.711610 -0.510315
O11   O     O_R   0.500000 0.418580 0.288390 -0.510363
O12   O     O_3   0.049812 0.652403 0.366243 -0.516244

loop_
_geom_bond_atom_site_label_1
_geom_bond_atom_site_label_2
_ccdc_geom_bond_type
C12   O6    A    
C26   O4    S    
C14   C18   A    
C4    C8    S    
C3    O11   A    
C25   H9    S    
H21   N6    S    
C28   H22   S    
C24   O2    S    
C7    C8    T    
C15   C19   A    
C1    C18   S    
H15   N3    S    
C2    C29   A    
C3    C7    S    
C10   C15   A    
Cu1   N2    S    
Cu2   O9    S    
C5    C6    S    
C11   O3    S    
Cu1   O10   S    
H20   N6    S    
C24   H5    S    
C31   H25   S    
Cu1   O8    S    
C26   H11   S    
C24   H4    S    
C25   O3    S    
H14   N3    S    
C2    H27   S    
Cu1   O1    S    
Cu2   O7    S    
C5    C32   A    
C23   N1    A    
C6    C31   A    
C29   N2    A    
C12   O5    A    
C2    C6    A    
C17   C18   A    
C10   C21   A    
C26   H10   S    
C1    O7    A    
C23   C30   A    
C28   C32   A    
C25   H7    S    
C22   H3    S    
C27   C31   A    
C11   C21   A    
C1    O1    A    
C9    O12   S    
C9    C14   A    
C4    O10   A    
Cu2   O11   S    
C22   H28   S    
C11   C16   A    
C9    C20   A    
Cu1   Cu2   S    
C16   N5    S    
C3    O8    A    
H16   N4    S    
H18   N5    S    
C26   H13   S    
C10   O2    S    
C27   H12   S    
C29   H23   S    
C23   H1    S    
C32   H26   S    
C5    C30   A    
C17   N6    S    
C13   C20   A    
C25   H8    S    
C13   O4    S    
C22   H2    S    
C13   C17   A    
C22   O12   S    
C4    O9    A    
C15   N4    S    
C16   C19   A    
C30   H24   S    
C12   C19   S    
Cu2   N1    S    
C24   H6    S    
C14   N3    S    
H19   N5    S    
C27   N2    A    
Cu2   O5    S    
C28   N1    A    
Cu1   O6    S    
C20   C21   S    
H17   N4    S    
