data_mof_unit_57622.cif
_audit_creation_date              2012-12-10T16:57:07-0500
_audit_creation_method            fapswitch 2.2
_symmetry_space_group_name_H-M    P1
_symmetry_Int_Tables_number       1
_space_group_crystal_system       triclinic
_cell_length_a                    7.840886
_cell_length_b                    8.543145
_cell_length_c                    16.682607
_cell_angle_alpha                 92.906647
_cell_angle_beta                  79.383623
_cell_angle_gamma                 93.645948
_cell_volume                      1095.28019236

loop_
_atom_site_label
_atom_site_type_symbol
_atom_type_description
_atom_site_fract_x
_atom_site_fract_y
_atom_site_fract_z
_atom_type_partial_charge
C1    C     C_R   0.546569 0.793186 0.488943 0.900257
C2    C     C_R   0.531010 0.680469 0.237378 0.322825
C3    C     C_R   0.479433 0.395621 0.866766 0.438318
C4    C     C_R   0.561836 0.714904 0.154308 0.323925
C5    C     C_R   0.416837 0.531432 0.910163 -0.031307
C6    C     C_R   0.622487 0.597826 0.096200 0.038272
C7    C     C_R   0.364805 0.658141 0.871204 -0.154753
C8    C     C_R   0.664481 0.449816 0.118920 -0.130203
C9    C     C_R   0.384041 0.650412 0.785462 -0.143818
C10   C     C_R   0.624067 0.412637 0.201810 -0.216588
C11   C     C_2   0.436624 0.549976 0.995112 0.282495
C12   C     C_R   0.455842 0.205589 0.492759 0.980318
C13   C     C_2   0.589664 0.613488 0.013989 0.414590
C14   C     C_2   0.653108 0.255090 0.229552 0.490600
C15   C     C_2   0.329134 0.779001 0.740380 0.573465
C16   C     C_2   0.305325 0.800722 0.921256 0.596293
C17   C     C_2   0.734696 0.330587 0.055186 0.641545
C18   C     C_2   0.753089 0.003856 0.424692 0.536123
C19   C     C_2   0.252125 0.979355 0.466732 0.550200
C20   C     C_2   0.039186 0.402855 0.401273 0.761957
C21   C     C_2   0.959388 0.604850 0.596707 0.705465
C22   C     C_2   0.572373 0.951455 0.462639 -0.282653
C23   C     C_2   0.432649 0.041905 0.472302 -0.261003
C24   C     C_R   0.475695 0.505203 0.653896 0.969085
C25   C     C_R   0.525003 0.499105 0.345988 0.929021
C26   C     C_R   0.456904 0.516966 0.741725 -0.231987
C27   C     C_R   0.551172 0.527266 0.259653 -0.184594
C28   C     C_R   0.496011 0.386938 0.781412 0.328391
H1    H     H_    0.508380 0.160153 0.768721 0.372281
H2    H     H_    0.624077 0.221500 0.873328 0.365962
H3    H     H_    0.863196 0.950793 0.441001 0.125854
H4    H     H_    0.231822 0.887760 0.421404 0.106912
H5    H     H_    0.038016 0.469610 0.347784 0.001223
H6    H     H_    0.937324 0.534537 0.650397 0.041583
H7    H     H_    0.531094 0.897273 0.278548 0.352956
H8    H     H_    0.564645 0.205650 0.281066 0.061893
H9    H     H_    0.405824 0.812490 0.682156 0.036109
H10   H     H_    0.685764 0.697554 0.906290 0.333472
H11   H     H_    0.310840 0.523195 0.107327 0.320996
H12   H     H_    0.233380 0.788801 0.982977 0.101149
H13   H     H_    0.697136 0.207006 0.062384 0.127974
H14   H     H_    0.427789 0.902026 0.168549 0.345794
N1    N     N_2   0.953500 0.457650 0.478520 -0.178657
N2    N     N_2   0.046500 0.542350 0.521480 -0.193599
O1    O     O_R   0.388470 0.738640 0.505270 -0.631616
O2    O     O_3   0.482578 0.793348 0.298158 -0.811044
O3    O     O_2   0.778594 0.182133 0.197691 -0.513065
O4    O     O_2   0.193889 0.843233 0.765863 -0.488450
O5    O     O_3   0.723910 0.681613 0.958365 -0.678474
O6    O     O_3   0.302357 0.483723 0.051413 -0.692818
O7    O     O_2   0.343604 0.932355 0.896053 -0.510614
O8    O     O_2   0.836973 0.369644 0.994138 -0.494605
O9    O     O_3   0.519987 0.855553 0.127241 -0.740708
O10   O     O_3   0.530934 0.277834 0.909389 -0.702263
O11   O     O_2   0.779897 0.098744 0.370949 -0.545052
O12   O     O_R   0.611530 0.261360 0.494730 -0.589792
O13   O     O_2   0.126065 0.026742 0.513857 -0.511337
O14   O     O_2   0.106056 0.276681 0.393559 -0.573883
O15   O     O_2   0.916556 0.740316 0.602513 -0.557055
O16   O     O_R   0.679650 0.711510 0.491500 -0.624061
O17   O     O_R   0.320350 0.288490 0.508500 -0.556847
O18   O     O_R   0.337210 0.515200 0.623500 -0.647100
O19   O     O_R   0.662790 0.484800 0.376500 -0.642114
O20   O     O_R   0.628380 0.488060 0.609730 -0.606220
O21   O     O_R   0.371620 0.511940 0.390270 -0.625714
O22   O     O_3   0.545531 0.252882 0.735200 -0.745577
Zn1   Zn    Zn3+2 0.305580 0.518120 0.509190 1.006767
Zn2   Zn    Zn3+2 0.694420 0.481880 0.490810 1.013500

loop_
_geom_bond_atom_site_label_1
_geom_bond_atom_site_label_2
_ccdc_geom_bond_type
C10   C27   A    
O1    Zn1   S    
C2    C4    A    
N1    N2    D    
C21   O15   D    
C2    C27   A    
C21   H6    S    
C18   C22   S    
C4    O9    S    
C25   C27   S    
C21   N2    S    
C11   C13   D    
O17   Zn1   S    
C28   O22   S    
C8    C17   S    
C16   O7    D    
C20   N1    S    
C6    C8    A    
C9    C15   S    
C1    C22   S    
C24   O20   A    
H10   O5    S    
C12   O12   A    
C2    O2    S    
C6    C13   S    
C12   O17   A    
H2    O10   S    
C12   C23   S    
C1    O1    A    
C14   O3    D    
C18   O11   D    
C16   H12   S    
C13   O5    S    
C19   H4    S    
O20   Zn2   S    
C17   O8    D    
C8    C10   A    
C7    C16   S    
C24   C26   S    
C9    C26   A    
C5    C11   S    
C15   O4    D    
C5    C7    A    
C22   C23   D    
H14   O9    S    
C14   H8    S    
C3    O10   S    
C17   H13   S    
O18   Zn1   S    
C20   H5    S    
C20   O14   D    
H1    O22   S    
C7    C9    A    
C19   C23   S    
H11   O6    S    
C25   O21   A    
O16   Zn2   S    
C15   H9    S    
C4    C6    A    
C25   O19   A    
C1    O16   A    
C11   O6    S    
O19   Zn2   S    
C3    C28   A    
N2    Zn1   S    
C24   O18   A    
C18   H3    S    
C3    C5    A    
O12   Zn2   S    
H7    O2    S    
C26   C28   A    
C19   O13   D    
C10   C14   S    
N1    Zn2   S    
O21   Zn1   S    
