data_mof_unit_6231.cif
_audit_creation_date              2012-12-10T19:09:05-0500
_audit_creation_method            fapswitch 2.2
_symmetry_space_group_name_H-M    P1
_symmetry_Int_Tables_number       1
_space_group_crystal_system       triclinic
_cell_length_a                    17.717293
_cell_length_b                    10.836876
_cell_length_c                    9.528907
_cell_angle_alpha                 89.601813
_cell_angle_beta                  89.653851
_cell_angle_gamma                 89.7586
_cell_volume                      1829.45768027

loop_
_atom_site_label
_atom_site_type_symbol
_atom_type_description
_atom_site_fract_x
_atom_site_fract_y
_atom_site_fract_z
_atom_type_partial_charge
C1    C     C_R   0.504642 0.262937 0.500511 0.825878
C2    C     C_R   0.885495 0.504697 0.495329 0.048212
C3    C     C_1   0.966481 0.504909 0.495064 -0.058371
C4    C     C_1   0.034124 0.502949 0.496820 -0.025958
C5    C     C_R   0.153280 0.409036 0.583103 0.212155
C6    C     C_R   0.233305 0.407631 0.581520 0.105268
C7    C     C_R   0.272853 0.498221 0.501896 -0.155863
C8    C     C_R   0.233556 0.587151 0.421025 0.223985
C9    C     C_R   0.154479 0.584689 0.421051 -0.235962
C10   C     C_R   0.114923 0.498145 0.501166 0.035847
C11   C     C_R   0.470648 0.063918 0.600599 -0.047356
C12   C     C_R   0.355807 0.499010 0.500550 0.812675
C13   C     C_R   0.511471 0.130006 0.500645 -0.156408
C14   C     C_R   0.551817 0.066615 0.393706 0.169729
C15   C     C_R   0.545131 0.936368 0.383967 0.135203
C16   C     C_R   0.507301 0.871114 0.494300 -0.123001
C17   C     C_R   0.471195 0.937309 0.599966 -0.031762
C18   C     C_3   0.473571 0.928048 0.757220 0.052834
C19   C     C_3   0.474106 0.069365 0.758027 0.077880
C20   C     C_R   0.545729 0.422410 0.073776 0.262485
C21   C     C_R   0.450600 0.572946 0.074476 -0.086992
C22   C     C_R   0.450594 0.572891 0.925443 -0.068155
C23   C     C_R   0.503188 0.737520 0.498853 0.828390
C24   C     C_R   0.545563 0.422233 0.926102 0.262925
C25   C     C_3   0.629486 0.418467 0.918482 -0.497878
C26   C     C_3   0.629914 0.419745 0.076905 -0.534851
C27   C     C_R   0.644414 0.500467 0.499580 0.797928
C28   C     C_R   0.845718 0.549821 0.613263 0.181102
C29   C     C_R   0.766749 0.548723 0.613188 -0.198695
C30   C     C_R   0.727251 0.502070 0.498477 -0.131301
C31   C     C_R   0.767152 0.457000 0.382372 -0.224747
C32   C     C_R   0.845997 0.458780 0.378543 0.258401
Cu1   Cu    Cu3+1 0.500000 0.499980 0.640670 0.949169
Cu2   Cu    Cu3+1 0.500000 0.500020 0.359330 0.935060
H1    H     H_    0.421086 0.885685 0.800144 0.104970
H2    H     H_    0.526181 0.115000 0.795818 0.159483
H3    H     H_    0.411742 0.632404 0.130455 0.156352
H4    H     H_    0.411738 0.632307 0.869361 0.134386
H5    H     H_    0.650904 0.330676 0.873207 0.192031
H6    H     H_    0.653995 0.503799 0.872558 0.216717
H7    H     H_    0.652749 0.333016 0.122384 0.196363
H8    H     H_    0.736034 0.585675 0.702061 0.147015
H9    H     H_    0.654301 0.506010 0.119503 0.217922
H10   H     H_    0.737112 0.417309 0.295529 0.160730
H11   H     H_    0.122544 0.651741 0.360866 0.160449
N1    N     N_R   0.500470 0.500930 0.147930 -0.182376
N2    N     N_R   0.500480 0.500890 0.852020 -0.176798
O1    O     O_R   0.500000 0.319640 0.618810 -0.570264
O2    O     O_R   0.500010 0.319680 0.381230 -0.572122
O3    O     O_R   0.391250 0.499990 0.618840 -0.580866
O4    O     O_R   0.391260 0.500020 0.381250 -0.561609
O5    O     O_R   0.499990 0.680320 0.618770 -0.554667
O6    O     O_R   0.500000 0.680360 0.381190 -0.592233
O7    O     O_R   0.608740 0.499980 0.618750 -0.583991
O8    O     O_R   0.608750 0.500010 0.381160 -0.590267
C33   C     C_3   0.886670 0.598963 0.739299 -0.874766
H12   H     H_    0.921888 0.679059 0.707568 0.238638
H13   H     H_    0.846899 0.629562 0.822794 0.224139
H14   H     H_    0.923554 0.525748 0.784095 0.234287
C34   C     C_3   0.581094 0.867328 0.261872 -0.819775
H15   H     H_    0.621706 0.797298 0.301875 0.231990
H16   H     H_    0.536567 0.822212 0.199222 0.237214
H17   H     H_    0.611834 0.926182 0.185750 0.223401
N3    N     N_2   0.541407 0.868954 0.813248 -0.391849
H18   H     H_    0.535880 0.842456 0.916922 0.246226
C35   C     C_3   0.615848 0.916434 0.779459 -0.673806
H19   H     H_    0.658352 0.842599 0.797737 0.223851
H20   H     H_    0.629542 0.995156 0.848636 0.198898
H21   H     H_    0.620212 0.945845 0.668125 0.236426
N4    N     N_2   0.405749 0.122112 0.817643 -0.419719
H22   H     H_    0.356043 0.086049 0.779977 0.250822
C36   C     C_3   0.406395 0.134927 0.968543 -0.687242
H23   H     H_    0.354745 0.184809 0.003093 0.230665
H24   H     H_    0.456297 0.188908 0.001714 0.229001
H25   H     H_    0.407719 0.042550 0.019875 0.216075
N5    N     N_2   0.884330 0.409896 0.258867 -0.430557
H26   H     H_    0.939148 0.381115 0.274742 0.257985
C37   C     C_3   0.875252 0.480689 0.130685 -0.696450
H27   H     H_    0.904833 0.433114 0.043254 0.229083
H28   H     H_    0.899928 0.574087 0.142912 0.226449
H29   H     H_    0.814686 0.489293 0.102716 0.234804
C38   C     C_3   0.109736 0.316879 0.672485 -0.871392
H30   H     H_    0.119204 0.222195 0.632094 0.229273
H31   H     H_    0.128727 0.322220 0.783120 0.234196
H32   H     H_    0.047977 0.333079 0.673847 0.234142
C39   C     C_3   0.277518 0.309474 0.661197 -0.805977
H33   H     H_    0.242688 0.232651 0.702020 0.221771
H34   H     H_    0.320364 0.266898 0.590827 0.223411
H35   H     H_    0.306204 0.351682 0.752155 0.258588
N6    N     N_2   0.274960 0.679146 0.343954 -0.412548
H36   H     H_    0.318747 0.719424 0.397590 0.239290
C40   C     C_3   0.236768 0.760963 0.246651 -0.711913
H37   H     H_    0.279276 0.815945 0.187533 0.219468
H38   H     H_    0.199195 0.825528 0.304525 0.223584
H39   H     H_    0.203963 0.706846 0.169661 0.236853
C41   C     C_3   0.607630 0.134807 0.300485 -0.858628
H40   H     H_    0.584884 0.143206 0.192493 0.230480
H41   H     H_    0.621876 0.227490 0.340452 0.228327
H42   H     H_    0.662555 0.085145 0.298559 0.226233

loop_
_geom_bond_atom_site_label_1
_geom_bond_atom_site_label_2
_ccdc_geom_bond_type
C35   H20   S    
C9    H11   S    
C29   H8    S    
C2    C28   A    
C15   C34   S    
C28   C33   S    
C27   O7    A    
C7    C8    A    
Cu1   O5    S    
C11   C19   S    
Cu2   O4    S    
C34   H17   S    
C2    C32   A    
C28   C29   A    
N5    C37   S    
C19   H2    S    
C25   H6    S    
C30   C31   A    
C39   H34   S    
C35   H21   S    
C15   C16   A    
C22   H4    S    
C41   H42   S    
C33   H12   S    
C34   H16   S    
C18   C19   S    
C20   C24   A    
C33   H13   S    
C8    C9    A    
C41   H41   S    
N4    H22   S    
Cu2   N1    S    
C18   H1    S    
C22   N2    A    
Cu2   O8    S    
C21   C22   A    
C27   C30   S    
C36   H25   S    
C14   C41   S    
C26   H9    S    
C23   O6    A    
C7    C12   S    
C31   H10   S    
C24   C25   S    
C36   H24   S    
C39   H33   S    
C16   C17   A    
Cu1   O3    S    
C40   H39   S    
C34   H15   S    
N3    C35   S    
C23   O5    A    
C29   C30   A    
N6    C40   S    
C31   C32   A    
C41   H40   S    
C40   H38   S    
C17   C18   S    
C37   H28   S    
C21   H3    S    
N5    H26   S    
C16   C23   S    
C38   H31   S    
Cu1   N2    S    
C8    N6    S    
C4    C10   S    
C3    C4    T    
C12   O4    A    
C21   N1    A    
C9    C10   A    
Cu1   O7    S    
C11   C17   A    
Cu2   O2    S    
C37   H27   S    
C24   N2    A    
C36   H23   S    
C39   H35   S    
C32   N5    S    
C12   O3    A    
C1    O1    A    
C6    C7    A    
C38   H32   S    
C6    C39   S    
C33   H14   S    
N3    H18   S    
C2    C3    S    
C25   C26   S    
C5    C10   A    
C25   H5    S    
C5    C38   S    
C11   C13   A    
C37   H29   S    
C18   N3    S    
N6    H36   S    
C5    C6    A    
C20   C26   S    
C40   H37   S    
Cu1   Cu2   S    
C35   H19   S    
C27   O8    A    
C1    C13   S    
Cu2   O6    S    
C38   H30   S    
Cu1   O1    S    
C14   C15   A    
C19   N4    S    
N4    C36   S    
C13   C14   A    
C1    O2    A    
C20   N1    A    
C26   H7    S    
