data_mof_unit_57560.cif
_audit_creation_date              2012-12-10T17:19:25-0500
_audit_creation_method            fapswitch 2.2
_symmetry_space_group_name_H-M    P1
_symmetry_Int_Tables_number       1
_space_group_crystal_system       triclinic
_cell_length_a                    15.004926
_cell_length_b                    10.853303
_cell_length_c                    9.624669
_cell_angle_alpha                 90.2096
_cell_angle_beta                  89.752979
_cell_angle_gamma                 93.272741
_cell_volume                      1564.82632057

loop_
_atom_site_label
_atom_site_type_symbol
_atom_type_description
_atom_site_fract_x
_atom_site_fract_y
_atom_site_fract_z
_atom_type_partial_charge
C1    C     C_R   0.507364 0.263408 0.500308 0.801995
C2    C     C_R   0.912720 0.626448 0.492122 0.036896
C3    C     C_R   0.942422 0.285301 0.506044 -0.165414
C4    C     C_R   0.034924 0.282383 0.508901 -0.185506
C5    C     C_R   0.087938 0.392473 0.504796 0.111127
C6    C     C_R   0.047557 0.507091 0.497872 0.071163
C7    C     C_R   0.101287 0.617450 0.492013 0.108295
C8    C     C_R   0.062128 0.730061 0.481673 -0.253234
C9    C     C_R   0.969474 0.736294 0.478992 -0.022116
C10   C     C_R   0.180892 0.390068 0.506795 -0.216754
C11   C     C_R   0.233172 0.500455 0.500800 -0.041950
C12   C     C_R   0.329204 0.498284 0.500270 0.819203
C13   C     C_R   0.194034 0.613576 0.493259 -0.226540
C14   C     C_R   0.559969 0.122819 0.752142 -0.119662
C15   C     C_R   0.549189 0.064765 0.880425 -0.113654
C16   C     C_R   0.503826 0.949929 0.888320 -0.126097
C17   C     C_R   0.478115 0.887536 0.766771 -0.155124
C18   C     C_R   0.498063 0.939516 0.634291 0.101814
C19   C     C_R   0.525587 0.065615 0.629419 0.114844
C20   C     C_R   0.516112 0.129742 0.502605 -0.118752
C21   C     C_R   0.502549 0.063487 0.378735 -0.180722
C22   C     C_R   0.494694 0.936047 0.380281 -0.174626
C23   C     C_R   0.494991 0.737391 0.501417 0.803092
C24   C     C_R   0.491932 0.872225 0.506622 -0.104075
C25   C     C_R   0.616072 0.670213 0.142817 -0.172487
C26   C     C_R   0.668712 0.757526 0.068974 0.152227
C27   C     C_R   0.669722 0.754294 0.926064 -0.205319
C28   C     C_R   0.616345 0.666893 0.855758 -0.159996
C29   C     C_R   0.557435 0.582121 0.925214 0.145763
C30   C     C_R   0.557381 0.582769 0.074496 0.159632
C31   C     C_R   0.445386 0.421771 0.075199 -0.078021
C32   C     C_R   0.444604 0.421603 0.928119 0.239011
C33   C     C_R   0.670998 0.503642 0.499764 0.823755
C34   C     C_R   0.817689 0.624635 0.501381 0.073428
C35   C     C_R   0.767907 0.510202 0.499044 -0.077516
C36   C     C_R   0.809451 0.399120 0.497692 -0.251679
C37   C     C_R   0.901725 0.398236 0.500197 0.112116
C38   C     C_R   0.953838 0.510959 0.496608 0.019270
Cu1   Cu    Cu3+1 0.499990 0.499990 0.640660 0.960157
Cu2   Cu    Cu3+1 0.500010 0.500010 0.359340 0.951470
H1    H     H_    0.596424 0.211603 0.750394 0.159580
H2    H     H_    0.573391 0.110707 0.974099 0.150560
H3    H     H_    0.490407 0.907661 0.988541 0.139750
H4    H     H_    0.439982 0.801065 0.779744 0.169470
H5    H     H_    0.489110 0.887597 0.281788 0.164930
H6    H     H_    0.400657 0.358048 0.131650 0.159798
H7    H     H_    0.623571 0.675270 0.252406 0.226275
H8    H     H_    0.711492 0.821052 0.868598 0.203011
H9    H     H_    0.622344 0.671238 0.746740 0.235399
H10   H     H_    0.769188 0.312727 0.497875 0.143275
H11   H     H_    0.902417 0.199063 0.509324 0.181315
H12   H     H_    0.064987 0.194055 0.513939 0.157455
H13   H     H_    0.212701 0.302916 0.512067 0.142747
H14   H     H_    0.236044 0.698234 0.487935 0.125665
H15   H     H_    0.104518 0.814221 0.472527 0.147650
H16   H     H_    0.497775 0.110055 0.279877 0.166037
N1    N     N_R   0.500860 0.501210 0.147910 -0.207610
N2    N     N_R   0.500890 0.501290 0.852040 -0.217796
O1    O     O_R   0.499990 0.319640 0.618810 -0.565784
O2    O     O_R   0.500000 0.319660 0.381240 -0.583990
O3    O     O_R   0.370250 0.499960 0.618800 -0.547371
O4    O     O_R   0.370260 0.499980 0.381230 -0.577815
O5    O     O_R   0.500000 0.680340 0.618760 -0.614245
O6    O     O_R   0.500010 0.680360 0.381190 -0.597847
O7    O     O_R   0.629740 0.500020 0.618770 -0.595423
O8    O     O_R   0.629750 0.500040 0.381200 -0.582725
I1    I     I_    0.743489 0.784794 0.540832 -0.404433
I2    I     I_    0.745311 0.899747 0.169303 -0.349572
I3    I     I_    0.349995 0.292608 0.838230 -0.366818
C39   C     C_1   0.939115 0.857209 0.450111 0.333816
N3    N     N_1   0.916968 0.955312 0.426179 -0.251316

loop_
_geom_bond_atom_site_label_1
_geom_bond_atom_site_label_2
_ccdc_geom_bond_type
C27   H8    S    
C34   I1    S    
C21   H16   S    
C23   C24   S    
C6    C38   A    
C29   C30   A    
Cu2   O2    S    
C12   O4    A    
Cu1   O5    S    
C28   H9    S    
C2    C38   A    
C15   H2    S    
C19   C20   A    
Cu2   O6    S    
C32   N2    A    
C11   C12   S    
Cu1   O1    S    
C31   N1    A    
C23   O5    A    
C17   C18   A    
C17   H4    S    
C26   I2    S    
C5    C10   A    
Cu2   O8    S    
C21   C22   A    
C29   N2    A    
C12   O3    A    
C11   C13   A    
C16   H3    S    
C2    C34   A    
C26   C27   A    
C32   I3    S    
C35   C36   A    
C4    H12   S    
C14   H1    S    
C18   C24   A    
C8    H15   S    
C28   C29   A    
C33   C35   S    
C37   C38   A    
C33   O8    A    
C13   H14   S    
C6    C7    A    
C1    O1    A    
C5    C6    A    
Cu1   O3    S    
C16   C17   A    
C22   C24   A    
Cu1   O7    S    
C7    C8    A    
C10   C11   A    
C33   O7    A    
C15   C16   A    
Cu1   Cu2   S    
C30   N1    A    
C23   O6    A    
C7    C13   A    
C39   N3    T    
Cu2   O4    S    
C20   C21   A    
C3    C37   A    
C36   C37   A    
C34   C35   A    
C1    O2    A    
C25   C30   A    
C10   H13   S    
C18   C19   A    
C25   H7    S    
C14   C15   A    
C4    C5    A    
C1    C20   S    
C3    H11   S    
C22   H5    S    
C25   C26   A    
C2    C9    A    
Cu1   N2    S    
Cu2   N1    S    
C14   C19   A    
C9    C39   S    
C31   C32   A    
C3    C4    A    
C36   H10   S    
C8    C9    A    
C27   C28   A    
C31   H6    S    
