data_mof_unit_21251.cif
_audit_creation_date              2012-12-11T15:21:12-0500
_audit_creation_method            fapswitch 2.2
_symmetry_space_group_name_H-M    P1
_symmetry_Int_Tables_number       1
_space_group_crystal_system       triclinic
_cell_length_a                    18.31158
_cell_length_b                    18.355068
_cell_length_c                    51.02261
_cell_angle_alpha                 89.975331
_cell_angle_beta                  89.887032
_cell_angle_gamma                 119.945435
_cell_volume                      14859.7746298

loop_
_atom_site_label
_atom_site_type_symbol
_atom_type_description
_atom_site_fract_x
_atom_site_fract_y
_atom_site_fract_z
_atom_type_partial_charge
C1    C     C_R   0.407780 0.584997 0.288007 0.543033
C2    C     C_R   0.500316 0.396456 0.856672 0.233373
C3    C     C_R   0.377066 0.931866 0.097540 0.432665
C4    C     C_R   0.490776 0.044123 0.397786 0.429841
C5    C     C_R   0.492917 0.069485 0.106581 0.434850
C6    C     C_R   0.502938 0.938272 0.352568 -0.023568
C7    C     C_R   0.504008 0.946603 0.148108 -0.022432
C8    C     C_R   0.501373 0.904455 0.327886 0.207395
C9    C     C_R   0.500354 0.905363 0.171636 0.214525
C10   C     C_R   0.361641 0.885616 0.320821 -0.172996
C11   C     C_R   0.367394 0.898595 0.181827 -0.168610
C12   C     C_R   0.364428 0.920111 0.345335 -0.066784
C13   C     C_R   0.533936 0.490036 0.639841 0.236656
C14   C     C_R   0.371792 0.939528 0.158345 -0.062087
C15   C     C_R   0.433839 0.944012 0.361679 0.193749
C16   C     C_R   0.438993 0.961906 0.141051 0.196304
C17   C     C_R   0.438540 0.000845 0.442255 -0.089171
C18   C     C_R   0.442439 0.032349 0.061750 -0.091219
C19   C     C_R   0.373341 0.923702 0.432314 0.040267
C20   C     C_R   0.378811 0.952780 0.070837 0.036712
C21   C     C_R   0.312757 0.864966 0.449738 0.264181
C22   C     C_R   0.318947 0.896400 0.052889 0.271156
C23   C     C_R   0.159531 0.562633 0.412936 0.441097
C24   C     C_R   0.577255 0.437647 0.871167 0.189567
C25   C     C_R   0.110312 0.554821 0.091765 0.413258
C26   C     C_R   0.495527 0.062219 0.424737 -0.009860
C27   C     C_R   0.496441 0.092230 0.079963 -0.014564
C28   C     C_R   0.428402 0.874371 0.311997 0.015696
C29   C     C_R   0.429932 0.878465 0.188616 0.016855
C30   C     C_R   0.558847 0.131710 0.686921 -0.030119
C31   C     C_R   0.567274 0.147037 0.815542 -0.018243
C32   C     C_R   0.395352 0.970114 0.514562 -0.020368
C33   C     C_R   0.422116 0.997563 0.989564 -0.027904
C34   C     C_R   0.528986 0.101392 0.507117 0.036235
C35   C     C_R   0.550495 0.606574 0.492327 0.019870
C36   C     C_R   0.522370 0.147676 0.997240 0.023359
C37   C     C_R   0.468175 0.040795 0.524531 0.019925
C38   C     C_R   0.481196 0.077751 0.979793 -0.000396
C39   C     C_R   0.332922 0.915740 0.532452 -0.114192
C40   C     C_R   0.387144 0.928575 0.972273 -0.116537
C41   C     C_R   0.344678 0.924778 0.559405 0.244959
C42   C     C_R   0.404715 0.937683 0.945630 0.243305
C43   C     C_R   0.420397 0.991029 0.569739 0.019807
C44   C     C_R   0.459498 0.018134 0.935000 0.011422
C45   C     C_R   0.481217 0.050153 0.552158 -0.072713
C46   C     C_R   0.621127 0.500333 0.023764 0.027059
C47   C     C_R   0.498118 0.088061 0.952243 -0.090752
C48   C     C_R   0.109817 0.594589 0.357902 -0.055247
C49   C     C_R   0.066358 0.575764 0.148178 -0.050953
C50   C     C_R   0.555883 0.118354 0.562098 0.024277
C51   C     C_R   0.553069 0.168584 0.941969 0.013818
C52   C     C_R   0.568831 0.128113 0.589216 0.389274
C53   C     C_R   0.569169 0.179105 0.914847 0.417028
C54   C     C_R   0.437601 0.001138 0.596944 0.487750
C55   C     C_R   0.476770 0.031535 0.907791 0.469619
C56   C     C_R   0.466933 0.100052 0.648899 0.330581
C57   C     C_R   0.470362 0.562091 0.480179 0.040192
C58   C     C_R   0.588699 0.090766 0.856467 0.340150
C59   C     C_R   0.482874 0.119919 0.675605 0.215963
C60   C     C_R   0.597492 0.099966 0.828996 0.219892
C61   C     C_R   0.611304 0.112082 0.671960 -0.178582
C62   C     C_R   0.521813 0.177272 0.829749 -0.193435
C63   C     C_R   0.592645 0.087697 0.645907 -0.100774
C64   C     C_R   0.509978 0.164810 0.856648 -0.114919
C65   C     C_R   0.522250 0.084171 0.634003 0.188998
C66   C     C_R   0.544351 0.123152 0.870282 0.193906
C67   C     C_R   0.387391 0.955200 0.487132 -0.019106
C68   C     C_R   0.539679 0.455372 0.035332 0.054988
C69   C     C_R   0.401848 0.986898 0.016532 -0.023567
C70   C     C_R   0.446699 0.016717 0.469689 -0.014471
C71   C     C_R   0.452215 0.051487 0.034439 -0.021713
C72   C     C_R   0.125905 0.614469 0.331260 -0.130705
C73   C     C_R   0.096618 0.600373 0.173622 -0.125830
C74   C     C_R   0.514533 0.093370 0.479492 0.036838
C75   C     C_R   0.512573 0.133582 0.025239 0.027204
C76   C     C_R   0.322358 0.879436 0.476593 -0.134082
C77   C     C_R   0.331995 0.912715 0.026186 -0.127811
C78   C     C_R   0.554911 0.141247 0.434264 -0.089973
C79   C     C_R   0.396407 0.516081 0.495539 0.019918
C80   C     C_R   0.552773 0.173520 0.071325 -0.088236
C81   C     C_R   0.604760 0.165291 0.517973 -0.115274
C82   C     C_R   0.572900 0.227758 0.985633 -0.115495
C83   C     C_R   0.617000 0.174955 0.544772 -0.135058
C84   C     C_R   0.589183 0.237511 0.958877 -0.141250
C85   C     C_R   0.565229 0.158622 0.461258 0.240087
C86   C     C_R   0.562023 0.195550 0.044630 0.242581
C87   C     C_R   0.531206 0.599050 0.409448 0.433988
C88   C     C_R   0.583085 0.547040 0.103005 0.437912
C89   C     C_R   0.380127 0.525720 0.412625 0.476636
C90   C     C_R   0.469940 0.394831 0.020566 0.034029
C91   C     C_R   0.434542 0.451722 0.098748 0.467044
C92   C     C_R   0.410041 0.492136 0.353988 0.290285
C93   C     C_R   0.455504 0.468418 0.159639 0.295382
C94   C     C_R   0.400969 0.498367 0.326946 -0.104618
C95   C     C_R   0.431943 0.487382 0.183664 -0.099787
C96   C     C_R   0.133468 0.487739 0.324467 -0.134672
C97   C     C_R   0.123343 0.483892 0.176625 -0.134952
C98   C     C_R   0.473731 0.650201 0.330438 -0.140650
C99   C     C_R   0.481779 0.630204 0.169102 -0.137398
C100  C     C_R   0.480916 0.644180 0.357378 -0.088186
C101  C     C_R   0.623027 0.645778 0.476241 -0.143603
C102  C     C_R   0.503413 0.610929 0.144811 -0.092858
C103  C     C_R   0.447971 0.565441 0.369491 0.242664
C104  C     C_R   0.488858 0.529570 0.139642 0.239553
C105  C     C_R   0.464312 0.562783 0.452400 -0.032458
C106  C     C_R   0.527537 0.472036 0.061831 -0.028492
C107  C     C_R   0.537910 0.601999 0.436903 0.030786
C108  C     C_R   0.596350 0.530308 0.076967 0.031683
C109  C     C_R   0.616751 0.642814 0.449112 -0.107224
C110  C     C_R   0.676805 0.571292 0.065714 -0.108515
C111  C     C_R   0.384814 0.523806 0.440156 0.030753
C112  C     C_R   0.409160 0.584090 0.212455 0.542354
C113  C     C_R   0.688952 0.557334 0.039695 -0.153709
C114  C     C_R   0.446286 0.431553 0.073030 0.031927
C115  C     C_R   0.431611 0.577402 0.315034 -0.033561
C116  C     C_R   0.443671 0.567875 0.188431 -0.032415
C117  C     C_R   0.569650 0.441273 0.688155 -0.059800
C118  C     C_R   0.578071 0.430385 0.815574 -0.079849
C119  C     C_R   0.556026 0.607731 0.520058 0.026987
C120  C     C_R   0.631552 0.488602 0.996656 0.027975
C121  C     C_R   0.118220 0.468502 0.351041 -0.036762
C122  C     C_R   0.093538 0.459741 0.151165 -0.050365
C123  C     C_R   0.404116 0.506180 0.522907 -0.025590
C124  C     C_R   0.311918 0.484613 0.455682 -0.102096
C125  C     C_R   0.482016 0.378591 0.994093 -0.018937
C126  C     C_R   0.483911 0.552903 0.535093 0.022042
C127  C     C_R   0.561051 0.429484 0.981831 0.016180
C128  C     C_R   0.631885 0.661045 0.533314 -0.140548
C129  C     C_R   0.710066 0.534415 0.983611 -0.147453
C130  C     C_R   0.638930 0.654289 0.560150 -0.102752
C131  C     C_R   0.717822 0.525337 0.956858 -0.119052
C132  C     C_R   0.571037 0.593233 0.574711 0.026090
C133  C     C_R   0.647606 0.470970 0.941905 0.007090
C134  C     C_R   0.492599 0.543070 0.562373 -0.081226
C135  C     C_R   0.378034 0.373077 0.058146 -0.102439
C136  C     C_R   0.569672 0.421147 0.954427 -0.094844
C137  C     C_R   0.423776 0.481939 0.577111 0.028360
C138  C     C_R   0.502525 0.358743 0.939722 0.038484
C139  C     C_R   0.437933 0.465999 0.603242 0.457453
C140  C     C_R   0.513597 0.355219 0.912354 0.517321
C141  C     C_R   0.580780 0.579969 0.601241 0.480962
C142  C     C_R   0.653703 0.464265 0.914586 0.457209
C143  C     C_R   0.592391 0.461273 0.641250 0.265509
C144  C     C_R   0.648599 0.497670 0.856314 0.274419
C145  C     C_3   0.172719 0.798484 0.440806 0.012964
C146  C     C_R   0.335221 0.448736 0.538350 -0.131247
C147  C     C_3   0.097146 0.715544 0.432533 -0.343742
C148  C     C_3   0.181613 0.838745 0.064464 0.006957
C149  C     C_3   0.104909 0.759980 0.074863 -0.343865
C150  C     C_3   0.417742 0.173795 0.626607 -0.008505
C151  C     C_3   0.339791 0.169630 0.614646 -0.316973
C152  C     C_3   0.701735 0.105402 0.879028 0.011385
C153  C     C_3   0.735757 0.059190 0.895109 -0.352101
C154  C     C_3   0.695296 0.281706 0.458781 -0.021961
C155  C     C_3   0.752336 0.360498 0.474492 -0.341003
C156  C     C_3   0.698645 0.306889 0.045177 -0.005921
C157  C     C_R   0.417574 0.312665 0.979377 -0.130886
C158  C     C_3   0.755987 0.388759 0.030860 -0.341256
C159  C     C_3   0.590276 0.375933 0.608808 -0.019950
C160  C     C_3   0.629295 0.373797 0.582692 -0.328244
C161  C     C_3   0.689870 0.625578 0.874358 0.006509
C162  C     C_3   0.763140 0.701554 0.887219 -0.346890
C163  C     C_3   0.996148 0.355770 0.709937 -0.013888
C164  C     C_3   0.993111 0.309874 0.735064 -0.347528
C165  C     C_3   0.859053 0.237618 0.810607 0.004201
C166  C     C_3   0.854492 0.181139 0.788122 -0.320763
C167  C     C_3   0.219693 0.408185 0.584100 0.013212
C168  C     C_R   0.081465 0.473775 0.449997 -0.045598
C169  C     C_3   0.148839 0.346647 0.601875 -0.328617
C170  C     C_3   0.337408 0.157419 0.949997 -0.007193
C171  C     C_3   0.309311 0.092007 0.928353 -0.318642
C172  C     C_3   0.810226 0.170925 0.517208 -0.037884
C173  C     C_3   0.761969 0.109665 0.495152 -0.379122
C174  C     C_3   0.748874 0.172905 0.984995 -0.028427
C175  C     C_3   0.705931 0.110820 0.007335 -0.374685
C176  C     C_R   0.033693 0.467787 0.054481 -0.033089
C177  C     C_R   0.343886 0.437020 0.565045 0.267671
C178  C     C_R   0.427950 0.300614 0.952761 0.287049
C179  C     C_R   0.317440 0.480379 0.482798 -0.139852
C180  C     C_R   0.108136 0.522626 0.368074 0.234526
C181  C     C_R   0.389453 0.354851 0.032561 -0.136367
C182  C     C_R   0.590509 0.174877 0.712396 0.570090
C183  C     C_R   0.591941 0.177133 0.788149 0.579273
C184  C     C_R   0.825248 0.415818 0.712436 0.557575
C185  C     C_R   0.824747 0.415634 0.787572 0.561747
C186  C     C_R   0.583973 0.409091 0.712649 0.540845
C187  C     C_R   0.585133 0.407395 0.788211 0.539601
C188  C     C_R   0.024184 0.413950 0.432256 0.031982
C189  C     C_R   0.979677 0.403907 0.071926 0.028700
C190  C     C_R   0.960675 0.336971 0.441861 -0.133103
C191  C     C_R   0.067590 0.507171 0.136488 0.236167
C192  C     C_R   0.918091 0.326738 0.061742 -0.141499
C193  C     C_R   0.150956 0.547635 0.440163 0.012839
C194  C     C_R   0.100347 0.543137 0.064561 0.019128
C195  C     C_R   0.140220 0.562334 0.314389 0.006117
C196  C     C_R   0.128298 0.556424 0.187743 0.008176
C197  C     C_R   0.874438 0.429387 0.688042 0.016475
C198  C     C_R   0.867673 0.427310 0.812933 0.023741
C199  C     C_R   0.977034 0.377447 0.514562 0.024080
C200  C     C_R   0.932432 0.375600 0.989507 0.023434
C201  C     C_R   0.113357 0.507848 0.522609 0.013709
C202  C     C_R   0.611507 0.439293 0.665469 -0.139041
C203  C     C_R   0.068383 0.506941 0.982306 0.017284
C204  C     C_R   0.035790 0.440166 0.532072 -0.011692
C205  C     C_R   0.992715 0.438576 0.972341 -0.009231
C206  C     C_R   0.176636 0.591612 0.287965 0.545950
C207  C     C_R   0.174984 0.590734 0.212443 0.547860
C208  C     C_R   0.898840 0.312157 0.525233 0.233825
C209  C     C_R   0.854107 0.311933 0.978616 0.235761
C210  C     C_R   0.880777 0.313387 0.551888 -0.107543
C211  C     C_R   0.838773 0.313771 0.951681 -0.109608
C212  C     C_R   0.937982 0.374293 0.568932 -0.018685
C213  C     C_R   0.649810 0.489580 0.829052 -0.134482
C214  C     C_R   0.899551 0.372699 0.934795 -0.010782
C215  C     C_R   0.016305 0.436896 0.559288 -0.050759
C216  C     C_R   0.977136 0.434617 0.944955 -0.046483
C217  C     C_R   0.074222 0.497971 0.576789 0.023767
C218  C     C_R   0.038513 0.494310 0.927766 0.032944
C219  C     C_R   0.051451 0.497353 0.603240 0.424446
C220  C     C_R   0.020657 0.491959 0.900929 0.432964
C221  C     C_R   0.916851 0.375226 0.595452 0.419116
C222  C     C_R   0.883083 0.372586 0.907864 0.435039
C223  C     C_R   0.947916 0.385880 0.657486 -0.045682
C224  C     C_R   0.510363 0.468127 0.686828 -0.115387
C225  C     C_R   0.928468 0.379827 0.846563 -0.053849
C226  C     C_R   0.913490 0.381290 0.682488 0.243210
C227  C     C_R   0.899238 0.374323 0.820769 0.239297
C228  C     C_R   0.877360 0.486604 0.669157 -0.179333
C229  C     C_R   0.867294 0.485259 0.830882 -0.170452
C230  C     C_R   0.415811 0.825151 0.287642 0.556685
C231  C     C_R   0.415951 0.825385 0.212321 0.560239
C232  C     C_R   0.913439 0.491986 0.644577 -0.064405
C233  C     C_R   0.894053 0.488138 0.856533 -0.048269
C234  C     C_R   0.947085 0.440327 0.638472 0.200517
C235  C     C_R   0.501965 0.388522 0.829383 -0.127130
C236  C     C_R   0.923094 0.434377 0.864509 0.200129
C237  C     C_R   0.997632 0.385284 0.487164 0.023170
C238  C     C_R   0.952266 0.381243 0.016873 0.021059
C239  C     C_R   0.069025 0.459640 0.477575 0.016020
C240  C     C_R   0.021497 0.456155 0.026910 0.020819
C241  C     C_R   0.128038 0.519949 0.495174 0.007828
C242  C     C_R   0.079154 0.519392 0.009688 0.015859
C243  C     C_R   0.949959 0.321956 0.468630 -0.125675
C244  C     C_R   0.906522 0.314925 0.034800 -0.131349
C245  C     C_R   0.210187 0.605042 0.457713 -0.098571
C246  C     C_R   0.493618 0.494193 0.662905 0.258008
C247  C     C_R   0.155877 0.605407 0.047308 -0.112285
C248  C     C_R   0.172776 0.563265 0.541046 -0.144646
C249  C     C_R   0.130801 0.561836 0.964441 -0.130253
C250  C     C_R   0.153253 0.558762 0.567491 -0.109866
C251  C     C_R   0.116017 0.555601 0.937728 -0.090120
C252  C     C_R   0.198789 0.592097 0.484581 -0.148699
C253  C     C_R   0.145210 0.594299 0.020469 -0.144210
C254  C     C_R   0.032997 0.431418 0.405215 0.425887
C255  C     C_R   0.990401 0.417899 0.099170 0.426121
C256  C     C_R   0.371625 0.906949 0.405259 0.435841
Cl1   Cl    Cl    0.405707 0.129669 0.693702 -0.498491
Cl2   Cl    Cl    0.401572 0.371019 0.870288 -0.511476
Cl3   Cl    Cl    0.643358 0.049021 0.812064 -0.564678
Cl4   Cl    Cl    0.259821 0.850575 0.578797 -0.495963
Cl5   Cl    Cl    0.355649 0.843765 0.927125 -0.515264
Cl6   Cl    Cl    0.591576 0.899266 0.318790 -0.553508
Cl7   Cl    Cl    0.583427 0.885338 0.177691 -0.554789
Cl8   Cl    Cl    0.373333 0.392058 0.367900 -0.518589
Cl9   Cl    Cl    0.442063 0.367433 0.155030 -0.507342
Cl10  Cl    Cl    0.423689 0.533743 0.662493 -0.509673
Cr1   Cr    Cr6+3 0.456550 0.732290 0.250000 1.125217
Cr2   Cr    Cr6+3 0.275740 0.543450 0.250000 1.038580
Cr3   Cr    Cr6+3 0.267710 0.724260 0.250000 1.025633
Cr4   Cr    Cr6+3 0.543450 0.275740 0.750000 1.101914
Cr5   Cr    Cr6+3 0.724260 0.267710 0.750000 1.072504
Cr6   Cr    Cr6+3 0.732290 0.456550 0.750000 1.040288
H1    H     H_    0.144382 0.446170 0.312093 0.147431
H2    H     H_    0.842421 0.525696 0.825484 0.154830
H3    H     H_    0.738293 0.436556 0.035991 0.158816
H4    H     H_    0.822410 0.412915 0.036759 0.122439
H5    H     H_    0.750447 0.378737 0.009334 0.182388
H6    H     H_    0.522572 0.355257 0.605328 0.123395
H7    H     H_    0.595240 0.331172 0.622432 0.141302
H8    H     H_    0.696055 0.390663 0.585517 0.192570
H9    H     H_    0.593947 0.309673 0.574208 0.124122
H10   H     H_    0.626523 0.419007 0.568816 0.159291
H11   H     H_    0.636741 0.597609 0.888670 0.144725
H12   H     H_    0.670317 0.647286 0.856704 0.140872
H13   H     H_    0.200241 0.604379 0.580631 0.191777
H14   H     H_    0.817177 0.731846 0.873393 0.169623
H15   H     H_    0.743615 0.747842 0.892776 0.108759
H16   H     H_    0.783100 0.681766 0.905131 0.171375
H17   H     H_    0.029057 0.424482 0.714372 0.146760
H18   H     H_    0.033037 0.343199 0.695081 0.145355
H19   H     H_    0.960779 0.241024 0.731526 0.159448
H20   H     H_    0.058119 0.331411 0.742070 0.129300
H21   H     H_    0.958403 0.323408 0.750385 0.197405
H22   H     H_    0.793575 0.221093 0.816057 0.171768
H23   H     H_    0.889288 0.224694 0.827461 0.123388
H24   H     H_    0.165297 0.600373 0.924903 0.198061
H25   H     H_    0.919002 0.196018 0.782363 0.139837
H26   H     H_    0.818559 0.114280 0.794308 0.167466
H27   H     H_    0.822687 0.190509 0.771000 0.184252
H28   H     H_    0.191038 0.414911 0.565693 0.117634
H29   H     H_    0.253285 0.470114 0.594285 0.166456
H30   H     H_    0.175220 0.338970 0.620579 0.200477
H31   H     H_    0.105152 0.370546 0.606243 0.105384
H32   H     H_    0.113028 0.284568 0.592091 0.157949
H33   H     H_    0.283520 0.139770 0.963551 0.129311
H34   H     H_    0.389013 0.155667 0.961011 0.125208
H35   H     H_    0.911931 0.533698 0.629847 0.157428
H36   H     H_    0.362087 0.108799 0.914425 0.186715
H37   H     H_    0.289847 0.029309 0.936956 0.108176
H38   H     H_    0.255219 0.088936 0.917576 0.183761
H39   H     H_    0.767487 0.152144 0.534456 0.145077
H40   H     H_    0.865861 0.164001 0.522044 0.138392
H41   H     H_    0.804162 0.119594 0.478257 0.139410
H42   H     H_    0.736244 0.044132 0.502247 0.118967
H43   H     H_    0.708852 0.117766 0.488498 0.154550
H44   H     H_    0.794860 0.157840 0.975623 0.127995
H45   H     H_    0.699204 0.162952 0.970643 0.152025
H46   H     H_    0.889993 0.530512 0.870456 0.178021
H47   H     H_    0.661354 0.124999 0.017748 0.163738
H48   H     H_    0.670216 0.045974 0.999386 0.120086
H49   H     H_    0.753394 0.113805 0.021431 0.138161
H50   H     H_    0.245859 0.641637 0.496472 0.117050
H51   H     H_    0.188425 0.647168 0.008668 0.120052
H52   H     H_    0.305249 0.864772 0.309196 0.145156
H53   H     H_    0.312996 0.880192 0.194298 0.145054
H54   H     H_    0.310906 0.924920 0.352110 0.148293
H55   H     H_    0.146883 0.448358 0.186998 0.149133
H56   H     H_    0.320930 0.950642 0.153046 0.147099
H57   H     H_    0.117341 0.412900 0.358572 0.168028
H58   H     H_    0.095479 0.407146 0.142295 0.153047
H59   H     H_    0.272515 0.865708 0.526103 0.141569
H60   H     H_    0.347883 0.865053 0.979242 0.143801
H61   H     H_    0.278041 0.828095 0.488653 0.117559
H62   H     H_    0.284716 0.866691 0.013329 0.116648
H63   H     H_    0.556878 0.957154 0.365224 0.167286
H64   H     H_    0.555697 0.963248 0.134590 0.162555
H65   H     H_    0.591831 0.190639 0.420372 0.164953
H66   H     H_    0.101254 0.636551 0.370764 0.128238
H67   H     H_    0.589422 0.221480 0.085634 0.174634
H68   H     H_    0.658275 0.206228 0.506246 0.189931
H69   H     H_    0.599061 0.285837 0.996054 0.199543
H70   H     H_    0.669172 0.119138 0.680002 0.176383
H71   H     H_    0.497501 0.213538 0.820251 0.166863
H72   H     H_    0.919527 0.287087 0.428643 0.164814
H73   H     H_    0.879080 0.274485 0.074599 0.164509
H74   H     H_    0.675889 0.226435 0.551878 0.158738
H75   H     H_    0.630023 0.300352 0.951375 0.164030
H76   H     H_    0.635205 0.075183 0.634551 0.168932
H77   H     H_    0.046480 0.612924 0.136973 0.127755
H78   H     H_    0.474638 0.188558 0.867014 0.198719
H79   H     H_    0.496679 0.711904 0.321948 0.195485
H80   H     H_    0.490696 0.692451 0.172283 0.187189
H81   H     H_    0.510309 0.701030 0.369032 0.161219
H82   H     H_    0.528909 0.658582 0.129640 0.157406
H83   H     H_    0.674381 0.672897 0.437680 0.166765
H84   H     H_    0.731050 0.615864 0.076922 0.164253
H85   H     H_    0.657057 0.418022 0.666395 0.130289
H86   H     H_    0.707543 0.530105 0.818504 0.157137
H87   H     H_    0.699078 0.695438 0.569321 0.168470
H88   H     H_    0.265470 0.661299 0.450732 0.206764
H89   H     H_    0.778982 0.563210 0.947734 0.154109
H90   H     H_    0.686845 0.709546 0.523425 0.111254
H91   H     H_    0.767059 0.579237 0.993324 0.105187
H92   H     H_    0.686069 0.676288 0.484070 0.111951
H93   H     H_    0.752930 0.592452 0.032770 0.101878
H94   H     H_    0.368327 0.441543 0.315370 0.167197
H95   H     H_    0.403636 0.438945 0.198553 0.165560
H96   H     H_    0.249907 0.455751 0.446863 0.165382
H97   H     H_    0.314752 0.341383 0.066187 0.168244
H98   H     H_    0.274028 0.408307 0.529963 0.121664
H99   H     H_    0.207727 0.663819 0.054525 0.217231
H100  H     H_    0.358175 0.268278 0.988076 0.106536
H101  H     H_    0.477916 0.469648 0.704419 0.164539
H102  H     H_    0.443496 0.350431 0.818952 0.180924
H103  H     H_    0.258495 0.450091 0.493359 0.113339
H104  H     H_    0.332820 0.311281 0.022383 0.111717
H105  H     H_    0.973194 0.345372 0.652589 0.124336
H106  H     H_    0.954426 0.341192 0.852913 0.123323
H107  H     H_    0.819495 0.267124 0.559237 0.161649
H108  H     H_    0.777504 0.269549 0.943855 0.159017
H109  H     H_    0.905837 0.258618 0.473913 0.181063
H110  H     H_    0.235436 0.611495 0.535713 0.120185
H111  H     H_    0.863457 0.251945 0.028624 0.176317
H112  H     H_    0.131398 0.672652 0.324200 0.140047
H113  H     H_    0.099217 0.656205 0.181663 0.142392
H114  H     H_    0.180277 0.848005 0.426633 0.149161
H115  H     H_    0.159165 0.814227 0.460660 0.116732
H116  H     H_    0.086196 0.665494 0.446851 0.157249
H117  H     H_    0.040044 0.721998 0.431753 0.099919
H118  H     H_    0.108420 0.697462 0.412853 0.183297
H119  H     H_    0.164323 0.855980 0.045457 0.113736
H120  H     H_    0.198236 0.890281 0.078895 0.145752
H121  H     H_    0.192653 0.609955 0.970514 0.130954
H122  H     H_    0.120384 0.740519 0.093696 0.208561
H123  H     H_    0.052436 0.772794 0.078217 0.095383
H124  H     H_    0.084125 0.708130 0.060448 0.151295
H125  H     H_    0.465580 0.191330 0.610793 0.115089
H126  H     H_    0.442562 0.223673 0.641934 0.148379
H127  H     H_    0.356364 0.231606 0.606031 0.133705
H128  H     H_    0.314273 0.121265 0.598972 0.175573
H129  H     H_    0.290824 0.153303 0.629964 0.203741
H130  H     H_    0.699965 0.153415 0.891918 0.178081
H131  H     H_    0.745786 0.137566 0.862389 0.141455
H132  H     H_    0.848120 0.524334 0.672932 0.157973
H133  H     H_    0.739824 0.011447 0.882798 0.185826
H134  H     H_    0.799612 0.104600 0.902510 0.099048
H135  H     H_    0.693515 0.027470 0.912078 0.163501
H136  H     H_    0.694719 0.302446 0.438374 0.152075
H137  H     H_    0.723177 0.239822 0.459131 0.138404
H138  H     H_    0.756019 0.344453 0.495224 0.179852
H139  H     H_    0.816875 0.392040 0.466004 0.124895
H140  H     H_    0.727571 0.404728 0.473845 0.164755
H141  H     H_    0.717830 0.260056 0.039819 0.169877
H142  H     H_    0.708263 0.319869 0.066530 0.145370
N1    N     N_R   0.099423 0.505825 0.395897 -0.387806
N2    N     N_R   0.502728 0.508218 0.113513 -0.366088
N3    N     N_R   0.516139 0.514126 0.614721 -0.362637
N4    N     N_R   0.581151 0.421455 0.899542 -0.371895
N5    N     N_R   0.054503 0.493300 0.108688 -0.389114
N6    N     N_R   0.972889 0.437244 0.612031 -0.388422
N7    N     N_R   0.943245 0.432272 0.891507 -0.383346
N8    N     N_R   0.431060 0.966299 0.388582 -0.395921
N9    N     N_R   0.435534 0.989139 0.114775 -0.396061
N10   N     N_R   0.509852 0.070001 0.606196 -0.393176
N11   N     N_R   0.530981 0.110958 0.898221 -0.394517
N12   N     N_R   0.452959 0.561432 0.397640 -0.365091
O1    O     O_R   0.475290 0.813700 0.278840 -0.436549
O2    O     O_2   0.442734 0.973123 0.892405 -0.381786
O3    O     O_2   0.540244 0.097207 0.382476 -0.492110
O4    O     O_2   0.541443 0.120670 0.122406 -0.480159
O5    O     O_2   0.632267 0.188922 0.597839 -0.518835
O6    O     O_2   0.617295 0.248919 0.905950 -0.477274
O7    O     O_2   0.595027 0.629978 0.395960 -0.499109
O8    O     O_2   0.642931 0.596303 0.116323 -0.497363
O9    O     O_2   0.647620 0.625573 0.612277 -0.467991
O10   O     O_2   0.723207 0.490920 0.904793 -0.450644
O11   O     O_2   0.311410 0.496196 0.401964 -0.474397
O12   O     O_R   0.475290 0.813700 0.221160 -0.429660
O13   O     O_2   0.363407 0.419781 0.107943 -0.480013
O14   O     O_2   0.381669 0.408016 0.615579 -0.447652
O15   O     O_2   0.466274 0.291536 0.900304 -0.430013
O16   O     O_R   0.448450 0.657720 0.276690 -0.485477
O17   O     O_R   0.448450 0.657720 0.223310 -0.475362
O18   O     O_R   0.524710 0.338410 0.721160 -0.462243
O19   O     O_R   0.524710 0.338410 0.778840 -0.506971
O20   O     O_R   0.551550 0.209270 0.723310 -0.436449
O21   O     O_R   0.551550 0.209270 0.776690 -0.495485
O22   O     O_R   0.661590 0.186300 0.721160 -0.502358
O23   O     O_2   0.220540 0.626094 0.404353 -0.452429
O24   O     O_R   0.661590 0.186300 0.778840 -0.473647
O25   O     O_R   0.790730 0.342280 0.723310 -0.445476
O26   O     O_R   0.790730 0.342280 0.776690 -0.468254
O27   O     O_R   0.813700 0.475290 0.721160 -0.510877
O28   O     O_R   0.813700 0.475290 0.778840 -0.518156
O29   O     O_R   0.657720 0.448450 0.723310 -0.487830
O30   O     O_R   0.657720 0.448450 0.776690 -0.496227
O31   O     O_3   0.666667 0.333333 0.750000 -0.268394
O32   O     O_R   0.338410 0.524710 0.278840 -0.508255
O33   O     O_R   0.338410 0.524710 0.221160 -0.506510
O34   O     O_2   0.169328 0.619488 0.100490 -0.488529
O35   O     O_R   0.209270 0.551550 0.276690 -0.495722
O36   O     O_R   0.209270 0.551550 0.223310 -0.494175
O37   O     O_R   0.186300 0.661590 0.278840 -0.507752
O38   O     O_R   0.186300 0.661590 0.221160 -0.507146
O39   O     O_R   0.342280 0.790730 0.276690 -0.512941
O40   O     O_R   0.342280 0.790730 0.223310 -0.510880
O41   O     O_3   0.333333 0.666667 0.250000 -0.251397
O42   O     O_2   0.981042 0.380861 0.389948 -0.507077
O43   O     O_2   0.942612 0.363399 0.114414 -0.500397
O44   O     O_2   0.848081 0.321486 0.603775 -0.491471
O45   O     O_2   0.101066 0.550534 0.618400 -0.475501
O46   O     O_2   0.815005 0.319961 0.898930 -0.516231
O47   O     O_3   0.245511 0.790399 0.440872 -0.515741
O48   O     O_3   0.248923 0.822770 0.061065 -0.523228
O49   O     O_3   0.395985 0.094636 0.637422 -0.472180
O50   O     O_3   0.620576 0.047074 0.869729 -0.484920
O51   O     O_3   0.612919 0.241688 0.469656 -0.561583
O52   O     O_3   0.614044 0.279384 0.038241 -0.581641
O53   O     O_3   0.633825 0.458332 0.618961 -0.526683
O54   O     O_3   0.715992 0.567745 0.867231 -0.518265
O55   O     O_3   0.913031 0.325993 0.701001 -0.545787
O56   O     O_2   0.073415 0.543405 0.885938 -0.480221
O57   O     O_3   0.906902 0.322461 0.802558 -0.562795
O58   O     O_3   0.274702 0.376829 0.578811 -0.515113
O59   O     O_3   0.362179 0.236934 0.938726 -0.486823
O60   O     O_3   0.834429 0.254201 0.509380 -0.604450
O61   O     O_3   0.788160 0.256425 0.994718 -0.594253
O62   O     O_2   0.318833 0.838701 0.396552 -0.443080
O63   O     O_2   0.325381 0.861732 0.105379 -0.445992
O64   O     O_2   0.389117 0.948734 0.612532 -0.374022

loop_
_geom_bond_atom_site_label_1
_geom_bond_atom_site_label_2
_ccdc_geom_bond_type
Cr5   O22   S    
C63   C65   A    
Cr1   O16   S    
C243  H109  S    
C135  H97   S    
C223  C226  A    
C121  H57   S    
C122  C191  A    
C39   C41   A    
C203  C205  A    
C21   C76   A    
C167  H28   S    
C160  H10   S    
C169  H32   S    
C155  H139  S    
C88   C108  A    
C54   O64   D    
C170  H33   S    
C58   C60   A    
C175  H48   S    
C61   C63   A    
C12   H54   S    
C80   C86   A    
C214  C222  A    
C141  O9    D    
C14   H56   S    
C175  H49   S    
C54   N10   Am   
C70   C74   A    
C68   C90   A    
C11   H53   S    
C88   O8    D    
C34   C81   A    
C33   C69   A    
C119  C128  A    
C150  H126  S    
C13   C246  A    
C190  C243  A    
C30   C182  S    
C78   H65   S    
Cr1   O12   S    
C42   C44   A    
C164  H21   S    
C248  C250  A    
C50   C83   A    
C121  C180  A    
C151  H128  S    
C238  C240  A    
C229  H2    S    
C249  C251  A    
C61   H70   S    
C220  O56   D    
C166  H27   S    
C127  C136  A    
C22   C77   A    
C256  O62   D    
C252  H50   S    
C99   C116  A    
C123  C126  A    
C255  N5    Am   
C35   C101  A    
C64   C66   A    
C41   Cl4   S    
C141  N3    Am   
C91   O13   D    
C147  H117  S    
C207  O36   A    
C66   N11   S    
C172  H39   S    
C112  O17   A    
C232  C234  A    
C254  O42   D    
C1    O16   A    
C154  C155  S    
C92   Cl8   S    
C138  C140  A    
C192  H73   S    
Cr4   O21   S    
C162  H14   S    
C156  H141  S    
C245  C252  A    
C27   C80   A    
C82   C84   A    
C148  H119  S    
C199  C204  A    
C8    C28   A    
C49   C73   A    
C37   C45   A    
Cr6   O31   S    
C28   C230  S    
C224  H101  S    
C231  O40   A    
C166  H25   S    
C18   C71   A    
C204  C215  A    
C111  C124  A    
Cr3   O40   S    
C227  O57   S    
C33   C38   A    
C94   C115  A    
C231  O12   A    
C174  O61   S    
C171  H38   S    
C200  C209  A    
C56   C59   A    
C188  C254  A    
C191  N5    S    
C44   C55   A    
C176  C189  A    
C79   C123  A    
C45   C50   A    
C104  N2    S    
C202  H85   S    
C156  C158  S    
C118  C213  A    
C73   H113  S    
C119  C126  A    
C87   C107  A    
C76   H61   S    
C126  C134  A    
C132  C134  A    
C30   C61   A    
C125  C127  A    
C172  O60   S    
C1    C115  S    
C25   C194  A    
C159  H7    S    
C69   C77   A    
C160  H8    S    
C226  O55   S    
C23   O23   D    
C180  N1    S    
C161  H12   S    
C158  H3    S    
C167  C169  S    
C256  N8    Am   
C105  C107  A    
C133  C142  A    
C26   C78   A    
C96   C121  A    
Cr1   O17   S    
C251  H24   S    
C19   C21   A    
C216  C218  A    
C117  C186  S    
C214  C216  A    
C170  C171  S    
C185  O26   A    
C186  O18   A    
Cr4   O31   S    
C188  C190  A    
Cr2   O33   S    
C174  C175  S    
C221  N6    Am   
Cr1   O41   S    
C5    C27   A    
Cr4   O19   S    
C222  O46   D    
C118  C235  A    
C157  H100  S    
C96   C195  A    
C24   N4    S    
C213  H86   S    
C205  C216  A    
C153  H134  S    
C183  O21   A    
C142  N4    Am   
C62   C64   A    
C90   C181  A    
C62   H71   S    
C97   H55   S    
C197  C226  A    
C154  O51   S    
C40   C42   A    
C181  H104  S    
C93   C95   A    
C95   H95   S    
C52   N10   Am   
C6    H63   S    
C48   C72   A    
C42   Cl5   S    
C240  C242  A    
C81   C83   A    
C48   H66   S    
C248  H110  S    
C171  H36   S    
C33   C40   A    
C149  H123  S    
C120  C127  A    
C120  C129  A    
C145  O47   S    
C189  C255  A    
C184  O27   A    
C164  H20   S    
C99   H80   S    
C86   O52   S    
C112  O33   A    
C55   N11   Am   
C56   O49   S    
C53   O6    D    
C208  O60   S    
C7    H64   S    
C51   C53   A    
C179  H103  S    
C46   C68   A    
C36   C75   A    
C211  H108  S    
C19   C256  A    
C235  H102  S    
C50   C52   A    
C110  C113  A    
C212  C215  A    
C95   C116  A    
C167  H29   S    
C25   O34   D    
C30   C59   A    
C223  H105  S    
Cr3   O37   S    
C46   C120  A    
C239  C241  A    
C32   C37   A    
C43   C45   A    
Cr6   O29   S    
C228  H132  S    
C32   C67   A    
C140  O15   D    
C78   C85   A    
C224  C246  A    
C72   H112  S    
C89   N12   Am   
Cr2   O32   S    
C168  C193  A    
C143  O53   S    
C173  H42   S    
C73   C196  A    
C135  C181  A    
C174  H45   S    
C117  C202  A    
C112  C116  S    
C209  O61   S    
C132  C141  A    
C46   C113  A    
C225  C236  A    
C230  O1    A    
C63   H76   S    
C103  N12   S    
C236  N7    S    
C84   H75   S    
C185  O28   A    
C145  H115  S    
C172  H40   S    
C245  H88   S    
C210  C212  A    
C91   C114  A    
C67   C70   A    
Cr2   O35   S    
C169  H31   S    
C151  H129  S    
C98   C115  A    
C195  C206  S    
C106  C108  A    
C170  H34   S    
C1    O32   A    
C199  C208  A    
C225  C227  A    
C108  C110  A    
C157  C178  A    
C74   C85   A    
C105  C111  A    
C233  C236  A    
C200  C238  A    
C163  H18   S    
Cr6   O27   S    
C197  C228  A    
C211  C214  A    
C152  C153  S    
C178  O59   S    
C249  H121  S    
C242  C253  A    
C150  C151  S    
C117  C224  A    
Cr5   O26   S    
C246  Cl10  S    
C87   N12   Am   
C3    O63   D    
Cr1   O1    S    
C200  C205  A    
C168  C188  A    
C34   C37   A    
C41   C43   A    
C218  C251  A    
C31   C62   A    
C48   C180  A    
C122  H58   S    
C134  C137  A    
C161  C162  S    
C198  C229  A    
C165  H23   S    
C203  C242  A    
C137  C139  A    
C52   O5    D    
C130  H87   S    
C222  N7    Am   
C100  H81   S    
C125  C157  A    
C232  H35   S    
C93   Cl9   S    
C253  H51   S    
C101  C109  A    
C152  O50   S    
C81   H68   S    
C32   C39   A    
C83   H74   S    
C57   C79   A    
C124  C179  A    
C145  C147  S    
C203  C249  A    
Cr5   O24   S    
C13   N3    S    
C10   H52   S    
C168  C239  A    
C162  H15   S    
C156  H142  S    
C109  H83   S    
C148  H120  S    
C107  C109  A    
C72   C195  A    
C159  O53   S    
C199  C237  A    
Cr5   O31   S    
C4    N8    Am   
C166  H26   S    
C5    N9    Am   
C175  H47   S    
C144  O54   S    
C187  O19   A    
C237  C243  A    
C160  H9    S    
Cr3   O39   S    
C29   C231  S    
C155  H140  S    
C47   C51   A    
C182  O20   A    
C221  O44   D    
C163  O55   S    
C247  H99   S    
C171  H37   S    
C100  C103  A    
C244  H111  S    
C31   C60   A    
C130  C132  A    
C170  O59   S    
C223  C234  A    
C5    O4    D    
C159  C160  S    
C123  C146  A    
C118  C187  S    
C23   C193  A    
C113  H93   S    
C206  O35   A    
C3    N9    Am   
C3    C20   A    
C34   C74   A    
C150  H125  S    
C7    C16   A    
C176  C240  A    
C20   C22   A    
C98   C100  A    
C194  C247  A    
C140  N4    Am   
C161  O54   S    
C228  C232  A    
C183  O24   A    
Cr6   O28   S    
C198  C227  A    
C60   Cl3   S    
C156  O52   S    
C10   C28   A    
C58   O50   S    
C233  H46   S    
Cr2   O41   S    
C158  H5    S    
C128  C130  A    
C4    C26   A    
C161  H11   S    
C15   N8    S    
C158  H4    S    
C225  H106  S    
C218  C220  A    
C35   C57   A    
C36   C38   A    
C254  N1    Am   
C147  H118  S    
C24   C144  A    
C80   H67   S    
C250  H13   S    
C13   C143  A    
C22   O48   S    
Cr4   O20   S    
C210  H107  S    
C102  H82   S    
C99   C102  A    
C153  H133  S    
C184  C197  S    
C193  C245  A    
C59   Cl1   S    
C75   C86   A    
C219  O45   D    
C176  C194  A    
C51   C84   A    
C40   H60   S    
C89   O11   D    
C57   C105  A    
C165  C166  S    
C192  C244  A    
C234  N6    S    
C87   O7    D    
Cr3   O41   S    
C35   C119  A    
C163  C164  S    
C155  H138  S    
C6    C8    A    
C110  H84   S    
C151  H127  S    
C91   N2    Am   
C182  O22   A    
C149  H122  S    
C106  C114  A    
C17   C26   A    
C97   C196  A    
C129  H91   S    
C4    O3    D    
C215  C217  A    
C144  C213  A    
C11   C14   A    
C186  O29   A    
C56   C65   A    
C238  C244  A    
C55   O2    D    
C201  C241  A    
C69   C71   A    
C255  O43   D    
C43   C54   A    
C92   C103  A    
C209  C211  A    
C6    C15   A    
C58   C66   A    
C36   C82   A    
C133  C136  A    
C114  C135  A    
C12   C15   A    
C185  C198  S    
C82   H69   S    
C18   C20   A    
Cr6   O30   S    
C44   C47   A    
C9    C29   A    
C187  O30   A    
Cr5   O25   S    
C146  H98   S    
C64   H78   S    
C17   C70   A    
C201  C248  A    
C131  H89   S    
C177  O58   S    
C229  C233  A    
C96   H1    S    
C173  H41   S    
C167  O58   S    
C241  C252  A    
C68   C106  A    
C25   N5    Am   
C93   C104  A    
C92   C94   A    
C212  C221  A    
C88   N2    Am   
C219  N6    Am   
Cr3   O38   S    
C148  C149  S    
C136  C138  A    
C147  H116  S    
C152  H130  S    
C49   H77   S    
C145  H114  S    
C148  O48   S    
C139  O14   D    
C146  C177  A    
C152  H131  S    
Cr2   O36   S    
C189  C192  A    
C169  H30   S    
C230  O39   A    
C97   C122  A    
Cr4   O18   S    
C153  H135  S    
C143  C202  A    
C154  H136  S    
C77   H62   S    
C102  C104  A    
C65   N10   S    
C38   C47   A    
C163  H17   S    
C10   C12   A    
C90   C125  A    
C247  C253  A    
C2    Cl2   S    
C237  C239  A    
C2    C24   A    
C201  C204  A    
C14   C16   A    
C217  C250  A    
C16   N9    S    
C8    Cl6   S    
C138  C178  A    
C165  O57   S    
C172  C173  S    
C7    C9    A    
C154  H137  S    
C149  H124  S    
C31   C183  S    
C206  O37   A    
C190  H72   S    
C142  O10   D    
C18   C27   A    
C131  C133  A    
C23   N1    Am   
C164  H19   S    
C150  O49   S    
C165  H22   S    
C49   C191  A    
C39   H59   S    
C217  C219  A    
C89   C111  A    
C53   N11   Am   
C101  H92   S    
C21   O47   S    
C98   H79   S    
C71   C75   A    
C85   O51   S    
C9    Cl7   S    
C17   C19   A    
C79   C179  A    
C196  C207  S    
C124  H96   S    
C207  O38   A    
C2    C235  A    
C139  N3    Am   
C128  H90   S    
C137  C177  A    
C11   C29   A    
C184  O25   A    
C208  C210  A    
C159  H6    S    
C173  H43   S    
C67   C76   A    
C174  H44   S    
C220  N7    Am   
C94   H94   S    
C129  C131  A    
C162  H16   S    
