data_mof_unit_62242.cif
_audit_creation_date              2012-12-10T18:53:58-0500
_audit_creation_method            fapswitch 2.2
_symmetry_space_group_name_H-M    P1
_symmetry_Int_Tables_number       1
_space_group_crystal_system       triclinic
_cell_length_a                    19.428934
_cell_length_b                    19.49583
_cell_length_c                    19.404067
_cell_angle_alpha                 84.767035
_cell_angle_beta                  95.261522
_cell_angle_gamma                 90.121479
_cell_volume                      7288.31631644

loop_
_atom_site_label
_atom_site_type_symbol
_atom_type_description
_atom_site_fract_x
_atom_site_fract_y
_atom_site_fract_z
_atom_type_partial_charge
C1    C     C_R   0.311645 0.492290 0.492045 0.807773
C2    C     C_2   0.495637 0.983228 0.463842 -0.169323
C3    C     C_2   0.501962 0.017213 0.520953 -0.113131
C4    C     C_R   0.688206 0.507163 0.508243 0.774759
C5    C     C_R   0.509710 0.236337 0.511159 -0.051866
C6    C     C_R   0.763834 0.505473 0.516335 -0.001632
C7    C     C_R   0.799517 0.456208 0.484755 -0.166413
C8    C     C_R   0.871064 0.452118 0.494848 -0.197988
C9    C     C_R   0.908071 0.497600 0.536145 0.060167
C10   C     C_R   0.872674 0.546656 0.568065 -0.171716
C11   C     C_R   0.800854 0.550583 0.558266 -0.169373
C12   C     C_R   0.495207 0.907667 0.469605 0.073186
C13   C     C_R   0.124386 0.531015 0.435885 -0.187256
C14   C     C_R   0.196058 0.531319 0.437279 -0.183922
C15   C     C_R   0.203635 0.446945 0.537807 -0.216353
C16   C     C_R   0.508523 0.491919 0.688753 0.787953
C17   C     C_R   0.132017 0.446885 0.536455 -0.068361
C18   C     C_R   0.092290 0.490269 0.486519 0.228378
C19   C     C_2   0.984216 0.495664 0.543162 0.403946
C20   C     C_2   0.016976 0.492830 0.485440 -0.280682
C21   C     C_R   0.236188 0.489943 0.488851 -0.009464
C22   C     C_R   0.492420 0.515955 0.235302 -0.044444
C23   C     C_R   0.443252 0.872425 0.431696 -0.048870
C24   C     C_R   0.555647 0.506422 0.207713 -0.203983
C25   C     C_R   0.559503 0.512902 0.136443 -0.136233
C26   C     C_R   0.499859 0.527593 0.091579 0.164910
C27   C     C_R   0.437082 0.539955 0.118283 -0.193167
C28   C     C_R   0.491614 0.508065 0.311041 0.789602
C29   C     C_R   0.432675 0.533961 0.190019 -0.019744
C30   C     C_R   0.454862 0.480369 0.871430 -0.022544
C31   C     C_R   0.451178 0.485899 0.798539 -0.105543
C32   C     C_R   0.577887 0.480544 0.804410 0.434511
C33   C     C_R   0.580484 0.477150 0.876430 -0.165808
C34   C     C_R   0.441836 0.800662 0.439444 -0.235287
C35   C     C_R   0.520011 0.477113 0.910065 -0.027565
C36   C     C_2   0.501629 0.527876 0.016316 -0.267317
C37   C     C_2   0.526345 0.474755 0.986090 -0.006758
C38   C     C_R   0.512756 0.486431 0.764743 -0.174133
C39   C     C_R   0.508040 0.311796 0.508292 0.827799
C40   C     C_R   0.491927 0.688264 0.491194 0.831625
C41   C     C_R   0.491991 0.763611 0.484353 -0.062678
C42   C     C_R   0.544423 0.798702 0.520832 -0.317319
C43   C     C_R   0.547009 0.870618 0.513295 0.467541
C44   C     C_1   0.384164 0.492855 0.758614 0.221766
C45   C     C_R   0.535769 0.130116 0.462741 -0.253252
C46   C     C_1   0.555645 0.413229 0.025367 0.197644
C47   C     C_1   0.391965 0.476961 0.906579 0.185636
C48   C     C_1   0.365955 0.543365 0.215215 0.197368
C49   C     C_1   0.389899 0.908894 0.385931 0.171165
C50   C     C_R   0.537800 0.202180 0.458930 0.441192
C51   C     C_R   0.481524 0.197881 0.566505 -0.268185
C52   C     C_R   0.479948 0.126488 0.569648 -0.174878
C53   C     C_R   0.505617 0.092442 0.517136 0.127842
H1    H     H_    0.584180 0.770210 0.554431 0.169633
H2    H     H_    0.897652 0.413408 0.470382 0.138528
H3    H     H_    0.107729 0.412940 0.574270 0.169346
H4    H     H_    0.602437 0.494243 0.241417 0.166759
H5    H     H_    0.391144 0.551822 0.083068 0.150243
H6    H     H_    0.476389 0.570773 0.983979 0.162250
H7    H     H_    0.608844 0.505487 0.116243 0.144789
H8    H     H_    0.460419 0.223033 0.607503 0.186828
H9    H     H_    0.630364 0.473889 0.906621 0.171918
H10   H     H_    0.502413 0.988893 0.571957 0.174463
H11   H     H_    0.558213 0.103627 0.423442 0.137631
H12   H     H_    0.457536 0.097820 0.612509 0.147390
H13   H     H_    0.401447 0.773780 0.410553 0.180540
H14   H     H_    0.487322 0.010750 0.412507 0.147291
H15   H     H_    0.989007 0.497531 0.643214 0.335887
H16   H     H_    0.582487 0.207655 0.372600 0.331220
H17   H     H_    0.631934 0.461807 0.728212 0.332469
H18   H     H_    0.632080 0.872051 0.574880 0.333608
H19   H     H_    0.772222 0.420268 0.452842 0.169559
H20   H     H_    0.219968 0.564304 0.398398 0.174936
H21   H     H_    0.233416 0.413888 0.577516 0.174547
H22   H     H_    0.987418 0.496271 0.434828 0.116106
H23   H     H_    0.900606 0.582659 0.599427 0.153077
H24   H     H_    0.094021 0.563774 0.396331 0.143766
H25   H     H_    0.774421 0.588898 0.583369 0.167891
N1    N     N_1   0.330775 0.498399 0.726793 -0.187069
N2    N     N_1   0.579017 0.364038 0.056640 -0.191107
N3    N     N_1   0.341846 0.474248 0.934647 -0.192698
N4    N     N_1   0.312473 0.550883 0.235361 -0.192375
N5    N     N_1   0.347170 0.938114 0.349283 -0.190386
O1    O     O_3   0.500000 0.500000 0.500000 -0.498537
O2    O     O_R   0.467830 0.341070 0.546160 -0.664459
O3    O     O_R   0.450560 0.655630 0.450550 -0.648234
O4    O     O_R   0.545840 0.347670 0.467560 -0.572201
O5    O     O_R   0.535760 0.655640 0.535740 -0.644312
O6    O     O_3   0.021576 0.501086 0.606629 -0.759160
O7    O     O_3   0.565669 0.239656 0.404355 -0.739293
O8    O     O_3   0.640061 0.476806 0.775580 -0.751425
O9    O     O_3   0.600349 0.905625 0.546617 -0.768046
O10   O     O_R   0.545870 0.536170 0.656040 -0.627121
O11   O     O_R   0.450550 0.545430 0.340370 -0.638486
O12   O     O_R   0.347960 0.451240 0.536460 -0.640218
O13   O     O_R   0.655630 0.467150 0.467130 -0.646767
O14   O     O_R   0.340780 0.536140 0.450970 -0.644921
O15   O     O_R   0.655640 0.545460 0.545430 -0.645551
O16   O     O_R   0.467850 0.451260 0.656340 -0.633242
O17   O     O_R   0.535740 0.467130 0.347260 -0.630318
Zn1   Zn    Zn3+2 0.558310 0.558310 0.558290 0.978749
Zn2   Zn    Zn3+2 0.446830 0.436990 0.558720 0.978746
Zn3   Zn    Zn3+2 0.558290 0.446420 0.446420 1.004974
Zn4   Zn    Zn3+2 0.436570 0.558290 0.436570 0.983206

loop_
_geom_bond_atom_site_label_1
_geom_bond_atom_site_label_2
_ccdc_geom_bond_type
C1    C21   S    
C22   C29   A    
C4    O15   A    
C27   C29   A    
O1    Zn2   S    
C41   C42   A    
H17   O8    S    
C51   H8    S    
C39   O4    A    
C36   H6    S    
O3    Zn4   S    
C34   H13   S    
O5    Zn1   S    
C7    C8    A    
C12   C23   A    
C16   O10   A    
C13   C18   A    
C14   C21   A    
C36   C37   D    
C35   C37   S    
C33   H9    S    
C12   C43   A    
C30   C31   A    
C23   C49   S    
C32   O8    S    
C28   O11   A    
C40   O3    A    
C4    O13   A    
C10   H23   S    
C50   O7    S    
H18   O9    S    
C19   C20   D    
C24   H4    S    
C25   H7    S    
C32   C38   A    
C9    C10   A    
O12   Zn2   S    
C28   O17   A    
C2    C12   S    
C22   C28   S    
C13   C14   A    
O1    Zn1   S    
C34   C41   A    
C8    H2    S    
C9    C19   S    
H15   O6    S    
C13   H24   S    
C31   C44   S    
C29   C48   S    
C51   C52   A    
C14   H20   S    
C30   C47   S    
C24   C25   A    
C4    C6    S    
C2    H14   S    
C1    O14   A    
C7    H19   S    
O11   Zn4   S    
C8    C9    A    
C25   C26   A    
O17   Zn3   S    
C20   H22   S    
C19   O6    S    
C11   H25   S    
C1    O12   A    
C23   C34   A    
C15   H21   S    
C17   C18   A    
C26   C27   A    
C17   H3    S    
O4    Zn3   S    
C30   C35   A    
C26   C36   S    
C40   C41   S    
C5    C39   S    
O1    Zn4   S    
C22   C24   A    
C5    C50   A    
C42   C43   A    
C39   O2    A    
O10   Zn1   S    
H16   O7    S    
C6    C11   A    
C52   C53   A    
C15   C17   A    
C44   N1    T    
C27   H5    S    
C16   O16   A    
C6    C7    A    
C3    H10   S    
O15   Zn1   S    
C45   H11   S    
C43   O9    S    
C31   C38   A    
C32   C33   A    
C40   O5    A    
C2    C3    D    
C42   H1    S    
C46   N2    T    
C3    C53   S    
C49   N5    T    
C45   C50   A    
C33   C35   A    
C48   N4    T    
C18   C20   S    
C47   N3    T    
O14   Zn4   S    
C10   C11   A    
C52   H12   S    
C45   C53   A    
C15   C21   A    
O16   Zn2   S    
O13   Zn3   S    
O1    Zn3   S    
C5    C51   A    
C37   C46   S    
O2    Zn2   S    
C16   C38   S    
