data_mof_unit_36332.cif
_audit_creation_date              2012-12-10T17:31:52-0500
_audit_creation_method            fapswitch 2.2
_symmetry_space_group_name_H-M    P1
_symmetry_Int_Tables_number       1
_space_group_crystal_system       triclinic
_cell_length_a                    12.186719
_cell_length_b                    11.489426
_cell_length_c                    12.798015
_cell_angle_alpha                 92.311306
_cell_angle_beta                  95.426293
_cell_angle_gamma                 88.174119
_cell_volume                      1781.76723753

loop_
_atom_site_label
_atom_site_type_symbol
_atom_type_description
_atom_site_fract_x
_atom_site_fract_y
_atom_site_fract_z
_atom_type_partial_charge
C1    C     C_R   0.476823 0.508073 0.299989 0.925635
C2    C     C_R   0.977783 0.555522 0.511394 -0.087501
C3    C     C_R   0.498486 0.282536 0.498999 0.921393
C4    C     C_R   0.501632 0.717472 0.501905 0.920329
C5    C     C_1   0.496456 0.161948 0.499714 -0.064145
C6    C     C_1   0.503783 0.838137 0.502524 -0.076057
C7    C     C_1   0.498251 0.059506 0.500821 0.065441
C8    C     C_1   0.502042 0.940611 0.502082 0.058854
C9    C     C_R   0.540342 0.480129 0.812084 -0.158663
C10   C     C_R   0.459907 0.516729 0.187330 -0.196598
C11   C     C_R   0.363962 0.443515 0.026948 -0.131469
C12   C     C_R   0.523180 0.491413 0.699839 0.927396
C13   C     C_R   0.637572 0.549234 0.973007 -0.095488
C14   C     C_R   0.367648 0.465456 0.133827 -0.220114
C15   C     C_R   0.633429 0.529255 0.865987 -0.236989
C16   C     C_R   0.542283 0.562204 0.132028 0.321989
C17   C     C_R   0.458202 0.433165 0.866824 0.297419
C18   C     C_R   0.545510 0.527317 0.026300 0.012976
C19   C     C_R   0.455593 0.466097 0.973198 -0.003370
C20   C     C_R   0.050867 0.648813 0.528680 -0.165612
C21   C     C_R   0.949131 0.351148 0.471531 -0.162815
C22   C     C_R   0.164393 0.628396 0.540017 -0.071629
C23   C     C_R   0.835611 0.371582 0.460078 -0.051333
C24   C     C_R   0.138073 0.430654 0.482446 0.560434
C25   C     C_R   0.861919 0.569303 0.517696 0.547727
C26   C     C_R   0.022218 0.444441 0.488781 -0.088244
H1    H     H_    0.701284 0.556854 0.825156 0.231960
H2    H     H_    0.501287 0.780122 0.252368 0.338881
H3    H     H_    0.692811 0.753627 0.692065 0.371119
H4    H     H_    0.307090 0.245948 0.308312 0.368756
H5    H     H_    0.299801 0.438325 0.174860 0.232592
H6    H     H_    0.289692 0.406830 0.988169 0.203742
H7    H     H_    0.712164 0.584787 0.012351 0.222499
H8    H     H_    0.782141 0.298959 0.441832 0.177538
H9    H     H_    0.217865 0.701015 0.558268 0.178945
H10   H     H_    0.022305 0.738629 0.531343 0.230568
H11   H     H_    0.977676 0.261325 0.468961 0.229659
H12   H     H_    0.235838 0.456114 0.801545 0.331329
N1    N     N_R   0.792200 0.479100 0.480660 -0.143927
N2    N     N_R   0.207800 0.520900 0.519340 -0.141359
O1    O     O_R   0.578300 0.494420 0.341180 -0.564815
O2    O     O_2   0.342051 0.237478 0.882095 -0.254903
O3    O     O_3   0.250080 0.388911 0.753335 -0.496256
O4    O     O_2   0.736999 0.616950 0.236635 -0.242210
O5    O     O_2   0.655422 0.758840 0.112146 -0.276865
O6    O     O_3   0.570076 0.745757 0.287421 -0.533201
O7    O     O_2   0.906518 0.745456 0.664026 -0.311255
O8    O     O_2   0.779328 0.789116 0.510671 -0.259562
O9    O     O_3   0.713639 0.675397 0.663603 -0.559449
O10   O     O_2   0.220584 0.210840 0.489907 -0.262313
O11   O     O_2   0.093528 0.254229 0.336366 -0.309405
O12   O     O_R   0.421700 0.505580 0.658820 -0.582881
O13   O     O_3   0.286442 0.324207 0.336858 -0.559650
O14   O     O_R   0.390690 0.507830 0.353590 -0.580495
O15   O     O_R   0.609310 0.492170 0.646410 -0.577532
O16   O     O_R   0.593810 0.327740 0.493800 -0.662204
O17   O     O_R   0.406190 0.672260 0.506200 -0.665305
O18   O     O_R   0.406190 0.341150 0.506220 -0.495020
O19   O     O_R   0.593810 0.658850 0.493780 -0.487795
O20   O     O_2   0.423276 0.261697 0.718478 -0.272351
S1    S     S_3+6 0.368207 0.325403 0.804848 0.067554
S2    S     S_3+6 0.630630 0.672516 0.191384 0.055840
S3    S     S_3+6 0.815382 0.697736 0.588504 0.050733
S4    S     S_3+6 0.184613 0.302060 0.411889 0.050759
Zn1   Zn    Zn3+2 0.625270 0.491050 0.491710 1.079608
Zn2   Zn    Zn3+2 0.374730 0.508950 0.508290 1.067107

loop_
_geom_bond_atom_site_label_1
_geom_bond_atom_site_label_2
_ccdc_geom_bond_type
C4    O17   A    
O1    Zn1   S    
C1    O14   A    
C13   H7    S    
O9    S3    S    
C12   O12   A    
O10   S4    D    
C3    O16   A    
O17   Zn2   S    
C15   H1    S    
C14   H5    S    
C21   C26   A    
C23   H8    S    
H2    O6    S    
C21   C23   A    
C9    C15   A    
C21   H11   S    
H12   O3    S    
C2    C26   A    
H3    O9    S    
C25   N1    A    
C22   H9    S    
N1    Zn1   S    
O2    S1    D    
C11   C19   A    
C16   S2    S    
C13   C18   A    
O6    S2    S    
O14   Zn2   S    
C4    O19   A    
C1    O1    A    
C17   C19   A    
C20   C22   A    
C11   H6    S    
C24   S4    S    
C2    C25   A    
C5    C7    T    
C13   C15   A    
O7    S3    D    
H4    O13   S    
C23   N1    A    
C24   N2    A    
C12   O15   A    
C9    C12   S    
C1    C10   S    
C17   S1    S    
C2    C20   A    
O16   Zn1   S    
C20   H10   S    
C3    O18   A    
O5    S2    D    
C7    C8    S    
O12   Zn2   S    
O3    S1    S    
C16   C18   A    
C4    C6    S    
C25   S3    S    
C9    C17   A    
C11   C14   A    
C10   C16   A    
C22   N2    A    
C18   C19   A    
O8    S3    D    
C6    C8    T    
O4    S2    D    
O15   Zn1   S    
N2    Zn2   S    
O13   S4    S    
O18   Zn2   S    
O19   Zn1   S    
O11   S4    D    
C24   C26   A    
C10   C14   A    
O20   S1    D    
C3    C5    S    
