data_mof_unit_64212.cif
_audit_creation_date              2012-12-10T16:44:53-0500
_audit_creation_method            fapswitch 2.2
_symmetry_space_group_name_H-M    P1
_symmetry_Int_Tables_number       1
_space_group_crystal_system       triclinic
_cell_length_a                    18.44549
_cell_length_b                    18.462027
_cell_length_c                    18.454047
_cell_angle_alpha                 119.634457
_cell_angle_beta                  119.840096
_cell_angle_gamma                 90.516568
_cell_volume                      4458.7983719

loop_
_atom_site_label
_atom_site_type_symbol
_atom_type_description
_atom_site_fract_x
_atom_site_fract_y
_atom_site_fract_z
_atom_type_partial_charge
C1    C     C_R   0.138863 0.361707 0.999247 0.535219
C2    C     C_R   0.921783 0.223561 0.202129 -0.130510
C3    C     C_R   0.977371 0.277270 0.204479 0.232041
C4    C     C_R   0.861224 0.638503 0.999583 0.535095
C5    C     C_R   0.940365 0.304734 0.138737 0.298566
C6    C     C_2   0.720985 0.778382 0.940340 -0.156129
C7    C     C_2   0.688641 0.800956 0.996433 -0.123949
C8    C     C_2   0.769935 0.714875 0.931474 0.215991
C9    C     C_2   0.809306 0.697705 0.002829 -0.022353
C10   C     C_2   0.712308 0.277457 0.443850 -0.090950
C11   C     C_2   0.707182 0.193084 0.387850 0.250083
C12   C     C_R   0.559768 0.197979 0.859585 0.155232
C13   C     C_2   0.775437 0.336154 0.555543 -0.119092
C14   C     C_2   0.797481 0.305014 0.612839 -0.048140
C15   C     C_2   0.333734 0.276483 0.042625 -0.098616
C16   C     C_R   0.138722 0.636010 0.277122 0.499338
C17   C     C_2   0.305268 0.192703 0.011493 0.226928
C18   C     C_2   0.283076 0.337332 0.057485 0.239033
C19   C     C_2   0.193994 0.306450 0.991065 0.016234
C20   C     C_2   0.221301 0.769162 0.934668 -0.063670
C21   C     C_2   0.304771 0.821885 0.015397 0.290239
C22   C     C_2   0.164761 0.721470 0.941541 -0.060758
C23   C     C_R   0.654755 0.222591 0.930927 -0.035560
C24   C     C_2   0.194848 0.676961 0.983573 0.156894
C25   C     C_2   0.221435 0.772441 0.555532 -0.048719
C26   C     C_2   0.306923 0.822285 0.612725 0.304830
C27   C     C_2   0.165651 0.725269 0.444067 -0.049078
C28   C     C_R   0.860205 0.361507 0.723033 0.495295
C29   C     C_2   0.194785 0.678114 0.387469 0.304641
C30   C     C_R   0.640479 0.138402 0.277141 0.506734
C31   C     C_R   0.361498 0.863985 0.722923 0.490026
C32   C     C_R   0.638150 0.860997 0.999757 0.527106
C33   C     C_R   0.361256 0.138250 0.001367 0.503492
C34   C     C_R   0.712254 0.277087 0.933728 -0.029957
C35   C     C_R   0.360331 0.863008 0.002552 0.497805
C36   C     C_R   0.637934 0.139848 0.998031 0.579660
C37   C     C_R   0.139717 0.637063 0.997554 0.507061
C38   C     C_R   0.860723 0.360092 0.000600 0.580901
C39   C     C_R   0.675562 0.304939 0.867728 -0.123389
C40   C     C_R   0.584913 0.280441 0.800437 -0.137030
C41   C     C_R   0.527047 0.227409 0.795992 0.167791
C42   C     C_R   0.694557 0.195828 0.998714 0.029487
C43   C     C_R   0.789135 0.222511 0.067870 -0.006261
C44   C     C_R   0.845484 0.277474 0.069470 -0.038454
C45   C     C_R   0.805590 0.303802 0.001751 0.032282
C46   C     C_R   0.829304 0.195698 0.135907 0.222946
H1    H     H_    0.695617 0.773056 0.038242 0.106357
H2    H     H_    0.097939 0.724259 0.912790 0.123046
H3    H     H_    0.190899 0.766691 0.590696 0.094934
H4    H     H_    0.099123 0.728586 0.408413 0.095702
H5    H     H_    0.559308 0.303005 0.751180 0.115431
H6    H     H_    0.951196 0.202896 0.253053 0.098128
H7    H     H_    0.709108 0.805363 0.896322 0.156897
H8    H     H_    0.083700 0.278995 0.311352 0.330426
H9    H     H_    0.742670 0.692785 0.804463 0.325093
H10   H     H_    0.758996 0.099942 0.379955 0.344479
H11   H     H_    0.220712 0.100544 0.981739 0.348819
H12   H     H_    0.806771 0.729756 0.068589 0.055326
H13   H     H_    0.391931 0.435580 0.177639 0.325045
H14   H     H_    0.395733 0.885572 0.161753 0.339651
H15   H     H_    0.317319 0.685590 0.084876 0.281207
H16   H     H_    0.264880 0.593909 0.964510 0.218113
H17   H     H_    0.402508 0.881295 0.621835 0.339382
H18   H     H_    0.283404 0.623892 0.379677 0.349065
H19   H     H_    0.417714 0.169247 0.652144 0.233714
H20   H     H_    0.417187 0.260499 0.742512 0.227162
H21   H     H_    0.496378 0.174564 0.914848 0.235195
H22   H     H_    0.496233 0.080032 0.820892 0.235727
H23   H     H_    0.669708 0.305640 0.406767 0.114266
H24   H     H_    0.816760 0.130322 0.189113 0.314872
H25   H     H_    0.059311 0.372081 0.192565 0.374792
H26   H     H_    0.800921 0.406521 0.590904 0.151585
H27   H     H_    0.766792 0.236106 0.578852 0.177263
H28   H     H_    0.398114 0.303098 0.061463 0.099386
H29   H     H_    0.716456 0.346448 0.866865 0.112527
H30   H     H_    0.159408 0.238016 0.924981 0.129545
H31   H     H_    0.193641 0.760513 0.862234 0.100305
N1    N     N_3   0.278053 0.662230 0.007890 -0.575629
N2    N     N_3   0.433133 0.202625 0.725844 -0.575397
N3    N     N_3   0.492994 0.143784 0.847694 -0.595415
O1    O     O_3   0.000000 0.500000 0.000000 -0.464806
O2    O     O_R   0.325040 0.054120 0.939900 -0.542727
O3    O     O_R   0.444330 0.884140 0.060080 -0.542360
O4    O     O_R   0.054210 0.325030 0.939940 -0.538986
O5    O     O_R   0.615830 0.175840 0.060080 -0.519755
O6    O     O_R   0.324160 0.884140 0.939910 -0.563978
O7    O     O_R   0.615850 0.055700 0.939930 -0.521025
O8    O     O_R   0.614980 0.885710 0.939940 -0.523234
O9    O     O_R   0.445830 0.174930 0.060060 -0.565180
O10   O     O_R   0.614300 0.054120 0.229160 -0.547419
O11   O     O_R   0.325070 0.885060 0.770830 -0.560684
O12   O     O_R   0.054160 0.614240 0.229150 -0.553408
O13   O     O_R   0.885070 0.614240 0.060060 -0.562908
O14   O     O_R   0.174980 0.614900 0.229170 -0.531429
O15   O     O_R   0.885740 0.445830 0.770840 -0.538007
O16   O     O_R   0.175880 0.615810 0.060090 -0.537211
O17   O     O_R   0.884210 0.324110 0.939920 -0.514717
O18   O     O_R   0.055710 0.615810 0.939920 -0.556208
O19   O     O_R   0.884190 0.444260 0.060070 -0.518765
O20   O     O_3   0.068681 0.303843 0.270769 -0.698887
O21   O     O_3   0.776704 0.674073 0.849889 -0.654440
O22   O     O_3   0.768354 0.160202 0.433342 -0.716161
O23   O     O_R   0.885120 0.325030 0.770840 -0.541847
O24   O     O_3   0.227607 0.160705 0.996990 -0.715141
O25   O     O_3   0.327560 0.426146 0.136992 -0.658363
O26   O     O_3   0.335011 0.841286 0.110555 -0.687749
O27   O     O_3   0.341335 0.838043 0.568028 -0.646124
O28   O     O_3   0.275178 0.665308 0.432940 -0.643204
O29   O     O_3   0.778327 0.142105 0.137851 -0.681670
O30   O     O_3   0.996073 0.358191 0.141267 -0.682855
O31   O     O_R   0.175010 0.445830 0.060100 -0.474358
O32   O     O_R   0.885710 0.614900 0.939900 -0.467768
O33   O     O_3   0.500040 0.999960 0.000000 -0.446806
O34   O     O_R   0.614930 0.174930 0.229160 -0.543832
O35   O     O_R   0.445880 0.885710 0.770850 -0.548948
O36   O     O_R   0.614330 0.885060 0.060100 -0.534830
Zn1   Zn    Zn3+2 0.956610 0.542450 0.085830 0.960473
Zn2   Zn    Zn3+2 0.129220 0.543380 0.085850 0.993811
Zn3   Zn    Zn3+2 0.957530 0.543380 0.914160 0.964638
Zn4   Zn    Zn3+2 0.956640 0.370790 0.914170 0.974580
Zn5   Zn    Zn3+2 0.543440 0.957510 0.914170 0.970499
Zn6   Zn    Zn3+2 0.542510 0.956570 0.085840 0.962182
Zn7   Zn    Zn3+2 0.370820 0.956570 0.914150 0.937162
Zn8   Zn    Zn3+2 0.543410 0.129170 0.085830 0.957111

loop_
_geom_bond_atom_site_label_1
_geom_bond_atom_site_label_2
_ccdc_geom_bond_type
H22   N3    S    
C15   C18   S    
C22   H2    S    
H19   N2    S    
C27   C29   D    
C36   C42   S    
O23   Zn4   S    
C30   O10   A    
O18   Zn3   S    
C2    C46   A    
C1    O4    A    
H20   N2    S    
C12   C23   A    
H13   O25   S    
C23   C42   A    
O13   Zn1   S    
C20   H31   S    
C28   O15   A    
O35   Zn5   S    
O16   Zn2   S    
C19   H30   S    
C17   O24   S    
C18   C19   D    
C35   O6    A    
C5    O30   S    
C32   O8    A    
H25   O30   S    
O1    Zn1   S    
O5    Zn8   S    
C9    H12   S    
C38   C45   S    
C3    O20   S    
O33   Zn6   S    
C11   C30   S    
C8    C9    D    
O36   Zn6   S    
C29   O28   S    
C39   H29   S    
C8    O21   S    
C21   O26   S    
C27   H4    S    
O34   Zn8   S    
C4    O32   A    
C26   C31   S    
O11   Zn7   S    
C13   C14   D    
O10   Zn6   S    
H8    O20   S    
C17   C33   S    
C38   O17   A    
C31   O35   A    
C37   O18   A    
C43   C46   A    
H18   O28   S    
C36   O7    A    
C1    C19   S    
C34   C39   A    
C14   H27   S    
O1    Zn4   S    
C39   C40   A    
O7    Zn5   S    
C35   O3    A    
C38   O19   A    
C6    C8    S    
O15   Zn3   S    
C16   C29   S    
O1    Zn2   S    
C37   O16   A    
C7    H1    S    
O12   Zn1   S    
C12   C41   A    
H24   O29   S    
C33   O9    A    
O19   Zn1   S    
O33   Zn7   S    
H15   N1    S    
O4    Zn4   S    
C23   C34   A    
C24   C37   S    
C34   C45   A    
C32   O36   A    
C2    H6    S    
C24   N1    S    
C40   C41   A    
O9    Zn8   S    
C5    C44   A    
C20   C22   S    
C16   O12   A    
C31   O11   A    
O31   Zn2   S    
C43   C44   A    
C22   C24   D    
C42   C43   A    
C6    H7    S    
H17   O27   S    
O2    Zn7   S    
H14   O26   S    
C44   C45   A    
C30   O34   A    
C15   C17   D    
H11   O24   S    
H9    O21   S    
C7    C32   S    
H16   N1    S    
H21   N3    S    
O8    Zn5   S    
C3    C5    A    
C10   C13   S    
C26   O27   S    
C41   N2    S    
O32   Zn3   S    
C6    C7    D    
C21   C35   S    
C13   H26   S    
C36   O5    A    
C25   C27   S    
C40   H5    S    
O1    Zn3   S    
C16   O14   A    
O17   Zn4   S    
C2    C3    A    
C25   C26   D    
C18   O25   S    
H10   O22   S    
C1    O31   A    
O14   Zn2   S    
C28   O23   A    
O33   Zn8   S    
C12   N3    S    
C11   O22   S    
O3    Zn6   S    
C33   O2    A    
C25   H3    S    
C10   C11   D    
C4    O13   A    
C10   H23   S    
C15   H28   S    
O33   Zn5   S    
C20   C21   D    
C46   O29   S    
O6    Zn7   S    
C14   C28   S    
C4    C9    S    
