data_mof_unit_36791.cif
_audit_creation_date              2012-12-11T15:39:18-0500
_audit_creation_method            fapswitch 2.2
_symmetry_space_group_name_H-M    P1
_symmetry_Int_Tables_number       1
_space_group_crystal_system       triclinic
_cell_length_a                    14.352545
_cell_length_b                    14.779228
_cell_length_c                    33.191054
_cell_angle_alpha                 97.77429
_cell_angle_beta                  90.202343
_cell_angle_gamma                 118.948162
_cell_volume                      6084.82983176

loop_
_atom_site_label
_atom_site_type_symbol
_atom_type_description
_atom_site_fract_x
_atom_site_fract_y
_atom_site_fract_z
_atom_type_partial_charge
C1    C     C_R   0.616706 0.910144 0.436986 0.544932
C2    C     C_R   0.718792 0.382831 0.180630 0.068711
C3    C     C_R   0.756311 0.870055 0.639144 -0.107132
C4    C     C_R   0.670494 0.789355 0.655301 0.025707
C5    C     C_R   0.636161 0.860163 0.585003 0.011015
C6    C     C_R   0.052543 0.781603 0.063714 0.546508
C7    C     C_R   0.743069 0.485328 0.065740 0.549079
C8    C     C_R   0.743117 0.789591 0.066371 0.561783
C9    C     C_R   0.022690 0.732930 0.947685 0.531652
C10   C     C_R   0.712096 0.436983 0.949400 0.534952
C11   C     C_R   0.743572 0.716358 0.945933 0.566167
C12   C     C_R   0.811987 0.409166 0.160570 -0.068552
C13   C     C_R   0.818342 0.437006 0.121783 -0.118695
C14   C     C_R   0.697345 0.275228 0.235699 0.257295
C15   C     C_R   0.693426 0.267941 0.277245 -0.089195
C16   C     C_R   0.705116 0.352288 0.306012 -0.015031
C17   C     C_R   0.722890 0.445444 0.293536 -0.113024
C18   C     C_R   0.729730 0.454610 0.252415 -0.150875
C19   C     C_R   0.716839 0.370149 0.223438 0.003568
C20   C     C_R   0.604433 0.340488 0.367269 -0.107828
C21   C     C_R   0.594124 0.205349 0.456588 0.539320
C22   C     C_R   0.576451 0.303979 0.404379 -0.120006
C23   C     C_R   0.728886 0.274817 0.406249 -0.114412
C24   C     C_R   0.755675 0.309738 0.368997 -0.111968
C25   C     C_R   0.691265 0.338852 0.348720 0.027144
C26   C     C_R   0.635904 0.266547 0.423218 0.020480
C27   C     C_R   0.247798 0.879165 0.392859 0.012349
C28   C     C_R   0.235817 0.960626 0.380376 -0.119650
C29   C     C_R   0.214695 0.959747 0.339155 -0.102844
C30   C     C_R   0.204630 0.877289 0.309968 0.024848
C31   C     C_R   0.209669 0.792760 0.322305 -0.106822
C32   C     C_R   0.296161 0.892944 0.434245 0.544712
C33   C     C_R   0.231010 0.793506 0.363498 -0.111432
C34   C     C_R   0.200444 0.809299 0.162133 -0.091851
C35   C     C_R   0.169841 0.786480 0.120458 -0.113239
C36   C     C_R   0.097458 0.905318 0.129220 -0.114507
C37   C     C_R   0.128206 0.927998 0.171020 -0.079603
C38   C     C_R   0.175707 0.876656 0.187718 0.034751
C39   C     C_1   0.187652 0.882480 0.231151 0.019875
C40   C     C_1   0.195068 0.881626 0.267240 0.008931
C41   C     C_R   0.113423 0.830372 0.103900 0.013454
C42   C     C_R   0.635528 0.878136 0.395230 -0.023352
C43   C     C_R   0.613850 0.904880 0.551536 0.540500
C44   C     C_R   0.548524 0.802689 0.368240 -0.116414
C45   C     C_R   0.558627 0.790049 0.326244 0.220781
C46   C     C_R   0.657811 0.852680 0.311360 0.014071
C47   C     C_R   0.746414 0.922268 0.338362 -0.149269
C48   C     C_R   0.735455 0.935148 0.380089 -0.137817
C49   C     C_R   0.786981 0.919283 0.175340 0.255539
C50   C     C_R   0.800199 0.904713 0.133680 -0.105077
C51   C     C_R   0.618528 0.760635 0.121324 -0.133355
C52   C     C_R   0.604030 0.775771 0.162655 -0.123115
C53   C     C_R   0.688921 0.851911 0.189857 0.041511
C54   C     C_R   0.588854 0.198246 0.571201 0.544651
C55   C     C_1   0.677174 0.852602 0.232643 0.096151
C56   C     C_1   0.668546 0.852174 0.268522 0.086734
C57   C     C_R   0.717960 0.822484 0.106784 -0.014601
C58   C     C_R   0.617625 0.242514 0.615022 -0.035434
C59   C     C_R   0.542426 0.255229 0.638645 -0.095072
C60   C     C_R   0.552928 0.267907 0.681231 0.274773
C61   C     C_R   0.643005 0.272759 0.700678 0.019949
C62   C     C_R   0.722418 0.268443 0.677447 -0.160345
C63   C     C_R   0.709574 0.252642 0.634878 -0.128184
C64   C     C_R   0.757071 0.326399 0.847085 -0.119450
C65   C     C_R   0.285936 0.885310 0.547900 0.576132
C66   C     C_R   0.769191 0.360985 0.889030 -0.121882
C67   C     C_R   0.590380 0.338966 0.886236 -0.129923
C68   C     C_R   0.578438 0.304217 0.844311 -0.094260
C69   C     C_R   0.663187 0.301637 0.824506 0.037168
C70   C     C_1   0.658465 0.286908 0.780804 0.028726
C71   C     C_1   0.653200 0.279431 0.744230 0.056821
C72   C     C_R   0.687753 0.372231 0.908710 0.021288
C73   C     C_R   0.079653 0.762546 0.910991 0.018399
C74   C     C_R   0.123846 0.866248 0.903590 -0.130961
C75   C     C_R   0.161177 0.891582 0.865825 -0.119113
C76   C     C_R   0.731411 0.438824 0.103031 0.018173
C77   C     C_R   0.155051 0.813643 0.835102 0.062195
C78   C     C_R   0.115567 0.711025 0.843021 -0.046012
C79   C     C_R   0.078987 0.685729 0.880950 -0.111967
C80   C     C_R   0.251816 0.819775 0.771411 0.230609
C81   C     C_R   0.255112 0.826588 0.729796 -0.070431
C82   C     C_R   0.185467 0.851204 0.710112 0.005607
C83   C     C_R   0.114760 0.873378 0.732561 -0.097895
C84   C     C_R   0.109634 0.865359 0.773838 -0.148956
C85   C     C_R   0.175484 0.835797 0.793293 -0.004626
C86   C     C_R   0.188248 0.932470 0.648561 -0.075672
C87   C     C_R   0.636078 0.406180 0.122537 -0.111367
C88   C     C_R   0.200894 0.935860 0.606936 0.220986
C89   C     C_R   0.191149 0.765184 0.598836 0.174385
C90   C     C_R   0.179389 0.763689 0.640429 -0.114937
C91   C     C_R   0.185267 0.849993 0.665812 -0.069119
C92   C     C_R   0.218554 0.858994 0.583082 -0.027057
C93   C     C_R   0.727421 0.701952 0.901262 0.015711
C94   C     C_R   0.626641 0.643457 0.879547 -0.109706
C95   C     C_R   0.616917 0.644331 0.837505 -0.081079
C96   C     C_R   0.708009 0.702585 0.817093 0.031655
C97   C     C_R   0.808835 0.753075 0.838456 -0.119324
C98   C     C_R   0.630193 0.379095 0.161254 -0.078461
C99   C     C_R   0.818208 0.753484 0.880025 -0.125665
C100  C     C_R   0.757227 0.823951 0.766255 -0.091294
C101  C     C_R   0.749778 0.844886 0.727166 -0.095951
C102  C     C_R   0.684428 0.763817 0.695766 0.031361
C103  C     C_R   0.626966 0.660811 0.704414 -0.087429
C104  C     C_R   0.633886 0.639995 0.743878 -0.085866
C105  C     C_R   0.699248 0.721521 0.775061 0.032289
C106  C     C_R   0.568712 0.740462 0.634510 -0.099411
C107  C     C_R   0.551934 0.775124 0.599617 -0.113055
C108  C     C_R   0.739136 0.905725 0.604483 -0.108269
Cr1   Cr    Cr6+3 0.424820 0.846020 0.489780 1.101280
Cr2   Cr    Cr6+3 0.657880 0.078580 0.505700 1.042192
Cr3   Cr    Cr6+3 0.417280 0.075360 0.504550 1.118871
Cr4   Cr    Cr6+3 0.903360 0.812540 0.006510 1.022610
Cr5   Cr    Cr6+3 0.914630 0.587050 0.006280 1.021389
Cr6   Cr    Cr6+3 0.673560 0.582680 0.008540 1.026944
H1    H     H_    0.567593 0.406226 0.108758 0.141717
H2    H     H_    0.504878 0.299025 0.416937 0.141726
H3    H     H_    0.880944 0.412627 0.175660 0.143382
H4    H     H_    0.776939 0.247433 0.420215 0.145520
H5    H     H_    0.183645 0.728803 0.101730 0.138144
H6    H     H_    0.237638 0.769509 0.174738 0.147601
H7    H     H_    0.201409 0.728242 0.299904 0.170512
H8    H     H_    0.240295 0.729926 0.371986 0.171159
H9    H     H_    0.248567 0.027919 0.402138 0.142936
H10   H     H_    0.109535 0.980888 0.190589 0.205818
H11   H     H_    0.053810 0.940058 0.117449 0.147994
H12   H     H_    0.892697 0.461838 0.107415 0.134725
H13   H     H_    0.877575 0.952048 0.122829 0.153415
H14   H     H_    0.822988 0.970265 0.326961 0.169004
H15   H     H_    0.803693 0.993779 0.400203 0.153323
H16   H     H_    0.470904 0.758706 0.379534 0.170136
H17   H     H_    0.528388 0.723990 0.173763 0.171885
H18   H     H_    0.554057 0.696794 0.101179 0.139908
H19   H     H_    0.845210 0.386009 0.905388 0.133349
H20   H     H_    0.823203 0.308681 0.354904 0.134954
H21   H     H_    0.768854 0.242970 0.617583 0.158057
H22   H     H_    0.471639 0.248277 0.623883 0.223262
H23   H     H_    0.505476 0.285330 0.826985 0.165912
H24   H     H_    0.526250 0.346813 0.900380 0.136152
H25   H     H_    0.043933 0.605032 0.885820 0.126520
H26   H     H_    0.166000 0.695052 0.653226 0.170146
H27   H     H_    0.311667 0.812035 0.712482 0.156416
H28   H     H_    0.190671 0.970894 0.859934 0.118039
H29   H     H_    0.060470 0.892484 0.717832 0.125165
H30   H     H_    0.555592 0.601904 0.895235 0.138635
H31   H     H_    0.896830 0.797797 0.895937 0.133234
H32   H     H_    0.836240 0.907743 0.654005 0.129131
H33   H     H_    0.792565 0.925403 0.721952 0.111317
H34   H     H_    0.806572 0.888687 0.789985 0.115199
H35   H     H_    0.538210 0.604438 0.821485 0.153123
H36   H     H_    0.576425 0.596523 0.680763 0.136917
H37   H     H_    0.471707 0.738438 0.585243 0.183976
H38   H     H_    0.880387 0.796309 0.823274 0.101845
H39   H     H_    0.557980 0.358853 0.176772 0.138428
H40   H     H_    0.805796 0.970531 0.593572 0.152179
O1    O     O_R   0.318160 0.824460 0.443680 -0.502572
O2    O     O_R   0.645130 0.163230 0.552140 -0.497684
O3    O     O_R   0.498360 0.178430 0.555780 -0.475390
O4    O     O_R   0.328690 0.978040 0.538950 -0.438374
O5    O     O_3   0.499990 0.999990 0.500010 -0.273388
O6    O     O_R   0.828710 0.851830 0.052170 -0.509085
O7    O     O_R   0.005980 0.823990 0.047210 -0.499580
O8    O     O_R   0.031900 0.688850 0.050170 -0.511117
O9    O     O_R   0.830940 0.518420 0.048680 -0.496553
O10   O     O_R   0.668160 0.499860 0.053480 -0.514326
O11   O     O_R   0.689170 0.693840 0.050110 -0.490889
O12   O     O_R   0.525040 0.857250 0.449830 -0.503665
O13   O     O_R   0.803860 0.812940 0.962540 -0.496906
O14   O     O_R   0.982950 0.787950 0.964120 -0.531205
O15   O     O_R   0.007050 0.649970 0.960540 -0.507336
O16   O     O_R   0.807910 0.482370 0.965590 -0.503658
O17   O     O_R   0.643310 0.460980 0.963840 -0.521973
O18   O     O_R   0.666140 0.657800 0.967020 -0.494114
O19   O     O_3   0.830520 0.660760 0.007110 -0.270068
O20   O     O_R   0.684760 0.998800 0.456360 -0.509488
O21   O     O_R   0.647540 0.166310 0.470260 -0.502519
O22   O     O_R   0.500960 0.181750 0.467450 -0.512154
O23   O     O_R   0.331100 0.981120 0.457080 -0.493866
O24   O     O_R   0.315560 0.821140 0.532010 -0.435484
O25   O     O_R   0.522630 0.854180 0.531710 -0.493048
O26   O     O_R   0.682160 0.995480 0.544690 -0.511274
H41   H     H_    0.210342 0.025265 0.329925 0.138288
S1    S     S_3+6 0.897630 0.013812 0.208968 0.006844
O27   O     O_2   0.864606 0.077343 0.238597 -0.271561
O28   O     O_2   0.937933 0.958106 0.232554 -0.289314
O29   O     O_3   0.996699 0.094246 0.182976 -0.523170
H42   H     H_    0.968800 0.135751 0.171509 0.367789
S2    S     S_3+6 0.444901 0.701783 0.292713 0.001962
O30   O     O_2   0.469389 0.625965 0.266451 -0.242369
O31   O     O_2   0.350003 0.641891 0.315970 -0.291413
O32   O     O_3   0.415847 0.768727 0.262431 -0.508550
H43   H     H_    0.413296 0.825332 0.281293 0.334023
H44   H     H_    0.823174 0.324839 0.831959 0.114966
H45   H     H_    0.792257 0.272834 0.692217 0.131054
S3    S     S_3+6 0.447259 0.266736 0.708968 -0.008960
O33   O     O_2   0.390297 0.164995 0.725364 -0.295123
O34   O     O_2   0.491208 0.355697 0.744001 -0.321775
O35   O     O_3   0.360382 0.277885 0.678638 -0.498596
H46   H     H_    0.298389 0.263587 0.694932 0.379253
H47   H     H_    0.125228 0.926766 0.926407 0.127574
H48   H     H_    0.677698 0.195527 0.287341 0.134622
S4    S     S_3+6 0.344715 0.792598 0.794830 0.011554
O36   O     O_2   0.295342 0.676415 0.793714 -0.257263
O37   O     O_2   0.444034 0.829676 0.772171 -0.276623
O38   O     O_3   0.377929 0.851897 0.843665 -0.483586
H49   H     H_    0.408192 0.927433 0.842305 0.341421
H50   H     H_    0.051056 0.878253 0.790334 0.108438
H51   H     H_    0.183217 0.995268 0.667639 0.192675
S5    S     S_3+6 0.182953 0.030325 0.585581 0.029449
O39   O     O_2   0.288295 0.128529 0.586963 -0.249817
O40   O     O_2   0.136715 0.988442 0.542096 -0.281001
O41   O     O_3   0.098939 0.058507 0.612698 -0.542864
H52   H     H_    0.093000 0.111600 0.599258 0.375176
H53   H     H_    0.107601 0.649457 0.819154 0.150093
S6    S     S_3+6 0.163449 0.646071 0.567815 0.040752
O42   O     O_2   0.263844 0.638219 0.565573 -0.246807
O43   O     O_2   0.081223 0.554735 0.585961 -0.274877
O44   O     O_3   0.117154 0.640823 0.520437 -0.470780
H54   H     H_    0.053765 0.650192 0.524291 0.337311
S7    S     S_3+6 0.673566 0.164131 0.200056 0.033775
O45   O     O_2   0.601804 0.151620 0.164211 -0.235714
O46   O     O_2   0.777932 0.178692 0.185097 -0.269023
O47   O     O_3   0.614444 0.054610 0.221495 -0.501887
H55   H     H_    0.672292 0.055697 0.238210 0.357773
H56   H     H_    0.588974 0.560548 0.750023 0.171684
H57   H     H_    0.500678 0.679117 0.646355 0.141228
H58   H     H_    0.731013 0.510502 0.315572 0.138525
H59   H     H_    0.743402 0.527185 0.242973 0.137218
H60   H     H_    0.553993 0.362688 0.351651 0.133640

loop_
_geom_bond_atom_site_label_1
_geom_bond_atom_site_label_2
_ccdc_geom_bond_type
C65   C92   S    
S3    O34   D    
C21   C26   S    
C78   C79   A    
O32   H43   S    
C73   C74   A    
C9    O15   A    
C95   C96   A    
C55   C56   T    
C2    C12   A    
C23   H4    S    
C81   C82   A    
C68   H23   S    
C28   H9    S    
C60   S3    S    
C47   H14   S    
Cr2   O21   S    
C27   C33   A    
Cr6   O18   S    
Cr4   O7    S    
C43   O25   A    
C100  C105  A    
C29   C30   A    
C29   H41   S    
Cr6   O11   S    
C106  C107  A    
C28   C29   A    
Cr3   O4    S    
C67   C72   A    
C86   C91   A    
C54   O2    A    
C38   C39   S    
C86   C88   A    
S3    O35   S    
Cr5   O9    S    
C20   C25   A    
C44   H16   S    
C15   C16   A    
Cr4   O14   S    
C59   H22   S    
C58   C63   A    
C18   C19   A    
C34   C35   A    
S4    O36   D    
C23   C26   A    
C67   H24   S    
Cr3   O5    S    
S1    O27   D    
S2    O32   S    
C103  C104  A    
C103  H36   S    
C97   C99   A    
Cr5   O8    S    
C35   H5    S    
Cr1   O24   S    
Cr6   O19   S    
C66   C72   A    
C6    O8    A    
C16   C17   A    
C21   O21   A    
C6    C41   S    
C4    C102  S    
C47   C48   A    
C23   C24   A    
C6    O7    A    
C70   C71   T    
C51   C57   A    
C93   C99   A    
C87   H1    S    
C61   C62   A    
C87   C98   A    
C107  H37   S    
C61   C71   S    
C22   H2    S    
S3    O33   D    
C5    C43   S    
C98   H39   S    
C77   C85   S    
C11   O18   A    
C11   O13   A    
S4    O37   D    
C36   C41   A    
O35   H46   S    
C42   C44   A    
C88   S5    S    
Cr1   O1    S    
C99   H31   S    
C78   H53   S    
C104  C105  A    
C64   H44   S    
S1    O28   D    
C53   C55   S    
C34   H6    S    
Cr6   O17   S    
C43   O26   A    
C1    O20   A    
C36   H11   S    
C74   C75   A    
C51   C52   A    
C101  C102  A    
C88   C92   A    
C32   O23   A    
C24   C25   A    
C31   H7    S    
C79   H25   S    
C18   H59   S    
S5    O39   D    
S7    O45   D    
C11   C93   S    
S6    O42   D    
C68   C69   A    
Cr5   O15   S    
C10   O17   A    
C77   C78   A    
Cr4   O13   S    
C4    C106  A    
Cr1   O12   S    
C82   C91   S    
Cr3   O22   S    
C60   C61   A    
S1    O29   S    
C63   H21   S    
C37   C38   A    
C67   C68   A    
O41   H52   S    
C80   C85   A    
C75   H28   S    
C8    C57   S    
S7    O46   D    
C32   O1    A    
C17   H58   S    
Cr1   O25   S    
Cr6   O10   S    
C83   C84   A    
C13   C76   A    
Cr2   O26   S    
C21   O22   A    
C96   C97   A    
C62   C63   A    
C31   C33   A    
C17   C18   A    
C73   C79   A    
C106  H57   S    
C30   C40   S    
C94   C95   A    
C93   C94   A    
C42   C48   A    
C64   C69   A    
C84   C85   A    
C89   C92   A    
C75   C77   A    
C76   C87   A    
Cr5   O16   S    
C35   C41   A    
C95   H35   S    
C13   H12   S    
C20   C22   A    
C49   C50   A    
C22   C26   A    
C33   H8    S    
C54   C58   S    
S4    O38   S    
C14   S7    S    
C58   C59   A    
C10   C72   S    
C90   C91   A    
C3    C4    A    
Cr1   O5    S    
C39   C40   T    
C52   C53   A    
C96   C105  S    
Cr5   O19   S    
C5    C107  A    
C66   H19   S    
C24   H20   S    
C16   C25   S    
C80   S4    S    
C46   C47   A    
C36   C37   A    
Cr4   O6    S    
C2    C19   S    
C34   C38   A    
C52   H17   S    
C14   C19   A    
C9    C73   S    
C9    O14   A    
C45   S2    S    
C44   C45   A    
C80   C81   A    
S6    O44   S    
C86   H51   S    
C45   C46   A    
C90   H26   S    
C51   H18   S    
C7    C76   S    
C50   H13   S    
C3    C108  A    
C10   O16   A    
C7    O10   A    
C20   H60   S    
C74   H47   S    
C94   H30   S    
O44   H54   S    
S2    O30   D    
C54   O3    A    
C83   H29   S    
C15   H48   S    
C50   C57   A    
C101  H33   S    
O29   H42   S    
C30   C31   A    
Cr2   O20   S    
C7    O9    A    
C1    O12   A    
C100  H34   S    
S5    O41   S    
C49   C53   A    
C81   H27   S    
C100  C101  A    
C97   H38   S    
Cr4   O19   S    
S6    O43   D    
Cr3   O3    S    
C102  C103  A    
C48   H15   S    
C69   C70   S    
S2    O31   D    
Cr2   O2    S    
C8    O11   A    
C27   C32   S    
C49   S1    S    
C84   H50   S    
C1    C42   S    
C59   C60   A    
C108  H40   S    
O38   H49   S    
C2    C98   A    
C3    H32   S    
S5    O40   D    
C82   C83   A    
C65   O24   A    
C37   H10   S    
C46   C56   S    
C27   C28   A    
Cr3   O23   S    
C14   C15   A    
C12   H3    S    
C62   H45   S    
C12   C13   A    
C89   C90   A    
O47   H55   S    
C104  H56   S    
Cr2   O5    S    
C65   O4    A    
C64   C66   A    
C89   S6    S    
S7    O47   S    
C5    C108  A    
C8    O6    A    
