data_mof_unit_35224.cif
_audit_creation_date              2012-10-26T20:07:12-0400
_audit_creation_method            fapswitch 2.2
_symmetry_space_group_name_H-M    P1
_symmetry_Int_Tables_number       1
_space_group_crystal_system       triclinic
_cell_length_a                    10.789754
_cell_length_b                    9.533623
_cell_length_c                    27.736494
_cell_angle_alpha                 89.975393
_cell_angle_beta                  89.531813
_cell_angle_gamma                 89.195845
_cell_volume                      2852.75045726

loop_
_atom_site_label
_atom_site_type_symbol
_atom_type_description
_atom_site_fract_x
_atom_site_fract_y
_atom_site_fract_z
_atom_type_partial_charge
C1    C     C_R   0.262784 0.501203 0.506679 0.551671
C2    C     C_R   0.395123 0.494904 0.873690 0.027257
C3    C     C_R   0.499573 0.500763 0.354245 0.003693
C4    C     C_R   0.502905 0.500428 0.645658 -0.003216
C5    C     C_R   0.391388 0.527492 0.974886 0.013839
C6    C     C_R   0.615410 0.507453 0.024837 0.013270
C7    C     C_R   0.619416 0.533862 0.974496 0.027830
C8    C     C_R   0.390517 0.554559 0.025176 0.027790
C9    C     C_R   0.505802 0.527461 0.949352 0.012916
C10   C     C_R   0.502156 0.527962 0.050350 0.013091
C11   C     C_R   0.283825 0.490344 0.949841 -0.147481
C12   C     C_R   0.738307 0.498241 0.504603 0.547375
C13   C     C_R   0.717517 0.451576 0.049978 -0.146888
C14   C     C_R   0.285097 0.476282 0.899896 -0.121208
C15   C     C_R   0.714583 0.438197 0.099948 -0.119790
C16   C     C_R   0.499996 0.500082 0.407371 0.564584
C17   C     C_R   0.501184 0.500016 0.592600 0.521891
C18   C     C_R   0.285394 0.607443 0.051648 0.000827
C19   C     C_R   0.729556 0.567181 0.947932 0.001950
C20   C     C_R   0.069961 0.373498 0.529461 0.012162
C21   C     C_R   0.929383 0.617769 0.533449 0.004983
C22   C     C_R   0.942300 0.366163 0.519786 -0.002868
C23   C     C_R   0.500673 0.519844 0.101200 -0.035845
C24   C     C_R   0.059779 0.628327 0.529239 0.003735
C25   C     C_R   0.872320 0.493974 0.517126 -0.010435
C26   C     C_R   0.129447 0.502512 0.520377 -0.002188
C27   C     C_R   0.553313 0.073519 0.462948 0.000908
C28   C     C_R   0.448331 0.926516 0.537371 -0.007369
C29   C     C_R   0.448578 0.074972 0.537408 -0.014963
C30   C     C_R   0.553123 0.924922 0.462906 -0.000395
C31   C     C_R   0.393045 0.546699 0.177683 0.397217
C32   C     C_R   0.615493 0.526915 0.821961 0.396059
C33   C     C_R   0.604416 0.469344 0.176623 0.397942
C34   C     C_R   0.506197 0.519086 0.898512 -0.035953
C35   C     C_R   0.397555 0.487176 0.823178 0.396871
C36   C     C_R   0.505761 0.375633 0.277936 -0.054932
C37   C     C_R   0.491258 0.375932 0.721957 -0.057796
C38   C     C_R   0.506180 0.374220 0.328253 -0.143515
C39   C     C_R   0.490138 0.374733 0.671656 -0.155037
C40   C     C_R   0.492422 0.628474 0.328981 -0.144377
C41   C     C_R   0.517527 0.626966 0.670842 -0.152822
C42   C     C_R   0.491701 0.629541 0.278741 -0.057535
C43   C     C_R   0.519300 0.627724 0.721071 -0.061006
C44   C     C_R   0.498376 0.503285 0.253033 0.242436
C45   C     C_R   0.392131 0.554246 0.127099 0.008473
C46   C     C_R   0.505983 0.502400 0.746775 0.245824
C47   C     C_3   0.180075 0.692933 0.029102 -0.273550
C48   C     C_3   0.227936 0.820550 0.001684 -0.421221
C49   C     C_3   0.844174 0.632032 0.970354 -0.274072
C50   C     C_3   0.812456 0.766640 0.997996 -0.422262
C51   C     C_3   0.136196 0.254924 0.556967 -0.266672
C52   C     C_3   0.191542 0.307379 0.604144 -0.419129
C53   C     C_3   0.854110 0.721529 0.563836 -0.243029
C54   C     C_3   0.818647 0.853271 0.535940 -0.401567
C55   C     C_3   0.882173 0.223463 0.516626 -0.247556
C56   C     C_R   0.617478 0.533963 0.872545 0.008221
C57   C     C_3   0.806738 0.193692 0.562773 -0.390984
C58   C     C_3   0.121904 0.768880 0.538025 -0.246945
C59   C     C_3   0.131744 0.855005 0.491604 -0.403901
C60   C     C_R   0.286981 0.601176 0.102257 -0.107891
C61   C     C_R   0.727017 0.561539 0.897318 -0.108852
C62   C     C_R   0.607779 0.476317 0.126097 0.027021
Cu1   Cu    Cu3+1 0.500000 0.640660 0.500000 0.907920
Cu2   Cu    Cu3+1 0.500000 0.359340 0.500000 0.910377
H1    H     H_    0.487204 0.727645 0.347973 0.124364
H2    H     H_    0.810830 0.582995 0.876987 0.160649
H3    H     H_    0.478658 0.275750 0.653190 0.115670
H4    H     H_    0.511889 0.274271 0.346732 0.122740
H5    H     H_    0.480943 0.278711 0.741688 0.125052
H6    H     H_    0.510847 0.277617 0.258259 0.129964
H7    H     H_    0.199761 0.449607 0.881984 0.162997
H8    H     H_    0.795938 0.396636 0.117924 0.165157
H9    H     H_    0.200196 0.462184 0.968737 0.111384
H10   H     H_    0.797009 0.408556 0.031162 0.114498
H11   H     H_    0.286249 0.885315 0.025572 0.160632
H12   H     H_    0.527977 0.725334 0.651785 0.118506
H13   H     H_    0.283066 0.788358 0.969537 0.168301
H14   H     H_    0.148218 0.885692 0.989288 0.135308
H15   H     H_    0.120010 0.630297 0.005803 0.130150
H16   H     H_    0.115899 0.733733 0.057539 0.138334
H17   H     H_    0.761844 0.841625 0.974343 0.160359
H18   H     H_    0.754878 0.744451 0.030327 0.168794
H19   H     H_    0.899238 0.816470 0.010118 0.132787
H20   H     H_    0.896527 0.558496 0.993395 0.127075
H21   H     H_    0.912148 0.661137 0.941828 0.136742
H22   H     H_    0.261796 0.388617 0.597531 0.166703
H23   H     H_    0.596824 0.128441 0.433346 0.108044
H24   H     H_    0.117166 0.352555 0.627589 0.162927
H25   H     H_    0.236484 0.218632 0.623551 0.122883
H26   H     H_    0.073007 0.170931 0.568440 0.132632
H27   H     H_    0.206768 0.201296 0.534243 0.167157
H28   H     H_    0.807898 0.832941 0.496813 0.175603
H29   H     H_    0.729875 0.895559 0.550565 0.147613
H30   H     H_    0.891266 0.931901 0.540464 0.123030
H31   H     H_    0.768795 0.671892 0.578147 0.161732
H32   H     H_    0.904390 0.749043 0.597208 0.123631
H33   H     H_    0.772251 0.291441 0.580417 0.173608
H34   H     H_    0.407133 0.871837 0.567485 0.101176
H35   H     H_    0.724555 0.130938 0.553895 0.153307
H36   H     H_    0.864121 0.136064 0.589459 0.119916
H37   H     H_    0.825777 0.214656 0.483607 0.166238
H38   H     H_    0.951500 0.138828 0.510051 0.107597
H39   H     H_    0.179903 0.954669 0.499101 0.123378
H40   H     H_    0.184093 0.797315 0.463161 0.191489
H41   H     H_    0.038294 0.880382 0.477430 0.136736
H42   H     H_    0.072431 0.833184 0.565300 0.120702
H43   H     H_    0.213381 0.754543 0.555152 0.157582
H44   H     H_    0.407927 0.130895 0.567600 0.106295
H45   H     H_    0.596520 0.868711 0.433277 0.111010
H46   H     H_    0.486420 0.728599 0.259693 0.128365
H47   H     H_    0.530447 0.725814 0.740117 0.123504
H48   H     H_    0.206451 0.637469 0.122520 0.161406
N1    N     N_R   0.498313 0.505289 0.201313 -0.397450
N2    N     N_R   0.506548 0.504252 0.798450 -0.397603
N3    N     N_R   0.500000 0.852070 0.500000 -0.224312
N4    N     N_R   0.500000 0.147930 0.500000 -0.226246
O1    O     O_R   0.319640 0.618740 0.500000 -0.503092
O2    O     O_2   0.721469 0.542236 0.796435 -0.498615
O3    O     O_2   0.291775 0.464646 0.798914 -0.499182
O4    O     O_2   0.706709 0.428924 0.200930 -0.495507
O5    O     O_R   0.680360 0.381260 0.500000 -0.503866
O6    O     O_R   0.680360 0.618740 0.500000 -0.496683
O7    O     O_R   0.319640 0.381260 0.500000 -0.492847
O8    O     O_R   0.500020 0.618770 0.430260 -0.501213
O9    O     O_R   0.499980 0.381230 0.569740 -0.519199
O10   O     O_R   0.499980 0.618770 0.569740 -0.519772
O11   O     O_R   0.500020 0.381230 0.430260 -0.498618
O12   O     O_2   0.289549 0.579966 0.203087 -0.494407

loop_
_geom_bond_atom_site_label_1
_geom_bond_atom_site_label_2
_ccdc_geom_bond_type
C2    C35   A    
C45   C60   A    
C34   C56   A    
C23   C45   A    
C37   H5    S    
C53   H31   S    
C14   H7    S    
C35   O3    S    
C47   H15   S    
C18   C47   S    
Cu1   O8    S    
C53   C54   S    
C5    C9    A    
C15   H8    S    
C55   H38   S    
C59   H41   S    
C43   H47   S    
Cu2   N4    S    
C59   H40   S    
C47   H16   S    
C49   H20   S    
C28   C29   A    
C24   C26   A    
C5    C11   A    
C20   C51   S    
C51   H26   S    
Cu1   O1    S    
C11   C14   A    
C17   O10   A    
C4    C41   A    
Cu2   O5    S    
C57   H35   S    
C35   N2    A    
C58   H43   S    
C48   H14   S    
C54   H29   S    
C51   H27   S    
C61   H2    S    
C23   C62   A    
C12   O5    A    
C3    C38   A    
C33   C62   A    
C22   C25   A    
C29   H44   S    
Cu1   N3    S    
C27   N4    A    
C2    C34   A    
C40   C42   A    
C27   C30   A    
C41   C43   A    
C48   H11   S    
C52   H25   S    
C42   C44   A    
C31   O12   S    
C43   C46   A    
C36   H6    S    
C50   H19   S    
C30   N3    A    
C46   N2    S    
C30   H45   S    
C51   C52   S    
C49   H21   S    
C52   H24   S    
C11   H9    S    
C32   O2    S    
C58   C59   S    
C57   H36   S    
C8    C18   A    
C58   H42   S    
C48   H13   S    
C1    O7    A    
C54   H28   S    
C60   H48   S    
C28   N3    A    
C19   C49   S    
C47   C48   S    
C4    C39   A    
Cu2   O11   S    
C57   H33   S    
C1    O1    A    
C27   H23   S    
C6    C7    A    
C4    C17   S    
C18   C60   A    
C29   N4    A    
C38   H4    S    
C44   N1    S    
C49   C50   S    
C7    C19   A    
C40   H1    S    
C55   C57   S    
C13   C15   A    
C9    C34   A    
C36   C44   A    
Cu1   O6    S    
C50   H18   S    
C28   H34   S    
C7    C9    A    
C21   C25   A    
C39   H3    S    
C8    C10   A    
C20   C22   A    
C3    C40   A    
C5    C8    A    
C22   C55   S    
C10   C23   A    
Cu2   O7    S    
C55   H37   S    
C33   N1    A    
C53   H32   S    
C12   C25   S    
C59   H39   S    
C52   H22   S    
C42   H46   S    
C37   C39   A    
C41   H12   S    
C21   C53   S    
C17   O9    A    
C1    C26   S    
C20   C26   A    
C19   C61   A    
C36   C38   A    
C15   C62   A    
C32   C56   A    
C16   O8    A    
C2    C14   A    
C16   O11   A    
C54   H30   S    
Cu1   O10   S    
C6    C10   A    
Cu1   Cu2   S    
C12   O6    A    
C13   H10   S    
C33   O4    S    
C24   C58   S    
Cu2   O9    S    
C31   C45   A    
C21   C24   A    
C56   C61   A    
C32   N2    A    
C37   C46   A    
C31   N1    A    
C3    C16   S    
C50   H17   S    
C6    C13   A    
