data_mof_unit_22792.cif
_audit_creation_date              2012-12-10T19:04:45-0500
_audit_creation_method            fapswitch 2.2
_symmetry_space_group_name_H-M    P1
_symmetry_Int_Tables_number       1
_space_group_crystal_system       triclinic
_cell_length_a                    15.856976
_cell_length_b                    10.816831
_cell_length_c                    9.550525
_cell_angle_alpha                 89.796075
_cell_angle_beta                  90.176248
_cell_angle_gamma                 90.239091
_cell_volume                      1638.09502762

loop_
_atom_site_label
_atom_site_type_symbol
_atom_type_description
_atom_site_fract_x
_atom_site_fract_y
_atom_site_fract_z
_atom_type_partial_charge
C1    C     C_R   0.501159 0.262427 0.500299 0.790422
C2    C     C_3   0.082588 0.498422 0.498291 0.201069
C3    C     C_3   0.972333 0.614083 0.474779 -0.163340
C4    C     C_3   0.917326 0.498912 0.498834 0.197756
C5    C     C_3   0.027808 0.538416 0.373437 -0.155390
C6    C     C_3   0.971244 0.423217 0.397401 -0.166520
C7    C     C_1   0.174347 0.498680 0.498646 -0.082981
C8    C     C_1   0.825592 0.499512 0.499702 -0.069015
C9    C     C_R   0.490630 0.063351 0.624033 0.136713
C10   C     C_R   0.508213 0.129428 0.501893 -0.092605
C11   C     C_R   0.536554 0.065409 0.383414 -0.219988
C12   C     C_R   0.339795 0.499741 0.499771 0.825364
C13   C     C_R   0.536663 0.936443 0.383512 -0.221418
C14   C     C_R   0.507559 0.871052 0.501286 -0.096220
C15   C     C_R   0.489840 0.936162 0.623477 0.093835
C16   C     C_3   0.414446 0.929482 0.716624 -0.465422
C17   C     C_3   0.415466 0.069850 0.717543 -0.473418
C18   C     C_R   0.564376 0.554367 0.073718 0.235510
C19   C     C_R   0.440995 0.435774 0.074363 -0.074782
C20   C     C_R   0.440885 0.435953 0.925506 -0.078812
C21   C     C_R   0.565159 0.552907 0.926243 0.221958
C22   C     C_3   0.593065 0.684961 0.919529 -0.245366
C23   C     C_R   0.501030 0.737707 0.499952 0.797732
C24   C     C_3   0.590182 0.686923 0.078897 -0.548335
C25   C     C_R   0.660200 0.500311 0.500189 0.827335
C26   C     C_3   0.972126 0.458834 0.623576 -0.156214
C27   C     C_3   0.027604 0.383176 0.522188 -0.159489
C28   C     C_1   0.249978 0.499154 0.499193 -0.190307
C29   C     C_1   0.749984 0.500014 0.500317 -0.168076
C30   C     C_3   0.028617 0.574055 0.599637 -0.170004
Cu1   Cu    Cu3+1 0.500000 0.499980 0.640670 0.943238
Cu2   Cu    Cu3+1 0.500000 0.500020 0.359330 0.939566
H1    H     H_    0.051641 0.288371 0.541633 0.124704
H2    H     H_    0.429352 0.888374 0.820509 0.192317
H3    H     H_    0.359719 0.111744 0.665059 0.189652
H4    H     H_    0.431433 0.109371 0.821649 0.196139
H5    H     H_    0.392367 0.385520 0.130026 0.139788
H6    H     H_    0.392151 0.385885 0.869775 0.138971
H7    H     H_    0.544427 0.745789 0.871872 0.168461
H8    H     H_    0.652082 0.700301 0.131833 0.195246
H9    H     H_    0.538679 0.746345 0.118448 0.202282
H10   H     H_    0.947996 0.425758 0.726113 0.122086
H11   H     H_    0.946312 0.361353 0.314362 0.125660
H12   H     H_    0.051991 0.571091 0.270739 0.126160
H13   H     H_    0.948313 0.708820 0.454891 0.122957
H14   H     H_    0.053406 0.635929 0.682781 0.122478
H15   H     H_    0.555831 0.114450 0.289673 0.163964
H16   H     H_    0.556914 0.888737 0.290546 0.155637
H17   H     H_    0.358208 0.889538 0.663278 0.196426
N1    N     N_R   0.500530 0.500930 0.147930 -0.179548
N2    N     N_R   0.500530 0.500890 0.852020 -0.192492
O1    O     O_R   0.500000 0.319640 0.618810 -0.579762
O2    O     O_R   0.500010 0.319680 0.381230 -0.586523
O3    O     O_R   0.379070 0.499970 0.618770 -0.580266
O4    O     O_R   0.379080 0.500010 0.381190 -0.577070
O5    O     O_R   0.499990 0.680320 0.618770 -0.585907
O6    O     O_R   0.500000 0.680360 0.381190 -0.580416
O7    O     O_R   0.620920 0.499990 0.618810 -0.569024
O8    O     O_R   0.620930 0.500030 0.381230 -0.580496
C31   C     C_R   0.680586 0.702426 0.858741 0.191618
C32   C     C_R   0.694507 0.796580 0.759665 -0.138914
C33   C     C_R   0.775007 0.816973 0.704851 -0.157992
C34   C     C_R   0.842578 0.744135 0.749020 -0.106940
C35   C     C_R   0.829577 0.649472 0.846427 -0.140497
C36   C     C_R   0.749069 0.628174 0.900900 -0.137573
H18   H     H_    0.643340 0.855334 0.725919 0.122079
H19   H     H_    0.785139 0.890098 0.629039 0.128455
H20   H     H_    0.905057 0.761396 0.708102 0.121054
H21   H     H_    0.882018 0.593054 0.880466 0.119791
H22   H     H_    0.740465 0.554757 0.976890 0.114699

loop_
_geom_bond_atom_site_label_1
_geom_bond_atom_site_label_2
_ccdc_geom_bond_type
C18   C21   A    
C11   H15   S    
C2    C7    S    
Cu1   O1    S    
C4    C8    S    
C23   O5    A    
C27   H1    S    
C18   N1    A    
C26   C27   S    
C33   H19   S    
C12   C28   S    
C18   C24   S    
C8    C29   T    
Cu1   O7    S    
C20   N2    A    
C22   C31   S    
C5    C6    S    
C15   C16   S    
C1    O2    A    
C19   H5    S    
C16   H2    S    
C32   H18   S    
Cu1   Cu2   S    
C16   C17   S    
C2    C27   S    
C17   H4    S    
Cu1   O5    S    
C9    C10   A    
Cu2   O4    S    
C13   C14   A    
C24   H9    S    
Cu2   O6    S    
C25   C29   S    
C16   H17   S    
C4    C6    S    
C3    H13   S    
C7    C28   T    
C31   C32   A    
C14   C23   S    
C3    C30   S    
C33   C34   A    
C20   H6    S    
C6    C27   S    
C35   H21   S    
Cu2   N1    S    
C9    C17   S    
C5    H12   S    
C31   C36   A    
C26   C30   S    
C6    H11   S    
C22   C24   S    
C2    C5    S    
C25   O7    A    
C3    C4    S    
Cu2   O2    S    
C21   N2    A    
C26   H10   S    
C23   O6    A    
C34   H20   S    
C30   H14   S    
C1    C10   S    
Cu1   N2    S    
C3    C5    S    
C13   H16   S    
C4    C26   S    
C25   O8    A    
C2    C30   S    
C35   C36   A    
C19   C20   A    
C9    C15   A    
C11   C13   A    
C19   N1    A    
C22   H7    S    
C24   H8    S    
Cu1   O3    S    
C32   C33   A    
C1    O1    A    
C12   O4    A    
C10   C11   A    
C34   C35   A    
C14   C15   A    
C17   H3    S    
Cu2   O8    S    
C21   C22   S    
C12   O3    A    
C36   H22   S    
