data_mof_unit_61629.cif
_audit_creation_date              2012-10-26T20:44:34-0400
_audit_creation_method            fapswitch 2.2
_symmetry_space_group_name_H-M    P1
_symmetry_Int_Tables_number       1
_space_group_crystal_system       triclinic
_cell_length_a                    13.120909
_cell_length_b                    14.437299
_cell_length_c                    16.215827
_cell_angle_alpha                 90.000221
_cell_angle_beta                  87.435616
_cell_angle_gamma                 90.000629
_cell_volume                      3068.69584677

loop_
_atom_site_label
_atom_site_type_symbol
_atom_type_description
_atom_site_fract_x
_atom_site_fract_y
_atom_site_fract_z
_atom_type_partial_charge
C1    C     C_R   0.500000 0.671373 0.500000 0.556204
C2    C     C_1   0.173572 0.499994 0.500012 0.154352
C3    C     C_1   0.949314 0.499990 0.500002 -0.021819
C4    C     C_1   0.050685 0.499990 0.500005 -0.021186
C5    C     C_R   0.488774 0.500655 0.656029 0.590676
C6    C     C_R   0.511267 0.500802 0.344012 0.591733
C7    C     C_R   0.484819 0.482491 0.746971 -0.016477
C8    C     C_R   0.515304 0.482012 0.253293 -0.014774
C9    C     C_R   0.574916 0.478345 0.791752 0.231280
C10   C     C_R   0.425750 0.480648 0.208025 0.224179
C11   C     C_R   0.571783 0.438695 0.872592 0.191346
C12   C     C_R   0.500000 0.328634 0.500001 0.555799
C13   C     C_R   0.426400 0.434886 0.129853 0.194363
C14   C     C_R   0.480962 0.397991 0.904741 0.077690
C15   C     C_R   0.518341 0.398395 0.095176 0.078070
C16   C     C_R   0.389684 0.411705 0.863971 0.241281
C17   C     C_R   0.610126 0.413864 0.134875 0.239306
C18   C     C_R   0.392095 0.455362 0.786179 -0.183337
C19   C     C_R   0.607757 0.454749 0.213845 -0.183249
C20   C     C_2   0.487864 0.316017 0.959818 0.358134
C21   C     C_2   0.513249 0.316233 0.040095 0.359045
C22   C     C_1   0.500001 0.772934 0.499999 -0.019217
C23   C     C_1   0.499999 0.227081 0.500001 -0.012954
C24   C     C_1   0.500000 0.857727 0.499999 -0.010977
C25   C     C_1   0.500000 0.142291 0.500001 -0.003222
C26   C     C_1   0.500000 0.957615 0.499999 0.034290
C27   C     C_1   0.500000 0.042406 0.500000 0.037539
C28   C     C_1   0.826427 0.499994 0.499993 0.152400
Cl1   Cl    Cl    0.530731 0.209322 0.091006 -0.432596
Cl2   Cl    Cl    0.472289 0.208793 0.908967 -0.430723
Cu1   Cu    Cu3+1 0.407320 0.500000 0.500010 1.034320
Cu2   Cu    Cu3+1 0.592680 0.500000 0.499990 1.031761
H1    H     H_    0.677491 0.458868 0.246999 0.132921
H2    H     H_    0.322462 0.460128 0.752956 0.132921
H3    H     H_    0.722527 0.471723 0.775106 0.344662
H4    H     H_    0.295440 0.541937 0.197849 0.339442
H5    H     H_    0.243485 0.389396 0.862159 0.336321
H6    H     H_    0.757046 0.394949 0.134599 0.335822
H7    H     H_    0.279601 0.414699 0.131641 0.355394
H8    H     H_    0.701576 0.486302 0.905899 0.347408
N1    N     N_1   0.731930 0.500000 0.499980 -0.150749
N2    N     N_1   0.268070 0.500000 0.500020 -0.150196
O1    O     O_R   0.421720 0.623950 0.500010 -0.470532
O2    O     O_3   0.338496 0.520751 0.242802 -0.678327
O3    O     O_3   0.300337 0.374848 0.898309 -0.605695
O4    O     O_3   0.699883 0.379514 0.099041 -0.606036
O5    O     O_3   0.337570 0.415699 0.090444 -0.660437
O6    O     O_3   0.657591 0.431903 0.918405 -0.661058
O7    O     O_R   0.578280 0.376050 0.499990 -0.472756
O8    O     O_R   0.578280 0.623950 0.499990 -0.470066
O9    O     O_R   0.421720 0.376050 0.500010 -0.472528
O10   O     O_R   0.412660 0.500000 0.613600 -0.502481
O11   O     O_R   0.587340 0.500000 0.386400 -0.502849
O12   O     O_R   0.569190 0.500000 0.613590 -0.415494
O13   O     O_R   0.430810 0.500000 0.386410 -0.414169
O14   O     O_3   0.665321 0.507347 0.753084 -0.674758

loop_
_geom_bond_atom_site_label_1
_geom_bond_atom_site_label_2
_ccdc_geom_bond_type
C16   O3    S    
C2    C4    S    
Cu2   N1    S    
C5    C7    S    
C5    O10   A    
C15   C17   A    
Cu1   N2    S    
H5    O3    S    
C25   C27   S    
C9    C11   A    
C1    O8    A    
C28   N1    T    
Cu1   Cu2   S    
Cu1   O10   S    
C7    C18   A    
Cu1   O13   S    
C16   C18   A    
C13   C15   A    
C12   O7    A    
C11   O6    S    
C1    C22   S    
C9    O14   S    
C20   Cl2   S    
C17   O4    S    
C18   H2    S    
C12   C23   S    
Cu2   O8    S    
C26   C27   T    
Cu1   O1    S    
C2    N2    T    
C6    O13   A    
Cu2   O12   S    
C3    C28   S    
C17   C19   A    
C24   C26   S    
C14   C16   A    
C23   C25   T    
C11   C14   A    
C22   C24   T    
Cu2   O7    S    
H6    O4    S    
C8    C19   A    
H4    O2    S    
C6    O11   A    
C10   O2    S    
C3    C4    T    
C14   C20   S    
C5    O12   A    
C15   C21   S    
C12   O9    A    
C20   C21   D    
C7    C9    A    
C19   H1    S    
C13   O5    S    
H8    O6    S    
C6    C8    S    
Cu2   O11   S    
H3    O14   S    
H7    O5    S    
C21   Cl1   S    
C1    O1    A    
C8    C10   A    
Cu1   O9    S    
C10   C13   A    
