data_mof_unit_9134.cif
_audit_creation_date              2012-10-26T19:20:40-0400
_audit_creation_method            fapswitch 2.2
_symmetry_space_group_name_H-M    P1
_symmetry_Int_Tables_number       1
_space_group_crystal_system       triclinic
_cell_length_a                    10.952341
_cell_length_b                    11.027728
_cell_length_c                    9.779287
_cell_angle_alpha                 111.0829
_cell_angle_beta                  98.323863
_cell_angle_gamma                 91.17613
_cell_volume                      1087.08593324

loop_
_atom_site_label
_atom_site_type_symbol
_atom_type_description
_atom_site_fract_x
_atom_site_fract_y
_atom_site_fract_z
_atom_type_partial_charge
C1    C     C_R   0.488812 0.253955 0.440624 0.568928
C2    C     C_R   0.737272 0.498876 0.498541 0.571139
C3    C     C_R   0.142584 0.527707 0.769997 0.197183
C4    C     C_R   0.841913 0.345014 0.227743 0.196812
C5    C     C_R   0.114274 0.621935 0.902411 0.159330
C6    C     C_R   0.875044 0.334921 0.090019 0.159255
C7    C     C_R   0.005046 0.685586 0.893588 -0.125891
C8    C     C_R   0.987961 0.396930 0.090055 -0.132211
C9    C     C_R   0.923282 0.648614 0.759981 -0.146970
C10   C     C_R   0.071061 0.454607 0.221756 -0.143495
C11   C     C_R   0.954628 0.556455 0.629087 -0.040569
C12   C     C_R   0.508165 0.746071 0.559487 0.553926
C13   C     C_R   0.040636 0.459985 0.359953 -0.041812
C14   C     C_R   0.076599 0.522782 0.631385 0.001599
C15   C     C_R   0.915932 0.430154 0.361867 -0.001296
C16   C     C_R   0.869994 0.494532 0.496059 -0.023812
C17   C     C_R   0.125914 0.492759 0.496858 -0.034516
C18   C     C_3   0.176079 0.293780 0.678819 -0.307676
C19   C     C_3   0.781875 0.160469 0.287430 -0.320085
C20   C     C_3   0.172579 0.751864 0.173727 -0.327156
C21   C     C_3   0.798784 0.293982 0.824461 -0.291649
C22   C     C_2   0.479729 0.114634 0.407051 -0.145135
C23   C     C_2   0.509863 0.885370 0.593288 -0.135287
C24   C     C_2   0.491102 0.069459 0.516978 -0.177173
C25   C     C_2   0.488399 0.930351 0.483481 -0.172482
C26   C     C_2   0.512791 0.509032 0.082150 -0.028462
C27   C     C_2   0.503093 0.478707 0.917174 -0.022777
C28   C     C_R   0.261411 0.498208 0.499899 0.555137
Cu1   Cu    Cu3+1 0.521920 0.521810 0.644910 0.928922
Cu2   Cu    Cu3+1 0.478080 0.478190 0.355090 0.928331
H1    H     H_    0.015935 0.395178 0.987748 0.134595
H2    H     H_    0.081743 0.267822 0.693750 0.122366
H3    H     H_    0.675373 0.227707 0.139267 0.269544
H4    H     H_    0.699888 0.099293 0.286354 0.137074
H5    H     H_    0.831706 0.204302 0.403478 0.146753
H6    H     H_    0.843133 0.097014 0.215577 0.125016
H7    H     H_    0.288231 0.643226 0.031239 0.261304
H8    H     H_    0.243461 0.755640 0.268978 0.156010
H9    H     H_    0.080657 0.731949 0.199898 0.150628
H10   H     H_    0.178138 0.847536 0.160214 0.141066
H11   H     H_    0.782741 0.163022 0.933889 0.240677
H12   H     H_    0.978792 0.759259 0.989953 0.108206
H13   H     H_    0.715917 0.246513 0.740275 0.159094
H14   H     H_    0.798209 0.401082 0.853349 0.184089
H15   H     H_    0.882205 0.257880 0.775092 0.120373
H16   H     H_    0.470503 0.864423 0.367850 0.150112
H17   H     H_    0.504791 0.135282 0.632584 0.148232
H18   H     H_    0.528340 0.951612 0.708709 0.097099
H19   H     H_    0.465284 0.048456 0.291602 0.095306
H20   H     H_    0.603393 0.638827 0.937950 0.194733
H21   H     H_    0.385026 0.369648 0.063105 0.193406
H22   H     H_    0.838403 0.696896 0.759723 0.143996
H23   H     H_    0.154426 0.500545 0.210671 0.189733
H24   H     H_    0.450096 0.390258 0.841173 0.164593
H25   H     H_    0.579188 0.587094 0.157686 0.149559
H26   H     H_    0.245946 0.428145 0.885333 0.236684
H27   H     H_    0.239851 0.224383 0.703069 0.125207
H28   H     H_    0.175968 0.282491 0.561588 0.156785
N1    N     N_2   0.445130 0.445420 0.137360 -0.360071
N2    N     N_2   0.554870 0.554580 0.862640 -0.355837
N3    N     N_2   0.218421 0.425564 0.779099 -0.495244
N4    N     N_2   0.742717 0.261296 0.232389 -0.473991
N5    N     N_2   0.195715 0.648856 0.040363 -0.539681
N6    N     N_2   0.794810 0.261400 0.954691 -0.540324
O1    O     O_R   0.511700 0.332340 0.577400 -0.501978
O2    O     O_R   0.488300 0.667660 0.422600 -0.504283
O3    O     O_R   0.474680 0.295500 0.332650 -0.483963
O4    O     O_R   0.525320 0.704500 0.667350 -0.501473
O5    O     O_R   0.338170 0.518410 0.622370 -0.451634
O6    O     O_R   0.661830 0.481590 0.377630 -0.467022
O7    O     O_R   0.301150 0.481570 0.377630 -0.515991
O8    O     O_R   0.698850 0.518430 0.622370 -0.512860

loop_
_geom_bond_atom_site_label_1
_geom_bond_atom_site_label_2
_ccdc_geom_bond_type
C1    O1    A    
C5    C7    A    
C18   N3    S    
Cu1   Cu2   S    
Cu1   O4    S    
C20   H8    S    
C11   C16   A    
Cu1   O1    S    
C18   H27   S    
Cu1   O5    S    
Cu2   O3    S    
C14   C17   A    
Cu1   N2    S    
C13   C17   A    
H7    N5    S    
C9    C11   A    
Cu1   O8    S    
H20   N2    S    
C26   H25   S    
C24   H17   S    
C20   N5    S    
C23   C25   D    
Cu2   O7    S    
C27   H24   S    
C1    C22   S    
C19   H5    S    
Cu2   N1    S    
C12   O4    A    
C12   C23   S    
C26   C27   S    
Cu2   O2    S    
C3    C14   A    
C4    C15   A    
C22   H19   S    
C2    O8    A    
C10   C13   A    
C4    C6    A    
C1    O3    A    
C18   H2    S    
C9    H22   S    
C21   H15   S    
C27   N2    D    
C3    N3    S    
C13   C15   A    
C20   H10   S    
C11   C14   A    
C22   C24   D    
C28   O7    A    
H21   N1    S    
C19   N4    S    
C15   C16   A    
C21   H14   S    
C4    N4    S    
C2    C16   S    
C24   C25   S    
C5    N5    S    
C8    C10   A    
C26   N1    D    
C7    H12   S    
C6    N6    S    
C7    C9    A    
C20   H9    S    
H26   N3    S    
C10   H23   S    
C21   N6    S    
C6    C8    A    
C23   H18   S    
H11   N6    S    
Cu2   O6    S    
C19   H6    S    
C2    O6    A    
C17   C28   S    
C12   O2    A    
C25   H16   S    
C18   H28   S    
C21   H13   S    
C8    H1    S    
C28   O5    A    
H3    N4    S    
C3    C5    A    
C19   H4    S    
