data_mof_unit_29327.cif
_audit_creation_date              2012-12-11T16:24:23-0500
_audit_creation_method            fapswitch 2.2
_symmetry_space_group_name_H-M    P1
_symmetry_Int_Tables_number       1
_space_group_crystal_system       triclinic
_cell_length_a                    14.755018
_cell_length_b                    14.764529
_cell_length_c                    33.256767
_cell_angle_alpha                 96.042275
_cell_angle_beta                  96.188471
_cell_angle_gamma                 61.210869
_cell_volume                      6300.67397695

loop_
_atom_site_label
_atom_site_type_symbol
_atom_type_description
_atom_site_fract_x
_atom_site_fract_y
_atom_site_fract_z
_atom_type_partial_charge
C1    C     C_R   0.390932 0.699709 0.446151 0.544801
C2    C     C_1   0.314027 0.339460 0.229173 -0.015354
C3    C     C_1   0.319351 0.343600 0.265527 -0.015454
C4    C     C_R   0.405812 0.386315 0.434023 0.538572
C5    C     C_R   0.291167 0.294254 0.101822 0.019523
C6    C     C_R   0.756671 0.373103 0.410210 0.021724
C7    C     C_R   0.789902 0.434851 0.393651 -0.130344
C8    C     C_R   0.819287 0.414045 0.353951 -0.119361
C9    C     C_R   0.816221 0.330993 0.330179 0.035546
C10   C     C_R   0.792611 0.263437 0.347983 -0.120949
C11   C     C_R   0.762966 0.284382 0.387733 -0.131798
C12   C     C_R   0.329522 0.347229 0.308833 0.041741
C13   C     C_R   0.834712 0.311811 0.204752 0.347125
C14   C     C_R   0.827505 0.321500 0.286289 0.347239
C15   C     C_R   0.835197 0.390349 0.142194 -0.119548
C16   C     C_R   0.700799 0.409968 0.447541 0.545601
C17   C     C_R   0.865275 0.379159 0.102979 -0.130166
C18   C     C_R   0.909003 0.197952 0.099120 -0.131231
C19   C     C_R   0.878826 0.209187 0.138437 -0.120110
C20   C     C_R   0.846445 0.304322 0.160960 0.034311
C21   C     C_R   0.907174 0.281732 0.081867 0.021654
C22   C     C_R   0.370699 0.755089 0.409218 0.020690
C23   C     C_R   0.411315 0.264571 0.328517 -0.108357
C24   C     C_R   0.276576 0.784898 0.386010 -0.130890
C25   C     C_R   0.266274 0.813271 0.346512 -0.119920
C26   C     C_R   0.349792 0.812606 0.329590 0.035097
C27   C     C_R   0.440323 0.792530 0.354092 -0.120593
C28   C     C_R   0.393325 0.701645 0.561181 0.539649
C29   C     C_R   0.450728 0.763932 0.393642 -0.133116
C30   C     C_R   0.343177 0.829320 0.204488 0.348084
C31   C     C_R   0.345665 0.823032 0.285813 0.348103
C32   C     C_R   0.258179 0.832372 0.135383 -0.119492
C33   C     C_R   0.238536 0.862758 0.095792 -0.130481
C34   C     C_R   0.431375 0.273803 0.370261 -0.126059
C35   C     C_R   0.381707 0.901539 0.104854 -0.131622
C36   C     C_R   0.401414 0.871035 0.144506 -0.120815
C37   C     C_R   0.336546 0.841056 0.160697 0.035307
C38   C     C_R   0.296855 0.902466 0.080873 0.021764
C39   C     C_R   0.369654 0.368722 0.584743 0.014688
C40   C     C_R   0.406968 0.388514 0.548870 0.550326
C41   C     C_R   0.288233 0.452009 0.604823 -0.180487
C42   C     C_R   0.268901 0.443912 0.643975 -0.141768
C43   C     C_R   0.331144 0.352681 0.663910 -0.012377
C44   C     C_R   0.405773 0.266193 0.642591 -0.096522
C45   C     C_R   0.393761 0.252702 0.165910 -0.108161
C46   C     C_R   0.423466 0.272398 0.602801 0.263291
C47   C     C_R   0.319147 0.349310 0.788777 0.346092
C48   C     C_R   0.324453 0.350033 0.707567 0.348996
C49   C     C_R   0.219584 0.405008 0.850932 -0.122023
C50   C     C_R   0.208212 0.384978 0.889614 -0.131852
C51   C     C_R   0.386535 0.248530 0.892959 -0.130095
C52   C     C_R   0.701333 0.413601 0.562682 0.542658
C53   C     C_R   0.397808 0.268407 0.854347 -0.121108
C54   C     C_R   0.313004 0.343415 0.832235 0.034553
C55   C     C_R   0.290174 0.303161 0.910092 0.022076
C56   C     C_R   0.384837 0.234456 0.124053 -0.124616
C57   C     C_R   0.754140 0.380495 0.602914 0.016786
C58   C     C_R   0.778482 0.447508 0.629500 -0.126747
C59   C     C_R   0.806725 0.427015 0.670301 -0.110971
C60   C     C_R   0.811430 0.339286 0.684892 0.038874
C61   C     C_R   0.793639 0.268908 0.658238 -0.108177
C62   C     C_R   0.765435 0.289139 0.617426 -0.120970
C63   C     C_R   0.886015 0.212749 0.822816 -0.110708
C64   C     C_R   0.369914 0.366261 0.392617 0.019516
C65   C     C_R   0.913653 0.201431 0.864215 -0.127525
C66   C     C_R   0.871559 0.382337 0.873462 -0.126044
C67   C     C_R   0.209452 0.377508 0.121852 -0.125447
C68   C     C_R   0.843787 0.393447 0.832121 -0.110989
C69   C     C_R   0.853927 0.307997 0.806607 0.041594
C70   C     C_1   0.838683 0.316697 0.763582 -0.021675
C71   C     C_1   0.827151 0.325653 0.727602 -0.022020
C72   C     C_R   0.910162 0.285305 0.889709 0.019664
C73   C     C_R   0.375584 0.756375 0.601708 0.013907
C74   C     C_R   0.280727 0.790222 0.619000 -0.126668
C75   C     C_R   0.271072 0.820385 0.660167 -0.111210
C76   C     C_R   0.283266 0.446000 0.372919 -0.125869
C77   C     C_R   0.355752 0.817523 0.684458 0.041447
C78   C     C_R   0.218581 0.395445 0.163747 -0.107935
C79   C     C_R   0.448290 0.790615 0.667072 -0.112186
C80   C     C_R   0.458141 0.760559 0.625828 -0.135121
C81   C     C_R   0.396722 0.885638 0.832640 -0.111224
C82   C     C_R   0.377098 0.912201 0.873531 -0.126062
C83   C     C_R   0.227252 0.883822 0.862359 -0.126603
C84   C     C_R   0.247165 0.857176 0.821516 -0.110806
C85   C     C_R   0.330157 0.860828 0.806424 0.040351
C86   C     C_1   0.342488 0.845640 0.763646 -0.023039
C87   C     C_1   0.349682 0.833866 0.727575 -0.023092
C88   C     C_R   0.263515 0.436573 0.331147 -0.108696
C89   C     C_R   0.309545 0.331000 0.185859 0.041548
C90   C     C_R   0.290124 0.914824 0.888538 0.019481
C91   C     C_R   0.963415 0.264236 0.045514 0.545996
C92   C     C_R   0.272707 0.259453 0.060034 0.544154
C93   C     C_R   0.259229 0.959609 0.043766 0.545843
C94   C     C_R   0.962596 0.267633 0.930728 0.542561
C95   C     C_R   0.270925 0.264083 0.945396 0.545391
C96   C     C_R   0.256059 0.965186 0.928905 0.542932
C97   C     C_3   0.458533 0.135544 0.556485 0.019824
C98   C     C_3   0.448302 0.053837 0.577706 -0.278458
C99   C     C_3   0.413367 0.989380 0.547679 -0.474032
Cr1   Cr    Cr6+3 0.576280 0.580550 0.506370 1.007342
Cr2   Cr    Cr6+3 0.346780 0.572400 0.496520 1.008369
Cr3   Cr    Cr6+3 0.576960 0.347070 0.497150 1.026394
Cr4   Cr    Cr6+3 0.087320 0.083240 0.984860 1.012994
Cr5   Cr    Cr6+3 0.087720 0.316210 0.996740 1.012975
Cr6   Cr    Cr6+3 0.317350 0.090340 0.995890 1.012777
H1    H     H_    0.449122 0.169889 0.109522 0.129541
H2    H     H_    0.523943 0.742228 0.410973 0.128201
H3    H     H_    0.173485 0.861274 0.077808 0.130119
H4    H     H_    0.464625 0.202761 0.182913 0.117952
H5    H     H_    0.194652 0.830549 0.328618 0.136405
H6    H     H_    0.505514 0.792746 0.342032 0.135340
H7    H     H_    0.208231 0.807430 0.146757 0.135211
H8    H     H_    0.428545 0.931041 0.094041 0.129907
H9    H     H_    0.463312 0.877190 0.163142 0.134715
H10   H     H_    0.243930 0.526184 0.591499 0.141913
H11   H     H_    0.133153 0.428841 0.902197 0.129954
H12   H     H_    0.738540 0.234875 0.399836 0.128827
H13   H     H_    0.209746 0.511433 0.659493 0.144163
H14   H     H_    0.453027 0.194093 0.657117 0.142494
H15   H     H_    0.462550 0.194983 0.311353 0.117451
H16   H     H_    0.153204 0.464191 0.834777 0.132108
H17   H     H_    0.451537 0.185955 0.908277 0.129804
H18   H     H_    0.471494 0.221153 0.841040 0.133124
H19   H     H_    0.943628 0.125570 0.875716 0.127838
H20   H     H_    0.893898 0.146220 0.803235 0.111554
H21   H     H_    0.797392 0.200639 0.669296 0.118260
H22   H     H_    0.747080 0.236040 0.597791 0.144137
H23   H     H_    0.861587 0.445455 0.090190 0.130388
H24   H     H_    0.770184 0.518609 0.619352 0.127240
H25   H     H_    0.818646 0.467588 0.819797 0.110974
H26   H     H_    0.867980 0.448353 0.892260 0.127190
H27   H     H_    0.498533 0.211040 0.384540 0.127560
H28   H     H_    0.820661 0.481794 0.690779 0.113011
H29   H     H_    0.426829 0.935990 0.892826 0.128301
H30   H     H_    0.461340 0.888372 0.821194 0.112699
H31   H     H_    0.514187 0.788428 0.685689 0.110922
H32   H     H_    0.532235 0.734826 0.613453 0.126082
H33   H     H_    0.215699 0.788067 0.601268 0.127599
H34   H     H_    0.839292 0.466251 0.341291 0.134783
H35   H     H_    0.195417 0.837699 0.801393 0.113532
H36   H     H_    0.159597 0.885282 0.872893 0.127473
H37   H     H_    0.199011 0.841457 0.673399 0.110806
H38   H     H_    0.234516 0.518194 0.389266 0.128650
H39   H     H_    0.153174 0.456458 0.179060 0.117972
H40   H     H_    0.136272 0.424840 0.105611 0.130102
H41   H     H_    0.199855 0.500785 0.316042 0.116736
H42   H     H_    0.787091 0.503044 0.410424 0.129802
H43   H     H_    0.512499 0.095776 0.531933 0.159189
H44   H     H_    0.382504 0.189588 0.541389 0.112602
H45   H     H_    0.790795 0.198078 0.330527 0.134183
H46   H     H_    0.524286 0.001585 0.592945 0.174454
H47   H     H_    0.390707 0.092484 0.601079 0.158500
H48   H     H_    0.336837 0.039932 0.532424 0.150852
H49   H     H_    0.406113 0.931612 0.564042 0.156410
H50   H     H_    0.470976 0.947503 0.524494 0.145705
H51   H     H_    0.808312 0.465272 0.158507 0.137149
H52   H     H_    0.940445 0.121995 0.083426 0.131423
H53   H     H_    0.887107 0.141804 0.151969 0.136877
H54   H     H_    0.213048 0.780076 0.397382 0.130181
N1    N     N_R   0.828433 0.395687 0.227903 -0.229723
N2    N     N_R   0.422396 0.829315 0.269180 -0.230760
N3    N     N_R   0.420795 0.833119 0.229291 -0.230440
N4    N     N_R   0.241850 0.426402 0.767480 -0.236745
N5    N     N_R   0.244834 0.427145 0.727664 -0.232686
N6    N     N_R   0.401597 0.273126 0.728897 -0.234760
N7    N     N_R   0.398837 0.272622 0.768660 -0.234370
N8    N     N_R   0.824559 0.400583 0.267823 -0.229211
N9    N     N_R   0.833527 0.237529 0.263171 -0.230477
N10   N     N_R   0.837822 0.232446 0.223172 -0.230214
N11   N     N_R   0.266789 0.822712 0.221164 -0.229895
N12   N     N_R   0.268205 0.819258 0.260984 -0.229527
O1    O     O_R   0.679450 0.499830 0.463150 -0.519594
O2    O     O_R   0.340240 0.172500 0.045430 -0.519521
O3    O     O_R   0.309670 0.000990 0.032050 -0.501865
O4    O     O_R   0.480650 0.664000 0.464630 -0.502540
O5    O     O_R   0.168330 0.982130 0.939200 -0.520283
O6    O     O_R   0.000140 0.178170 0.944610 -0.502143
O7    O     O_R   0.983010 0.336750 0.948660 -0.519748
O8    O     O_R   0.181800 0.312190 0.959860 -0.502029
O9    O     O_R   0.338500 0.175680 0.956950 -0.519754
O10   O     O_R   0.308050 0.003930 0.950020 -0.501552
O11   O     O_3   0.164130 0.163270 0.992500 -0.236236
O12   O     O_R   0.356040 0.477400 0.534170 -0.513503
O13   O     O_R   0.323930 0.675950 0.455370 -0.519396
O14   O     O_R   0.354700 0.475360 0.451930 -0.502569
O15   O     O_R   0.494470 0.320860 0.448390 -0.524730
O16   O     O_R   0.662580 0.357570 0.460050 -0.502899
O17   O     O_R   0.680900 0.502040 0.551870 -0.520562
O18   O     O_R   0.481990 0.666040 0.546870 -0.503810
O19   O     O_R   0.325370 0.678160 0.544080 -0.518335
O20   O     O_3   0.501873 0.186695 0.583909 -0.556713
O21   O     O_R   0.495910 0.323070 0.537100 -0.467505
O22   O     O_R   0.663920 0.359620 0.542290 -0.498314
O23   O     O_3   0.500010 0.500010 0.500010 -0.237134
O24   O     O_R   0.170070 0.978950 0.027680 -0.519417
O25   O     O_R   0.001760 0.175230 0.026640 -0.501305
O26   O     O_R   0.984760 0.333570 0.037150 -0.519568
O27   O     O_R   0.183410 0.309240 0.041890 -0.501521

loop_
_geom_bond_atom_site_label_1
_geom_bond_atom_site_label_2
_ccdc_geom_bond_type
C66   C68   A    
C63   C65   A    
C82   C90   A    
N6    N7    A    
C22   C29   A    
Cr1   O1    S    
C18   C21   A    
C41   C42   A    
C5    C56   A    
Cr5   O11   S    
N4    N5    A    
C32   H7    S    
C96   O10   A    
C5    C67   A    
C36   H9    S    
C28   O18   A    
C31   N2    A    
C97   C98   S    
C24   H54   S    
C7    C8    A    
C39   C41   A    
C98   H47   S    
C53   C54   A    
C79   H31   S    
C74   H33   S    
C12   C23   A    
C26   C27   A    
Cr3   O15   S    
C8    H34   S    
C36   C37   A    
Cr1   O17   S    
C94   O7    A    
C62   H22   S    
C45   H4    S    
C65   H19   S    
Cr5   O8    S    
C27   C29   A    
N11   N12   A    
C58   H24   S    
C80   H32   S    
Cr4   O11   S    
C99   H49   S    
C93   O3    A    
C18   C19   A    
Cr5   O26   S    
N1    N8    A    
C4    O15   A    
C30   N11   A    
C3    C12   S    
Cr5   O7    S    
C48   N6    A    
C63   C69   A    
C45   C56   A    
C8    C9    A    
C99   H50   S    
C67   H40   S    
Cr3   O21   S    
C61   H21   S    
Cr6   O11   S    
C45   C89   A    
C9    C10   A    
C76   C88   A    
C13   N1    A    
C50   H11   S    
C61   C62   A    
Cr2   O12   S    
C40   O12   A    
C72   C94   S    
C13   N10   A    
C27   H6    S    
C59   C60   A    
Cr6   O2    S    
C84   H35   S    
C93   O24   A    
C67   C78   A    
Cr4   O24   S    
C41   H10   S    
Cr2   O14   S    
C28   C73   S    
Cr3   O23   S    
C1    O13   A    
C44   C46   A    
C81   H30   S    
C7    H42   S    
C98   H46   S    
C77   C79   A    
C78   C89   A    
C15   C20   A    
C66   C72   A    
C92   O27   A    
C74   C75   A    
C12   C88   A    
C6    C11   A    
C57   C62   A    
C35   C38   A    
C84   C85   A    
C55   C95   S    
Cr2   O19   S    
C53   H18   S    
C23   H15   S    
C83   H36   S    
C47   N7    A    
C86   C87   T    
C68   C69   A    
Cr5   O27   S    
C60   C71   S    
C25   C26   A    
C85   C86   S    
C59   H28   S    
C81   C82   A    
C30   C37   S    
C60   C61   A    
Cr4   O6    S    
C94   O6    A    
C91   O26   A    
C4    O14   A    
C82   H29   S    
C2    C89   S    
C9    C14   S    
C75   H37   S    
C78   H39   S    
Cr3   O16   S    
C16   O1    A    
C83   C84   A    
C40   O21   A    
C97   O20   S    
C23   C34   A    
C49   H16   S    
Cr1   O4    S    
C34   C64   A    
C64   C76   A    
C46   O20   S    
C32   C37   A    
C24   C25   A    
C68   H25   S    
C75   C77   A    
C56   H1    S    
C15   H51   S    
C63   H20   S    
Cr2   O13   S    
C25   H5    S    
C47   C54   S    
C33   H3    S    
C95   O8    A    
N9    N10   A    
C98   C99   S    
Cr6   O3    S    
C39   C46   A    
Cr1   O18   S    
C97   H43   S    
C22   C24   A    
Cr4   O25   S    
C30   N3    A    
Cr6   O9    S    
C14   N9    A    
C52   C57   S    
C11   H12   S    
Cr3   O22   S    
C39   C40   S    
C70   C71   T    
Cr2   O23   S    
C66   H26   S    
C21   C91   S    
C15   C17   A    
C83   C90   A    
Cr6   O10   S    
C1    O4    A    
C73   C74   A    
C97   H44   S    
C96   O5    A    
C13   C20   S    
C19   H53   S    
C26   C31   S    
C42   H13   S    
C52   O22   A    
C33   C38   A    
C16   O16   A    
C28   O19   A    
C17   H23   S    
C90   C96   S    
C6    C7    A    
C48   N5    A    
Cr1   O23   S    
C92   O2    A    
C65   C72   A    
C4    C64   S    
C50   C55   A    
C44   H14   S    
C43   C48   S    
C32   C33   A    
C19   C20   A    
C2    C3    T    
C58   C59   A    
C47   N4    A    
C18   H52   S    
N2    N3    A    
C10   H45   S    
C91   O25   A    
C57   C58   A    
C31   N12   A    
C43   C44   A    
C99   H48   S    
C38   C93   S    
Cr4   O5    S    
C73   C80   A    
C35   H8    S    
C51   C55   A    
C69   C70   S    
C17   C21   A    
C5    C92   S    
C10   C11   A    
C6    C16   S    
C79   C80   A    
C34   H27   S    
C76   H38   S    
C95   O9    A    
C1    C22   S    
C77   C87   S    
C49   C50   A    
C42   C43   A    
C51   H17   S    
C88   H41   S    
C29   H2    S    
C35   C36   A    
C52   O17   A    
C51   C53   A    
C14   N8    A    
C81   C85   A    
C49   C54   A    
