data_mof_unit_6225.cif
_audit_creation_date              2012-12-11T15:22:18-0500
_audit_creation_method            fapswitch 2.2
_symmetry_space_group_name_H-M    P1
_symmetry_Int_Tables_number       1
_space_group_crystal_system       triclinic
_cell_length_a                    22.490557
_cell_length_b                    12.976028
_cell_length_c                    27.015258
_cell_angle_alpha                 90.009238
_cell_angle_beta                  90.53806
_cell_angle_gamma                 89.986357
_cell_volume                      7883.73352799

loop_
_atom_site_label
_atom_site_type_symbol
_atom_type_description
_atom_site_fract_x
_atom_site_fract_y
_atom_site_fract_z
_atom_type_partial_charge
C1    C     C_R   0.720409 0.344402 0.178060 0.563643
C2    C     C_R   0.279592 0.344405 0.821939 0.569215
C3    C     C_R   0.220409 0.844402 0.178060 0.563640
C4    C     C_R   0.779592 0.844404 0.821939 0.569206
C5    C     C_R   0.475120 0.162671 0.871719 -0.017414
C6    C     C_R   0.524880 0.162675 0.128282 -0.017498
C7    C     C_R   0.975120 0.662670 0.871719 -0.017415
C8    C     C_R   0.024881 0.662676 0.128282 -0.017501
C9    C     C_R   0.520676 0.257214 0.103090 -0.154386
C10   C     C_R   0.479315 0.257211 0.896922 -0.154288
C11   C     C_R   0.020679 0.757214 0.103089 -0.154367
C12   C     C_R   0.979316 0.757210 0.896921 -0.154282
C13   C     C_R   0.508993 0.259998 0.051831 0.014095
C14   C     C_R   0.490999 0.259996 0.948181 0.014098
C15   C     C_R   0.008997 0.759999 0.051830 0.014108
C16   C     C_R   0.991001 0.759996 0.948181 0.014091
C17   C     C_R   0.503464 0.166072 0.025858 -0.041794
C18   C     C_R   0.496534 0.166070 0.974143 -0.041807
C19   C     C_R   0.003465 0.666072 0.025858 -0.041772
C20   C     C_R   0.996535 0.666070 0.974143 -0.041801
C21   C     C_R   0.504206 0.354481 0.026200 0.276907
C22   C     C_R   0.495782 0.354480 0.973822 0.276977
C23   C     C_R   0.004213 0.854482 0.026199 0.276911
C24   C     C_R   0.995786 0.854480 0.973821 0.276961
C25   C     C_R   0.736420 0.965787 0.128170 -0.038884
C26   C     C_R   0.263591 0.965812 0.871834 -0.038680
C27   C     C_R   0.236415 0.465801 0.128168 -0.038818
C28   C     C_R   0.763591 0.465813 0.871834 -0.038635
C29   C     C_R   0.792126 0.952825 0.106492 -0.091695
C30   C     C_R   0.207887 0.952842 0.893509 -0.090981
C31   C     C_R   0.292120 0.452763 0.106498 -0.091710
C32   C     C_R   0.707888 0.452824 0.893507 -0.090957
C33   C     C_R   0.796573 0.937910 0.055120 0.241007
C34   C     C_R   0.203441 0.937908 0.944878 0.241132
C35   C     C_R   0.296570 0.437842 0.055126 0.241022
C36   C     C_R   0.703441 0.437888 0.944876 0.241141
C37   C     C_R   0.744640 0.941395 0.025440 0.040563
C38   C     C_R   0.255370 0.941384 0.974564 0.040514
C39   C     C_R   0.244643 0.441402 0.025439 0.040572
C40   C     C_R   0.755368 0.441381 0.974563 0.040525
C41   C     C_R   0.688319 0.953544 0.047557 0.208348
C42   C     C_R   0.311690 0.953550 0.952451 0.208469
C43   C     C_R   0.188323 0.453640 0.047548 0.208346
C44   C     C_R   0.811687 0.453569 0.952452 0.208477
C45   C     C_R   0.553462 0.157167 0.177552 0.567511
C46   C     C_R   0.446538 0.157165 0.822448 0.565632
C47   C     C_R   0.053462 0.657167 0.177552 0.567504
C48   C     C_R   0.946538 0.657165 0.822448 0.565636
C49   C     C_R   0.684878 0.962107 0.098611 -0.051436
C50   C     C_R   0.315132 0.962134 0.901397 -0.051207
C51   C     C_R   0.184876 0.462205 0.098602 -0.051386
C52   C     C_R   0.815131 0.462154 0.901399 -0.051177
C53   C     C_R   0.722621 0.837694 0.951630 -0.109451
C54   C     C_R   0.277412 0.837687 0.048370 -0.109420
C55   C     C_R   0.222598 0.337730 0.951624 -0.109456
C56   C     C_R   0.777419 0.337696 0.048372 -0.109434
C57   C     C_R   0.728136 0.815148 0.901740 0.361364
C58   C     C_R   0.271892 0.815142 0.098257 0.361826
C59   C     C_R   0.228111 0.315185 0.901735 0.361372
C60   C     C_R   0.771900 0.315152 0.098260 0.361826
C61   C     C_R   0.786547 0.970720 0.890751 -0.100336
C62   C     C_R   0.213429 0.970705 0.109258 -0.101617
C63   C     C_R   0.286573 0.470705 0.890755 -0.100337
C64   C     C_R   0.713420 0.470698 0.109256 -0.101618
C65   C     C_R   0.779785 0.995648 0.940636 0.283245
C66   C     C_R   0.220193 0.995632 0.059376 0.283339
C67   C     C_R   0.279817 0.495630 0.940642 0.283218
C68   C     C_R   0.720182 0.495622 0.059373 0.283329
C69   C     C_R   0.749164 0.925946 0.971738 -0.018447
C70   C     C_R   0.250844 0.925934 0.028267 -0.018289
C71   C     C_R   0.249170 0.425953 0.971738 -0.018447
C72   C     C_R   0.750841 0.425932 0.028266 -0.018297
C73   C     C_R   0.761847 0.879989 0.871137 -0.021782
C74   C     C_R   0.238154 0.879980 0.128865 -0.020765
C75   C     C_R   0.261847 0.379999 0.871136 -0.021793
C76   C     C_R   0.738154 0.379982 0.128865 -0.020767
C77   C     C_R   0.527231 0.169418 0.370839 0.022305
C78   C     C_R   0.472255 0.168942 0.628907 0.024575
C79   C     C_R   0.027226 0.669418 0.370837 0.022328
C80   C     C_R   0.972250 0.668943 0.628905 0.024572
C81   C     C_R   0.537760 0.259870 0.398263 -0.168864
C82   C     C_R   0.462889 0.260268 0.601887 -0.182482
C83   C     C_R   0.037751 0.759871 0.398261 -0.168858
C84   C     C_R   0.962877 0.760266 0.601884 -0.182483
C85   C     C_R   0.526008 0.263014 0.448717 -0.104076
C86   C     C_R   0.474144 0.263558 0.551343 -0.138419
C87   C     C_R   0.025995 0.763017 0.448714 -0.104044
C88   C     C_R   0.974129 0.763556 0.551340 -0.138410
C89   C     C_R   0.730869 0.002885 0.179083 0.547637
C90   C     C_R   0.269136 0.002892 0.820921 0.554824
C91   C     C_R   0.230868 0.502886 0.179083 0.547620
C92   C     C_R   0.769136 0.502892 0.820921 0.554838
C93   C     C_R   0.502768 0.176260 0.472641 -0.024354
C94   C     C_R   0.495499 0.175926 0.526888 -0.029884
C95   C     C_R   0.002756 0.676261 0.472637 -0.024312
C96   C     C_R   0.995487 0.675927 0.526884 -0.029882
C97   C     C_R   0.487839 0.088664 0.444579 -0.076183
C98   C     C_R   0.509140 0.087143 0.554486 -0.081817
C99   C     C_R   0.987830 0.588664 0.444576 -0.076163
C100  C     C_R   0.009133 0.587146 0.554483 -0.081821
C101  C     C_R   0.500121 0.084852 0.394103 0.386880
C102  C     C_R   0.497572 0.083319 0.605063 0.383080
C103  C     C_R   0.000115 0.584852 0.394100 0.386896
C104  C     C_R   0.997568 0.583322 0.605060 0.383081
C105  C     C_R   0.740630 0.952852 0.371021 0.023751
C106  C     C_R   0.262286 0.962938 0.626501 0.039396
C107  C     C_R   0.240648 0.452817 0.371013 0.023662
C108  C     C_R   0.762286 0.462943 0.626500 0.039392
C109  C     C_R   0.690049 0.936256 0.399825 -0.184279
C110  C     C_R   0.313872 0.960595 0.597722 -0.172575
C111  C     C_R   0.190069 0.436073 0.399802 -0.184326
C112  C     C_R   0.813874 0.460596 0.597722 -0.172594
C113  C     C_R   0.695722 0.912544 0.449273 -0.088492
C114  C     C_R   0.309905 0.949896 0.547132 -0.179087
C115  C     C_R   0.195744 0.412367 0.449251 -0.088484
C116  C     C_R   0.809909 0.449903 0.547131 -0.179125
C117  C     C_R   0.751976 0.901580 0.470775 0.033842
C118  C     C_R   0.254639 0.935894 0.524404 0.082356
C119  C     C_R   0.252001 0.401557 0.470768 0.033795
C120  C     C_R   0.754644 0.435911 0.524401 0.082312
C121  C     C_R   0.803780 0.907080 0.441255 0.250259
C122  C     C_R   0.202668 0.926927 0.552899 0.317437
C123  C     C_R   0.303811 0.407188 0.441262 0.250226
C124  C     C_R   0.702671 0.426947 0.552895 0.317410
C125  C     C_R   0.797868 0.935523 0.390941 0.314616
C126  C     C_R   0.206110 0.946079 0.604551 0.241974
C127  C     C_R   0.297895 0.435617 0.390947 0.314642
C128  C     C_R   0.706111 0.446093 0.604548 0.241966
C129  C     C_R   0.722135 0.817801 0.549056 0.375427
C130  C     C_R   0.213356 0.986016 0.442195 0.437438
C131  C     C_R   0.222207 0.317691 0.549039 0.375369
C132  C     C_R   0.713368 0.486039 0.442190 0.437399
C133  C     C_R   0.721241 0.347584 0.321635 0.561832
C134  C     C_R   0.279260 0.346124 0.677746 0.572285
C135  C     C_R   0.221241 0.847583 0.321635 0.561833
C136  C     C_R   0.779259 0.846129 0.677747 0.572234
C137  C     C_R   0.725361 0.810355 0.600093 -0.134864
C138  C     C_R   0.207275 0.966918 0.391850 -0.150312
C139  C     C_R   0.225427 0.310238 0.600076 -0.134891
C140  C     C_R   0.707283 0.466933 0.391847 -0.150284
C141  C     C_R   0.792623 0.956878 0.603179 0.366352
C142  C     C_R   0.284515 0.836109 0.397377 0.378167
C143  C     C_R   0.292575 0.456917 0.603185 0.366375
C144  C     C_R   0.784513 0.336107 0.397378 0.378153
C145  C     C_R   0.788308 0.965578 0.551950 -0.140905
C146  C     C_R   0.289912 0.854515 0.447707 -0.146284
C147  C     C_R   0.288262 0.465630 0.551955 -0.140857
C148  C     C_R   0.789912 0.354519 0.447707 -0.146273
C149  C     C_R   0.754948 0.893700 0.524673 -0.052625
C150  C     C_R   0.252576 0.925919 0.470636 0.001870
C151  C     C_R   0.254962 0.393681 0.524667 -0.052622
C152  C     C_R   0.752582 0.425935 0.470634 0.001865
C153  C     C_R   0.762674 0.876663 0.627417 -0.025995
C154  C     C_R   0.240505 0.888163 0.369615 -0.035589
C155  C     C_R   0.262678 0.376629 0.627411 -0.025963
C156  C     C_R   0.740507 0.388165 0.369614 -0.035580
C157  C     C_R   0.554238 0.158960 0.321627 0.568438
C158  C     C_R   0.445639 0.158877 0.678295 0.563405
C159  C     C_R   0.054237 0.658960 0.321627 0.568460
C160  C     C_R   0.945638 0.658877 0.678294 0.563415
C161  C     C_R   0.731746 0.001651 0.322807 0.574072
C162  C     C_R   0.268608 0.002778 0.676756 0.580790
C163  C     C_R   0.231748 0.501647 0.322806 0.574021
C164  C     C_R   0.768608 0.502779 0.676756 0.580794
C165  C     C_R   0.512273 0.070536 0.102801 0.368809
C166  C     C_R   0.487736 0.070529 0.897190 0.368966
C167  C     C_R   0.012272 0.570537 0.102801 0.368799
C168  C     C_R   0.987735 0.570528 0.897190 0.368966
C169  C     C_R   0.504796 0.071347 0.051626 0.046775
C170  C     C_R   0.495209 0.071343 0.948364 0.046772
C171  C     C_R   0.004795 0.571348 0.051626 0.046819
C172  C     C_R   0.995209 0.571342 0.948365 0.046797
C173  C     C_R   0.498572 0.978125 0.974360 -0.035000
C174  C     C_R   0.501437 0.978128 0.025620 -0.035047
C175  C     C_R   0.998571 0.478125 0.974360 -0.034964
C176  C     C_R   0.001436 0.478128 0.025620 -0.035030
Cr1   Cr    Cr6+3 0.756570 0.170940 0.251190 1.177747
Cr2   Cr    Cr6+3 0.243430 0.170940 0.748810 1.122208
Cr3   Cr    Cr6+3 0.256570 0.670940 0.251190 1.177768
Cr4   Cr    Cr6+3 0.743430 0.670940 0.748810 1.122183
Cr5   Cr    Cr6+3 0.623740 0.299110 0.249580 1.047143
Cr6   Cr    Cr6+3 0.376260 0.299110 0.750420 1.078232
Cr7   Cr    Cr6+3 0.123740 0.799110 0.249580 1.047142
Cr8   Cr    Cr6+3 0.876260 0.799110 0.750420 1.078269
Cr9   Cr    Cr6+3 0.625990 0.036240 0.250480 1.114810
Cr10  Cr    Cr6+3 0.374010 0.036240 0.749520 1.120555
Cr11  Cr    Cr6+3 0.125990 0.536240 0.250480 1.114789
Cr12  Cr    Cr6+3 0.874010 0.536240 0.749520 1.120555
H1    H     H_    0.812362 0.021495 0.867451 0.179683
H2    H     H_    0.187593 0.021480 0.132561 0.176443
H3    H     H_    0.312406 0.521461 0.867459 0.179711
H4    H     H_    0.687578 0.521467 0.132557 0.176456
H5    H     H_    0.641477 0.974416 0.114673 0.200340
H6    H     H_    0.358530 0.974453 0.885339 0.200163
H7    H     H_    0.141478 0.474581 0.114658 0.200280
H8    H     H_    0.858528 0.474489 0.885343 0.200146
H9    H     H_    0.558921 0.326138 0.381576 0.164574
H10   H     H_    0.443133 0.327386 0.619008 0.178502
H11   H     H_    0.058912 0.826141 0.381574 0.164563
H12   H     H_    0.943119 0.827382 0.619006 0.178559
H13   H     H_    0.527690 0.019767 0.536685 0.145982
H14   H     H_    0.467895 0.022064 0.461978 0.141987
H15   H     H_    0.027685 0.519772 0.536682 0.145962
H16   H     H_    0.967887 0.522063 0.461974 0.141965
H17   H     H_    0.537976 0.331545 0.469402 0.175307
H18   H     H_    0.463412 0.333157 0.531045 0.163462
H19   H     H_    0.037961 0.831548 0.469400 0.175293
H20   H     H_    0.963391 0.833152 0.531042 0.163492
H21   H     H_    0.645679 0.949589 0.385188 0.175574
H22   H     H_    0.357398 0.975329 0.613753 0.178247
H23   H     H_    0.145693 0.449290 0.385153 0.175633
H24   H     H_    0.857401 0.475322 0.613755 0.178252
H25   H     H_    0.702020 0.747341 0.617637 0.188670
H26   H     H_    0.174063 0.009497 0.370962 0.175258
H27   H     H_    0.202132 0.247158 0.617610 0.188646
H28   H     H_    0.674075 0.509516 0.370957 0.175270
H29   H     H_    0.497064 0.904700 0.955296 0.206083
H30   H     H_    0.502950 0.904705 0.044675 0.205955
H31   H     H_    0.997062 0.404700 0.955297 0.206066
H32   H     H_    0.002948 0.404705 0.044675 0.205912
H33   H     H_    0.655901 0.908521 0.471491 0.185090
H34   H     H_    0.350127 0.954882 0.525455 0.138253
H35   H     H_    0.155917 0.408233 0.471458 0.185158
H36   H     H_    0.850133 0.454884 0.525456 0.138254
H37   H     H_    0.812150 0.026676 0.533344 0.180693
H38   H     H_    0.321237 0.809151 0.469272 0.162481
H39   H     H_    0.312060 0.526791 0.533357 0.180708
H40   H     H_    0.821234 0.309150 0.469273 0.162465
H41   H     H_    0.470562 0.328080 0.876950 0.203353
H42   H     H_    0.529421 0.328082 0.123070 0.203295
H43   H     H_    0.970565 0.828080 0.876949 0.203357
H44   H     H_    0.029426 0.828082 0.123069 0.203297
H45   H     H_    0.831929 0.956259 0.129345 0.144734
H46   H     H_    0.168084 0.956276 0.870654 0.145274
H47   H     H_    0.331920 0.456136 0.129357 0.144671
H48   H     H_    0.668086 0.456244 0.870651 0.145248
H49   H     H_    0.698617 0.784679 0.975122 0.178565
H50   H     H_    0.301440 0.784674 0.024875 0.178676
H51   H     H_    0.198574 0.284735 0.975113 0.178565
H52   H     H_    0.801453 0.284690 0.024878 0.178695
O1    O     O_R   0.769900 0.064540 0.196060 -0.455491
O2    O     O_R   0.230100 0.064540 0.803940 -0.451910
O3    O     O_R   0.269900 0.564540 0.196060 -0.455475
O4    O     O_R   0.730100 0.564540 0.803940 -0.451893
O5    O     O_R   0.574760 0.239320 0.300850 -0.518453
O6    O     O_R   0.425240 0.239320 0.699150 -0.518899
O7    O     O_R   0.074760 0.739320 0.300850 -0.518453
O8    O     O_R   0.925240 0.739320 0.699150 -0.518882
O9    O     O_R   0.566290 0.069580 0.305400 -0.438644
O10   O     O_R   0.433710 0.069580 0.694600 -0.440408
O11   O     O_R   0.066290 0.569580 0.305400 -0.438639
O12   O     O_R   0.933710 0.569580 0.694600 -0.440411
O13   O     O_R   0.680760 0.993330 0.302620 -0.526437
O14   O     O_R   0.319240 0.993330 0.697380 -0.516889
O15   O     O_R   0.180760 0.493330 0.302620 -0.526454
O16   O     O_R   0.819240 0.493330 0.697380 -0.516902
O17   O     O_3   0.668770 0.168760 0.250420 -0.299024
O18   O     O_3   0.331230 0.168760 0.749580 -0.299235
O19   O     O_3   0.168770 0.668760 0.250420 -0.299019
O20   O     O_3   0.831230 0.668760 0.749580 -0.299227
O21   O     O_R   0.750800 0.274080 0.199250 -0.427613
O22   O     O_R   0.249200 0.274080 0.800750 -0.424123
O23   O     O_R   0.250800 0.774080 0.199250 -0.427618
O24   O     O_R   0.749200 0.774080 0.800750 -0.424141
O25   O     O_R   0.669990 0.371670 0.194150 -0.524733
O26   O     O_R   0.330010 0.371670 0.805850 -0.519973
O27   O     O_R   0.169990 0.871670 0.194150 -0.524732
O28   O     O_R   0.830010 0.871670 0.805850 -0.519964
O29   O     O_R   0.574600 0.238480 0.197800 -0.515728
O30   O     O_R   0.425400 0.238480 0.802200 -0.517316
O31   O     O_R   0.074600 0.738480 0.197800 -0.515728
O32   O     O_R   0.925400 0.738480 0.802200 -0.517312
O33   O     O_R   0.566130 0.068680 0.194240 -0.424967
O34   O     O_R   0.433870 0.068680 0.805760 -0.425561
O35   O     O_R   0.066130 0.568680 0.194240 -0.424971
O36   O     O_R   0.933870 0.568680 0.805760 -0.425559
O37   O     O_R   0.680610 0.992490 0.199570 -0.512076
O38   O     O_R   0.319390 0.992490 0.800430 -0.507585
O39   O     O_R   0.180610 0.492490 0.199570 -0.512077
O40   O     O_R   0.819390 0.492490 0.800430 -0.507592
O41   O     O_R   0.770060 0.065440 0.307230 -0.418164
O42   O     O_R   0.229940 0.065440 0.692770 -0.464033
O43   O     O_R   0.270060 0.565440 0.307230 -0.418115
O44   O     O_R   0.729940 0.565440 0.692770 -0.464011
O45   O     O_R   0.750960 0.274920 0.302300 -0.424818
O46   O     O_R   0.249040 0.274920 0.697700 -0.525584
O47   O     O_R   0.250960 0.774920 0.302300 -0.424810
O48   O     O_R   0.749040 0.774920 0.697700 -0.525598
O49   O     O_R   0.670160 0.372580 0.305320 -0.535594
O50   O     O_R   0.329840 0.372580 0.694680 -0.441381
O51   O     O_R   0.170160 0.872580 0.305320 -0.535600
O52   O     O_R   0.829840 0.872580 0.694680 -0.441327
F1    F     F_    0.488387 0.978575 0.872943 -0.606843
F2    F     F_    0.511635 0.978586 0.127036 -0.606912
F3    F     F_    0.988385 0.478574 0.872944 -0.606833
F4    F     F_    0.011632 0.478588 0.127037 -0.606909
O53   O     O_3   0.635784 0.960464 0.020902 -0.703534
H53   H     H_    0.644224 0.977281 0.985965 0.331840
O54   O     O_3   0.364222 0.960470 0.979109 -0.703467
H54   H     H_    0.355774 0.977259 0.014051 0.331674
O55   O     O_3   0.135797 0.460647 0.020885 -0.703559
H55   H     H_    0.144253 0.477434 0.985948 0.331850
O56   O     O_3   0.864217 0.460509 0.979113 -0.703483
H56   H     H_    0.855765 0.477295 0.014055 0.331674
F5    F     F_    0.508898 0.994571 0.630035 -0.593561
F6    F     F_    0.487687 0.997114 0.368663 -0.584904
F7    F     F_    0.008899 0.494577 0.630033 -0.593563
F8    F     F_    0.987685 0.497112 0.368660 -0.584929
F9    F     F_    0.689381 0.747692 0.523334 -0.557918
F10   F     F_    0.179500 0.060202 0.463412 -0.526184
F11   F     F_    0.189521 0.247503 0.523307 -0.557938
F12   F     F_    0.679520 0.560239 0.463406 -0.526224
F13   F     F_    0.827951 0.023663 0.628580 -0.590418
F14   F     F_    0.318973 0.761454 0.377177 -0.569194
F15   F     F_    0.327850 0.523768 0.628598 -0.590403
F16   F     F_    0.818965 0.261439 0.377181 -0.569244
O57   O     O_3   0.859899 0.887057 0.460298 -0.716930
H57   H     H_    0.856329 0.847856 0.491558 0.329553
O58   O     O_3   0.150374 0.897902 0.529522 -0.666363
H58   H     H_    0.124607 0.862674 0.553750 0.323508
O59   O     O_3   0.359941 0.387326 0.460323 -0.716903
H59   H     H_    0.356393 0.348095 0.491575 0.329541
O60   O     O_3   0.650377 0.397933 0.529515 -0.666358
H60   H     H_    0.624607 0.362704 0.553741 0.323504
O61   O     O_3   0.846523 0.947134 0.360473 -0.642456
H61   H     H_    0.883658 0.933784 0.379338 0.380787
O62   O     O_3   0.156217 0.951549 0.633882 -0.674942
H62   H     H_    0.121717 0.971981 0.613067 0.349506
O63   O     O_3   0.346553 0.447346 0.360492 -0.642348
H63   H     H_    0.383694 0.434026 0.379359 0.380791
O64   O     O_3   0.656218 0.451566 0.633876 -0.674951
H64   H     H_    0.621718 0.472005 0.613061 0.349512
O65   O     O_3   0.493536 0.444777 0.946727 -0.690491
H65   H     H_    0.517811 0.497821 0.963790 0.355377
O66   O     O_3   0.506447 0.444781 0.053306 -0.690944
H66   H     H_    0.482160 0.497832 0.036253 0.355343
O67   O     O_3   0.993540 0.944776 0.946726 -0.690498
H67   H     H_    0.017819 0.997818 0.963786 0.355364
O68   O     O_3   0.006461 0.944782 0.053305 -0.690958
H68   H     H_    0.982182 0.997841 0.036250 0.355318
F17   F     F_    0.704115 0.725898 0.884580 -0.604125
F18   F     F_    0.295938 0.725897 0.115412 -0.604216
F19   F     F_    0.204062 0.225961 0.884569 -0.604088
F20   F     F_    0.795956 0.225918 0.115416 -0.604213
O69   O     O_3   0.850876 0.921118 0.033051 -0.660813
H69   H     H_    0.882150 0.918506 0.059116 0.335778
O70   O     O_3   0.149140 0.921103 0.966940 -0.660614
H70   H     H_    0.117868 0.918496 0.940873 0.335881
O71   O     O_3   0.350870 0.420973 0.033064 -0.660844
H71   H     H_    0.382139 0.418312 0.059133 0.335765
O72   O     O_3   0.649141 0.421066 0.966936 -0.660627
H72   H     H_    0.617869 0.418452 0.940867 0.335881
O73   O     O_3   0.804276 0.087158 0.957166 -0.647073
H73   H     H_    0.789917 0.102310 0.990881 0.341464
O74   O     O_3   0.195676 0.087138 0.042856 -0.647915
H74   H     H_    0.210041 0.102297 0.009147 0.341424
O75   O     O_3   0.304339 0.587112 0.957176 -0.647063
H75   H     H_    0.289990 0.602268 0.990894 0.341477
O76   O     O_3   0.695655 0.587118 0.042852 -0.647900
H76   H     H_    0.710016 0.602278 0.009141 0.341429

loop_
_geom_bond_atom_site_label_1
_geom_bond_atom_site_label_2
_ccdc_geom_bond_type
C99   C103  A    
C7    C168  A    
O75   H75   S    
C55   C59   A    
C99   H16   S    
C142  C146  A    
C77   C101  A    
C19   C20   A    
C52   H8    S    
C97   H14   S    
C53   C69   A    
C165  C169  A    
C38   C70   S    
O67   H67   S    
C62   H2    S    
O65   H65   S    
C108  C164  S    
C46   O34   A    
C82   H10   S    
C37   C69   S    
C26   C50   A    
Cr12  O40   S    
Cr4   O24   S    
Cr5   O5    S    
Cr5   O17   S    
C42   O54   S    
C29   C33   A    
C100  C104  A    
Cr7   O27   S    
Cr12  O12   S    
C3    C74   S    
C9    C13   A    
Cr2   O18   S    
C146  C150  A    
Cr3   O23   S    
C12   C16   A    
C56   C72   A    
C169  C174  A    
Cr8   O52   S    
C172  C175  A    
C141  C145  A    
C122  C126  A    
C138  C154  A    
C162  O42   A    
C6    C165  A    
C21   C22   A    
C61   H1    S    
C127  O63   S    
C160  O8    A    
C109  H21   S    
C41   C49   A    
C64   H4    S    
C18   C170  A    
C25   C29   A    
C141  F13   S    
C27   C31   A    
O60   H60   S    
C134  O50   A    
C28   C32   A    
C54   H50   S    
C62   C66   A    
C167  C171  A    
C98   C102  A    
C145  H37   S    
C60   C76   A    
C157  O9    A    
C133  O49   A    
C78   C82   A    
O56   H56   S    
C54   C70   A    
C16   C20   A    
C137  C153  A    
C91   O39   A    
C113  H33   S    
C23   O68   S    
C140  C156  A    
C20   C172  A    
C143  C147  A    
Cr11  O39   S    
Cr2   O22   S    
C132  C152  A    
C4    O28   A    
C130  C138  A    
C32   H48   S    
C102  F5    S    
C123  O59   S    
Cr3   O19   S    
C56   H52   S    
C84   C88   A    
Cr9   O37   S    
Cr10  O34   S    
Cr10  O14   S    
C119  C123  A    
C26   C90   S    
C5    C46   S    
C44   O56   S    
C105  C125  A    
Cr7   O51   S    
C7    C48   S    
C8    C47   S    
C159  O11   A    
C51   H7    S    
C81   H9    S    
C136  C153  S    
Cr1   O45   S    
C66   C70   A    
Cr2   O42   S    
Cr3   O47   S    
C134  O46   A    
C95   C99   A    
C35   O71   S    
Cr11  O11   S    
Cr9   O9    S    
O66   H66   S    
C61   C65   A    
C129  C137  A    
O59   H59   S    
O76   H76   S    
C39   C71   S    
C117  C149  S    
Cr3   O3    S    
C2    C75   S    
C166  F1    S    
Cr1   O1    S    
C92   O40   A    
O71   H71   S    
O72   H72   S    
C148  H40   S    
C162  O14   A    
C6    C9    A    
C85   H17   S    
C2    O22   A    
C129  C149  A    
Cr11  O19   S    
C64   C68   A    
C100  H15   S    
C63   H3    S    
C2    O26   A    
C164  O44   A    
C118  C122  A    
C57   C73   A    
Cr1   O21   S    
C123  C127  A    
C78   C158  S    
C22   O65   S    
C25   C49   A    
C87   C95   A    
C126  O62   S    
C130  C150  A    
C23   C24   A    
C27   C91   S    
C174  H30   S    
C110  C114  A    
C44   C52   A    
C46   O30   A    
C79   C103  A    
C11   C15   A    
C27   C51   A    
Cr5   O29   S    
C7    C12   A    
Cr6   O18   S    
C132  F12   S    
C104  F7    S    
Cr7   O31   S    
C30   C34   A    
Cr12  O16   S    
C10   C14   A    
C53   H49   S    
C129  F9    S    
C31   H47   S    
C142  C154  A    
C116  C120  A    
C9    H42   S    
C144  C156  A    
C147  C151  A    
C121  C125  A    
C143  C155  A    
C139  C155  A    
C4    O24   A    
C87   H19   S    
C89   O37   A    
C17   C18   A    
C125  O61   S    
C5    C166  A    
C108  C128  A    
C163  O15   A    
C4    C73   S    
C42   C50   A    
C113  C117  A    
C48   O36   A    
C124  O60   S    
C107  C163  S    
C166  C170  A    
C115  C119  A    
C90   O2    A    
C105  C161  S    
C93   C97   A    
C112  C116  A    
C58   C74   A    
C12   H43   S    
C130  F10   S    
C167  F4    S    
O74   H74   S    
C105  C109  A    
C168  F3    S    
C40   C72   S    
C1    C76   S    
C107  C111  A    
C148  C152  A    
C163  O43   A    
C26   C30   A    
C171  C176  A    
C13   C17   A    
C14   C22   A    
C141  C153  A    
C63   C75   A    
C45   O33   A    
C96   C100  A    
C37   C41   A    
C55   C71   A    
C131  C139  A    
C47   O31   A    
C40   C44   A    
C48   O32   A    
C103  F8    S    
C157  O5    A    
C81   C85   A    
Cr10  O38   S    
Cr11  O35   S    
C66   O74   S    
C83   C87   A    
C88   C96   A    
C6    C45   S    
C78   C102  A    
C133  C156  S    
Cr8   O8    S    
C98   H13   S    
C80   C84   A    
Cr5   O49   S    
O73   H73   S    
C110  H22   S    
Cr2   O46   S    
C15   C19   A    
Cr3   O43   S    
Cr8   O20   S    
C135  C154  S    
C80   C104  A    
C115  H35   S    
C88   H20   S    
C17   C169  A    
Cr6   O6    S    
Cr9   O13   S    
C161  O41   A    
C80   C160  S    
C94   C98   A    
O53   H53   S    
C118  C150  S    
C41   O53   S    
C139  H27   S    
Cr4   O44   S    
C124  C128  A    
C65   O73   S    
C121  O57   S    
C21   O66   S    
C164  O16   A    
C59   F19   S    
C3    O27   A    
Cr8   O32   S    
C136  O52   A    
O70   H70   S    
C53   C57   A    
C146  H38   S    
C61   C73   A    
C82   C86   A    
C33   C37   A    
C56   C60   A    
C116  H36   S    
C35   C39   A    
O54   H54   S    
C8    C167  A    
O68   H68   S    
C68   O76   S    
C77   C81   A    
Cr12  O20   S    
C60   F20   S    
Cr7   O7    S    
C30   H46   S    
Cr5   O25   S    
Cr9   O17   S    
Cr6   O30   S    
Cr7   O19   S    
C142  F14   S    
C31   C35   A    
C32   C36   A    
C34   O70   S    
C138  H26   S    
O55   H55   S    
C158  O10   A    
C132  C140  A    
C106  C126  A    
C25   C89   S    
C143  F15   S    
C90   O38   A    
O62   H62   S    
O64   H64   S    
C79   C83   A    
C50   H6    S    
C43   C51   A    
C131  F11   S    
C65   C69   A    
C58   F18   S    
C67   C71   A    
C106  C162  S    
O61   H61   S    
C111  H23   S    
Cr10  O10   S    
O58   H58   S    
Cr4   O20   S    
C108  C112  A    
C168  C172  A    
C176  H32   S    
C62   C74   A    
Cr1   O17   S    
C145  C149  A    
Cr2   O2    S    
C170  C173  A    
C24   O67   S    
C11   H44   S    
C33   O69   S    
C28   C52   A    
O63   H63   S    
C14   C18   A    
C95   C96   S    
C144  C148  A    
C86   H18   S    
C161  O13   A    
C173  C174  A    
C84   H12   S    
C45   O29   A    
C43   O55   S    
C112  H24   S    
C19   C171  A    
C38   C42   A    
C47   O35   A    
C67   O75   S    
C117  C121  A    
C86   C94   A    
C175  C176  A    
C173  H29   S    
C68   C72   A    
C15   C23   A    
C122  O58   S    
C16   C24   A    
C36   O72   S    
C85   C93   A    
C83   H11   S    
C57   F17   S    
Cr4   O4    S    
C119  C151  S    
C63   C67   A    
C120  C152  S    
C13   C21   A    
C36   C40   A    
C39   C43   A    
C101  F6    S    
Cr12  O36   S    
C128  O64   S    
C10   H41   S    
C114  H34   S    
Cr4   O48   S    
Cr9   O33   S    
C29   H45   S    
C64   C76   A    
C28   C92   S    
C93   C94   S    
Cr6   O50   S    
C159  O7    A    
C114  C118  A    
C1    O21   A    
Cr1   O41   S    
C91   O3    A    
C3    O23   A    
C160  O12   A    
Cr8   O28   S    
C89   O1    A    
C135  O47   A    
C144  F16   S    
Cr11  O15   S    
C136  O48   A    
C59   C75   A    
C54   C58   A    
C134  C155  S    
C137  H25   S    
C34   C38   A    
C175  H31   S    
C165  F2    S    
C109  C113  A    
C158  O6    A    
C133  O45   A    
C55   H51   S    
C5    C10   A    
C92   O4    A    
Cr6   O26   S    
C49   H5    S    
Cr10  O18   S    
C8    C11   A    
C79   C159  S    
C131  C151  A    
O57   H57   S    
C140  H28   S    
C1    O25   A    
C106  C110  A    
C111  C115  A    
C107  C127  A    
C147  H39   S    
O69   H69   S    
C135  O51   A    
C97   C101  A    
C120  C124  A    
C77   C157  S    
