data_mof_unit_37743.cif
_audit_creation_date              2013-03-05T15:49:13-0500
_audit_creation_method            fapswitch 2.2
_symmetry_space_group_name_H-M    P1
_symmetry_Int_Tables_number       1
_space_group_crystal_system       triclinic
_cell_length_a                    17.595176
_cell_length_b                    24.641073
_cell_length_c                    15.080628
_cell_angle_alpha                 90.006029
_cell_angle_beta                  126.380221
_cell_angle_gamma                 89.926342
_cell_volume                      5264.06480453

loop_
_atom_site_label
_atom_site_type_symbol
_atom_site_description
_atom_site_fract_x
_atom_site_fract_y
_atom_site_fract_z
_atom_type_partial_charge
C1    C     C_R   0.314293 0.131614 0.908817 0.385120
C2    C     C_R   0.311168 0.871738 0.906533 0.377188
C3    C     C_R   0.814277 0.631598 0.908821 0.385168
C4    C     C_R   0.811313 0.371545 0.906404 0.377360
N1    N     N_R   0.392450 0.103580 0.942190 -0.125369
N2    N     N_R   0.392450 0.896420 0.942190 -0.141391
N3    N     N_R   0.892450 0.603580 0.942190 -0.125092
N4    N     N_R   0.892450 0.396420 0.942190 -0.142221
C5    C     C_R   0.396468 0.881135 0.088479 0.477415
C6    C     C_R   0.402362 0.123552 0.091622 0.429675
C7    C     C_R   0.896461 0.380947 0.088341 0.488876
C8    C     C_R   0.902374 0.623557 0.091629 0.420921
N5    N     N_R   0.450490 0.896000 0.057360 -0.127290
N6    N     N_R   0.450490 0.104000 0.057360 -0.156048
N7    N     N_R   0.950490 0.396000 0.057360 -0.127032
N8    N     N_R   0.950490 0.604000 0.057360 -0.153480
C9    C     C_R   0.573099 0.041957 0.315438 0.463605
C10   C     C_R   0.568690 0.953532 0.309916 0.475453
C11   C     C_R   0.072586 0.542035 0.315364 0.443366
C12   C     C_R   0.068423 0.453585 0.309880 0.448152
N9    N     N_R   0.525490 0.028390 0.207550 -0.129053
N10   N     N_R   0.525490 0.971610 0.207550 -0.126158
N11   N     N_R   0.025490 0.528390 0.207550 -0.137025
N12   N     N_R   0.025490 0.471610 0.207550 -0.130214
C13   C     C_R   0.252344 0.955387 0.688211 0.644161
C14   C     C_R   0.251939 0.045059 0.688690 0.639272
C15   C     C_R   0.752360 0.455373 0.688234 0.643893
C16   C     C_R   0.752022 0.545043 0.688658 0.639041
N13   N     N_R   0.317450 0.971190 0.792000 -0.138361
N14   N     N_R   0.317450 0.028810 0.792000 -0.135814
N15   N     N_R   0.817450 0.471190 0.792000 -0.138871
N16   N     N_R   0.817450 0.528810 0.792000 -0.136321
C17   C     C_R   0.315182 0.141754 0.002644 -0.007655
C18   C     C_R   0.308953 0.864169 0.998255 -0.091754
C19   C     C_R   0.815223 0.641783 0.002673 -0.007883
C20   C     C_R   0.809002 0.363976 0.997992 -0.096516
C21   C     C_R   0.592159 0.996433 0.380087 -0.087234
C22   C     C_R   0.091598 0.496563 0.380075 -0.106358
C23   C     C_R   0.208215 0.000313 0.624478 -0.331096
C24   C     C_R   0.708320 0.500294 0.624456 -0.330391
C25   C     C_R   0.519159 0.044207 0.750547 -0.023204
C26   C     C_R   0.522270 0.953460 0.757618 -0.063887
C27   C     C_R   0.021071 0.544126 0.752808 -0.030688
C28   C     C_R   0.023050 0.453418 0.758711 -0.060792
H1    H     H_    0.524493 0.085787 0.732937 0.192864
H2    H     H_    0.532134 0.911013 0.752042 0.199849
H3    H     H_    0.028203 0.585747 0.737020 0.190062
H4    H     H_    0.032109 0.410954 0.752515 0.199429
N17   N     N_R   0.473900 0.028390 0.792280 -0.058619
N18   N     N_R   0.473900 0.971610 0.792280 -0.055193
N19   N     N_R   0.973900 0.528390 0.792280 -0.056892
N20   N     N_R   0.973900 0.471610 0.792280 -0.055160
C29   C     C_R   0.770596 0.954160 0.258550 0.547787
C30   C     C_R   0.770611 0.045512 0.257320 0.529487
C31   C     C_R   0.270615 0.454142 0.258977 0.548791
C32   C     C_R   0.270649 0.545506 0.257660 0.529262
N21   N     N_R   0.682310 0.971180 0.208170 -0.115785
N22   N     N_R   0.682310 0.028820 0.208170 -0.129279
N23   N     N_R   0.182310 0.471180 0.208170 -0.112675
N24   N     N_R   0.182310 0.528820 0.208170 -0.126736
C33   C     C_R   0.637412 0.154323 0.088400 0.549938
C34   C     C_R   0.632427 0.845327 0.088690 0.596655
C35   C     C_R   0.137319 0.654347 0.088349 0.549317
C36   C     C_R   0.132484 0.345344 0.088733 0.595698
N25   N     N_R   0.606470 0.103570 0.057210 -0.140919
N26   N     N_R   0.606470 0.896430 0.057210 -0.104172
N27   N     N_R   0.106470 0.603570 0.057210 -0.140469
N28   N     N_R   0.106470 0.396430 0.057210 -0.104094
C37   C     C_R   0.544489 0.845930 0.907329 0.417197
C38   C     C_R   0.549003 0.153082 0.906532 0.320723
C39   C     C_R   0.044545 0.345934 0.907350 0.415964
C40   C     C_R   0.048932 0.653097 0.906520 0.317309
N29   N     N_R   0.549740 0.896000 0.943240 -0.148008
N30   N     N_R   0.549740 0.104000 0.943240 -0.135996
N31   N     N_R   0.049740 0.396000 0.943240 -0.147929
N32   N     N_R   0.049740 0.604000 0.943240 -0.135382
Ni1   Ni    Ni4+2 0.433780 0.065390 0.868430 0.292620
Ni2   Ni    Ni4+2 0.433780 0.934610 0.868430 0.294560
Ni3   Ni    Ni4+2 0.933780 0.565390 0.868430 0.293237
Ni4   Ni    Ni4+2 0.933780 0.434610 0.868430 0.294390
Ni5   Ni    Ni4+2 0.565800 0.934190 0.131570 0.298937
Ni6   Ni    Ni4+2 0.565800 0.065810 0.131570 0.234180
Ni7   Ni    Ni4+2 0.065800 0.434190 0.131570 0.299366
Ni8   Ni    Ni4+2 0.065800 0.565810 0.131570 0.233836
C41   C     C_R   0.549295 0.997554 0.725714 0.102162
C42   C     C_R   0.051095 0.497442 0.727850 0.105134
C43   C     C_R   0.827965 0.999721 0.286303 -0.243233
C44   C     C_R   0.327996 0.499698 0.286865 -0.244045
C45   C     C_R   0.606090 0.186432 0.997043 -0.072695
C46   C     C_R   0.597084 0.811861 0.997174 -0.200927
C47   C     C_R   0.105975 0.686478 0.996987 -0.070254
C48   C     C_R   0.097167 0.311878 0.997215 -0.199852
C49   C     C_3   0.040616 0.957078 0.503429 0.470479
C50   C     C_3   0.040492 0.044271 0.500034 0.474147
C51   C     C_3   0.540678 0.457134 0.503983 0.471149
C52   C     C_3   0.540620 0.544324 0.500207 0.474471
C53   C     C_3   0.970851 0.001116 0.483333 -0.361617
C54   C     C_3   0.471011 0.501244 0.483878 -0.361370
H5    H     H_    0.929283 0.002009 0.517023 0.197978
H6    H     H_    0.429549 0.502262 0.517700 0.197808
C55   C     C_3   0.931037 0.999729 0.360703 0.008571
C56   C     C_3   0.431021 0.499694 0.361211 0.009792
C57   C     C_3   0.000686 0.954353 0.381221 -0.262137
C58   C     C_3   0.000523 0.044243 0.377654 -0.264977
C59   C     C_3   0.500552 0.454248 0.381729 -0.265178
C60   C     C_3   0.500453 0.544131 0.377767 -0.267011
C61   C     C_3   0.072088 0.998888 0.402373 0.345741
C62   C     C_3   0.571917 0.498711 0.402495 0.342523
C63   C     C_3   0.111876 0.000280 0.524400 -0.096381
C64   C     C_3   0.611909 0.500267 0.524575 -0.098565
H7    H     H_    0.985140 0.917352 0.331142 0.223128
H8    H     H_    0.984683 0.080046 0.324558 0.221271
H9    H     H_    0.484847 0.417176 0.331775 0.223024
H10   H     H_    0.484498 0.579864 0.324469 0.221118
C65   C     C_3   0.260544 0.818937 0.119996 0.471222
C66   C     C_3   0.265495 0.185934 0.123260 0.531560
C67   C     C_3   0.760067 0.319092 0.119465 0.470425
C68   C     C_3   0.765864 0.686100 0.123489 0.528710
C69   C     C_3   0.691618 0.272505 0.104298 -0.030066
C70   C     C_3   0.689509 0.727713 0.104416 -0.144205
C71   C     C_3   0.192022 0.772369 0.104697 -0.029304
C72   C     C_3   0.189209 0.227612 0.104176 -0.144628
H11   H     H_    0.733130 0.248072 0.179855 0.260965
H12   H     H_    0.724127 0.753141 0.178430 0.251028
H13   H     H_    0.233656 0.747769 0.180001 0.260460
H14   H     H_    0.223790 0.252957 0.178297 0.250711
H15   H     H_    0.871366 0.265115 0.066761 0.229076
H16   H     H_    0.867456 0.743413 0.062033 0.251430
H17   H     H_    0.371069 0.765110 0.066212 0.228944
H18   H     H_    0.367694 0.243290 0.062696 0.251159
C73   C     C_3   0.793899 0.266439 0.001556 -0.484927
C74   C     C_3   0.790149 0.739174 0.997944 -0.610666
C75   C     C_3   0.293587 0.766571 0.001143 -0.485674
C76   C     C_3   0.290405 0.239157 0.998388 -0.612932
C77   C     C_3   0.142372 0.828732 0.916860 0.201048
C78   C     C_3   0.146541 0.172339 0.920150 0.174495
C79   C     C_3   0.642392 0.328456 0.916197 0.200376
C80   C     C_3   0.646596 0.672228 0.920476 0.172881
C81   C     C_3   0.252272 0.821742 0.008522 -0.083899
C82   C     C_3   0.256007 0.183061 0.011039 -0.046385
C83   C     C_3   0.752239 0.321631 0.008238 -0.083026
C84   C     C_3   0.756054 0.683086 0.011079 -0.045670
H19   H     H_    0.112999 0.855374 0.949279 0.132749
H20   H     H_    0.121409 0.143853 0.954805 0.145617
H21   H     H_    0.612712 0.355169 0.948159 0.131960
H22   H     H_    0.621746 0.643734 0.955440 0.144942
C85   C     C_3   0.657950 0.235885 0.000771 -0.203429
C86   C     C_3   0.652243 0.764405 0.999802 -0.102551
C87   C     C_3   0.157830 0.735960 0.000716 -0.204624
C88   C     C_3   0.152305 0.264422 0.999831 -0.102302
C89   C     C_3   0.747199 0.216192 0.009748 0.672394
C90   C     C_3   0.737540 0.787559 0.002855 0.698474
C91   C     C_3   0.246726 0.716274 0.008919 0.671989
C92   C     C_3   0.237854 0.287553 0.003380 0.700052
C93   C     C_3   0.594939 0.272596 0.894660 0.312554
C94   C     C_3   0.592036 0.726028 0.896000 0.323056
C95   C     C_3   0.094686 0.772909 0.895011 0.312747
C96   C     C_3   0.092167 0.226189 0.895777 0.322240
H23   H     H_    0.025212 0.779657 0.879489 0.164681
H24   H     H_    0.023931 0.216703 0.881439 0.164261
H25   H     H_    0.525294 0.279341 0.878694 0.164734
H26   H     H_    0.523955 0.716491 0.882007 0.164138
H27   H     H_    0.788712 0.263366 0.925369 0.250028
H28   H     H_    0.782617 0.741548 0.920298 0.243481
H29   H     H_    0.288256 0.763677 0.924858 0.250194
H30   H     H_    0.283110 0.241626 0.920886 0.243691
C97   C     C_3   0.667914 0.021677 0.682479 0.492429
C98   C     C_3   0.566470 0.933968 0.602885 0.647307
C99   C     C_3   0.171014 0.519311 0.685195 0.489403
C100  C     C_3   0.062514 0.434307 0.600104 0.652944
C101  C     C_3   0.666269 0.032460 0.577864 0.778270
C102  C     C_3   0.596637 0.935178 0.524234 0.700456
C103  C     C_3   0.169876 0.530491 0.580893 0.803748
C104  C     C_3   0.092216 0.435139 0.521130 0.706765
H31   H     H_    0.496563 0.070417 0.561861 0.261677
H32   H     H_    0.418082 0.015260 0.519670 0.251673
H33   H     H_    0.004058 0.572586 0.568910 0.245564
H34   H     H_    0.921071 0.519594 0.522948 0.261201
C105  C     C_3   0.488173 0.026548 0.540408 -0.685564
C106  C     C_3   0.992092 0.529058 0.544492 -0.558211
C107  C     C_3   0.570242 0.994548 0.642523 -0.308551
C108  C     C_3   0.071515 0.494526 0.644100 -0.354612
C109  C     C_3   0.587058 0.995611 0.478350 -0.226900
C110  C     C_3   0.087435 0.495873 0.479133 -0.279679
C111  C     C_3   0.487765 0.019241 0.438290 0.865068
C112  C     C_3   0.990456 0.522281 0.441861 0.843142
Br1   Br    Br    0.246359 0.171189 0.771824 -0.310286
Br2   Br    Br    0.241318 0.832476 0.769252 -0.305565
Br3   Br    Br    0.746054 0.670995 0.771618 -0.311080
Br4   Br    Br    0.742082 0.332014 0.769444 -0.305620
O1    O     O_3   0.061896 0.911559 0.569874 -0.658515
H35   H     H_    0.000574 0.893866 0.539956 0.352605
O2    O     O_3   0.061654 0.091227 0.562848 -0.659536
H36   H     H_    0.000188 0.108953 0.532479 0.354464
O3    O     O_3   0.562047 0.411700 0.570664 -0.659141
H37   H     H_    0.500738 0.394057 0.540999 0.352252
O4    O     O_3   0.561920 0.591365 0.562836 -0.659682
H38   H     H_    0.500489 0.609105 0.532586 0.354320
Br5   Br    Br    0.148507 0.997327 0.348850 -0.359536
Br6   Br    Br    0.648055 0.496937 0.348619 -0.313775
Br7   Br    Br    0.387285 0.800130 0.254389 -0.267223
Br8   Br    Br    0.385893 0.213716 0.256831 -0.305070
Br9   Br    Br    0.886685 0.300584 0.254202 -0.275031
Br10  Br    Br    0.886321 0.714148 0.256584 -0.305367
Br11  Br    Br    0.230329 0.888735 0.157095 -0.298059
Br12  Br    Br    0.250385 0.113172 0.165351 -0.364720
Br13  Br    Br    0.729377 0.388964 0.155787 -0.286712
Br14  Br    Br    0.751314 0.613384 0.166373 -0.351000
Br15  Br    Br    0.082669 0.795327 0.101211 -0.364432
Br16  Br    Br    0.082690 0.195559 0.097066 -0.411398
Br17  Br    Br    0.581860 0.295448 0.099979 -0.365752
Br18  Br    Br    0.583300 0.695555 0.097829 -0.408484
Br19  Br    Br    0.841660 0.176359 0.146784 -0.442292
Br20  Br    Br    0.827332 0.832675 0.132290 -0.457378
Br21  Br    Br    0.341198 0.676029 0.145329 -0.441935
Br22  Br    Br    0.327634 0.332447 0.133231 -0.457212
O5    O     O_3   0.116369 0.854287 0.819569 -0.657018
H39   H     H_    0.047203 0.860896 0.774233 0.365540
O6    O     O_3   0.122530 0.146965 0.823533 -0.666565
H40   H     H_    0.054487 0.137419 0.779691 0.362746
O7    O     O_3   0.616552 0.353805 0.818800 -0.656912
H41   H     H_    0.547348 0.360314 0.773184 0.365280
O8    O     O_3   0.622506 0.646784 0.823882 -0.667240
H42   H     H_    0.554525 0.637120 0.780261 0.362413
O9    O     O_3   0.411836 0.898399 0.183369 -0.638121
H43   H     H_    0.373511 0.931927 0.162972 0.351197
O10   O     O_3   0.436512 0.124351 0.198939 -0.648556
H44   H     H_    0.500424 0.139797 0.237367 0.366898
O11   O     O_3   0.910903 0.398846 0.182290 -0.651408
H45   H     H_    0.871725 0.432081 0.160085 0.325544
O12   O     O_3   0.936624 0.624467 0.198965 -0.659846
H46   H     H_    0.000267 0.640252 0.237063 0.370591
O13   O     O_3   0.576899 0.248602 0.798856 -0.600828
H47   H     H_    0.629385 0.256001 0.793731 0.414265
O14   O     O_3   0.569004 0.749701 0.797562 -0.596388
H48   H     H_    0.620682 0.743926 0.790183 0.412552
O15   O     O_3   0.076145 0.749166 0.798775 -0.601465
H49   H     H_    0.128497 0.756578 0.793410 0.414145
O16   O     O_3   0.069543 0.249976 0.797607 -0.596418
H50   H     H_    0.121351 0.244174 0.790469 0.412616
O17   O     O_3   0.721085 0.181327 0.922039 -0.658341
H51   H     H_    0.715501 0.144212 0.942869 0.353554
O18   O     O_3   0.703303 0.821553 0.911063 -0.718309
H52   H     H_    0.758477 0.836041 0.916286 0.365659
O19   O     O_3   0.220120 0.681693 0.920614 -0.658688
H53   H     H_    0.214264 0.644528 0.940971 0.354191
O20   O     O_3   0.203938 0.321691 0.911860 -0.719910
H54   H     H_    0.259258 0.336163 0.917385 0.364275
Br23  Br    Br    0.695482 0.089991 0.764418 -0.470493
Br24  Br    Br    0.437396 0.902412 0.527175 -0.275306
Br25  Br    Br    0.202808 0.586635 0.771245 -0.471308
Br26  Br    Br    0.931143 0.406292 0.523520 -0.253495
O21   O     O_3   0.743744 0.986754 0.754692 -0.686859
H55   H     H_    0.753991 0.988029 0.826856 0.348710
O22   O     O_3   0.626351 0.896517 0.688456 -0.646493
H56   H     H_    0.661966 0.914000 0.761444 0.339439
O23   O     O_3   0.244444 0.482639 0.755193 -0.690409
H57   H     H_    0.255041 0.483481 0.827571 0.350100
O24   O     O_3   0.119298 0.394930 0.682667 -0.647152
H58   H     H_    0.158974 0.411370 0.756579 0.343211
O25   O     O_3   0.754776 0.020715 0.600085 -0.713936
H59   H     H_    0.803871 0.041904 0.665762 0.361024
O26   O     O_3   0.691321 0.916690 0.584511 -0.636153
H60   H     H_    0.719052 0.927467 0.546401 0.377549
O27   O     O_3   0.257201 0.516701 0.601762 -0.716418
H61   H     H_    0.308079 0.536289 0.668944 0.358097
O28   O     O_3   0.185221 0.413973 0.579943 -0.634197
H62   H     H_    0.215243 0.425622 0.544969 0.382168
O29   O     O_3   0.643677 0.087590 0.547480 -0.654328
H63   H     H_    0.702257 0.109631 0.589984 0.384911
O30   O     O_3   0.538247 0.898540 0.438034 -0.621235
H64   H     H_    0.557510 0.861216 0.468778 0.412899
O31   O     O_3   0.151765 0.586213 0.554375 -0.650239
H65   H     H_    0.212092 0.606644 0.598074 0.381779
O32   O     O_3   0.030644 0.400366 0.432523 -0.633243
H66   H     H_    0.046946 0.362497 0.460693 0.416080
Br27  Br    Br    0.669068 0.096721 0.378836 -0.441497
Br28  Br    Br    0.641394 0.887935 0.348879 -0.359647
Br29  Br    Br    0.168129 0.597007 0.379224 -0.427603
Br30  Br    Br    0.138677 0.387038 0.348302 -0.349355
O33   O     O_3   0.470816 0.070194 0.386842 -0.635155
H67   H     H_    0.413475 0.086092 0.374581 0.374293
O34   O     O_3   0.415962 0.983224 0.361795 -0.661546
H68   H     H_    0.354135 0.999794 0.334267 0.372329
O35   O     O_3   0.977269 0.574143 0.394884 -0.647288
H69   H     H_    0.917014 0.588883 0.376549 0.391536
O36   O     O_3   0.913972 0.488925 0.364641 -0.646376
H70   H     H_    0.900675 0.495494 0.291788 0.351733
O37   O     O_3   0.263424 0.908853 0.646536 -0.628087
H71   H     H_    0.218295 0.909653 0.565025 0.371469
O38   O     O_3   0.262414 0.092057 0.647756 -0.637043
H72   H     H_    0.218352 0.091218 0.566156 0.365094
O39   O     O_3   0.763361 0.408790 0.646624 -0.627736
H73   H     H_    0.718217 0.409565 0.565113 0.371476
O40   O     O_3   0.762618 0.592004 0.647731 -0.636448
H74   H     H_    0.718594 0.591155 0.566129 0.365264
O41   O     O_3   0.796594 0.900963 0.288691 -0.636609
H75   H     H_    0.865074 0.899286 0.346328 0.334313
O42   O     O_3   0.796742 0.098870 0.284498 -0.666123
H76   H     H_    0.865458 0.100722 0.340461 0.342732
O43   O     O_3   0.296572 0.400971 0.289450 -0.636714
H77   H     H_    0.364965 0.399351 0.347591 0.334019
O44   O     O_3   0.296776 0.598868 0.284804 -0.668128
H78   H     H_    0.365488 0.600718 0.340821 0.342641
O45   O     O_3   0.658134 0.175625 0.184283 -0.651765
H79   H     H_    0.630534 0.150893 0.209104 0.355830
O46   O     O_3   0.653557 0.828375 0.187467 -0.639294
H80   H     H_    0.606594 0.800377 0.171019 0.352008
O47   O     O_3   0.158123 0.675627 0.184279 -0.652786
H81   H     H_    0.132082 0.650378 0.210198 0.357509
O48   O     O_3   0.153723 0.328423 0.187588 -0.639250
H82   H     H_    0.106943 0.300321 0.171255 0.351941
Br31  Br    Br    0.434505 0.824923 0.765868 -0.293536
Br32  Br    Br    0.440482 0.174692 0.764082 -0.326747
Br33  Br    Br    0.934715 0.324927 0.765739 -0.294685
Br34  Br    Br    0.940562 0.674597 0.763883 -0.325954

loop_
_geom_bond_atom_site_label_1
_geom_bond_atom_site_label_2
_geom_bond_distance
_ccdc_geom_bond_type
C4    C20   1.418056 A    
C31   N23   1.328001 A    
C73   C89   1.531831 S    
O38   H72   0.991999 S    
N32   Ni3   1.901318 S    
C78   C82   1.589893 S    
O43   H77   0.983218 S    
N28   N31   1.383967 A    
C77   C81   1.583653 S    
C101  C109  1.594012 S    
N22   Ni6   1.885185 S    
C93   O13   1.412093 S    
C94   O14   1.412144 S    
O30   H64   0.994264 S    
C77   O5    1.400608 S    
N8    Ni8   1.885784 S    
C31   C44   1.398371 A    
C87   C91   1.570249 S    
C7    N7    1.336957 A    
H32   C105  1.113298 S    
N13   Ni2   1.878120 S    
C8    N8    1.316800 A    
C38   N30   1.327004 A    
C35   O47   1.368939 S    
C85   C93   1.581546 S    
C2    C18   1.419029 A    
C50   C58   1.536549 S    
N23   N24   1.420311 A    
C55   C57   1.547401 S    
N9    N10   1.399118 A    
H18   C76   1.111780 S    
C102  O30   1.406510 S    
C25   N17   1.333241 A    
C106  C108  1.562164 S    
C13   N13   1.337075 A    
N11   Ni8   1.905824 S    
C15   N15   1.336903 A    
N19   N20   1.399118 A    
C16   N16   1.335930 A    
C104  C110  1.607657 S    
C47   C87   1.504764 S    
C40   C47   1.386631 A    
C24   C64   1.454419 S    
C50   C53   1.527384 S    
C54   C56   1.540982 S    
C90   Br20  1.971744 S    
C51   C64   1.529225 S    
C9    N9    1.358111 A    
C11   N11   1.358517 A    
O11   H45   0.991361 S    
C37   Br31  1.915437 S    
O44   H78   0.982824 S    
H17   C75   1.111626 S    
C65   C81   1.600553 S    
C75   C81   1.575572 S    
C5    C18   1.383222 A    
C74   C90   1.536973 S    
C1    N1    1.340971 A    
N1    Ni1   1.899823 S    
C91   Br21  1.979412 S    
N3    Ni3   1.899823 S    
C100  C104  1.558954 S    
C34   O46   1.369097 S    
N28   Ni7   1.893504 S    
C68   Br10  1.988811 S    
C44   C56   1.460155 S    
C33   O45   1.369026 S    
C69   H11   1.098179 S    
C50   C63   1.528625 S    
C97   C101  1.583146 S    
C99   Br25  1.972230 S    
C3    Br3   1.927586 S    
C98   O22   1.418382 S    
N25   Ni6   1.894523 S    
C65   Br7   1.982761 S    
C71   C87   1.583593 S    
H15   C73   1.111653 S    
C99   C108  1.592972 S    
O3    H37   0.990703 S    
C33   N25   1.333972 A    
C23   C63   1.454752 S    
O2    H36   0.990669 S    
C89   Br19  1.979452 S    
C35   C47   1.388172 A    
C25   H1    1.076557 S    
C57   C61   1.553207 S    
C27   H3    1.077074 S    
C58   C61   1.553447 S    
C66   Br12  1.972277 S    
C28   H4    1.070629 S    
C104  O28   1.418710 S    
N26   Ni5   1.893504 S    
C70   Br18  1.978285 S    
C72   H14   1.097156 S    
C77   C95   1.542573 S    
N5    Ni5   1.888266 S    
C49   C57   1.535815 S    
C67   C69   1.580299 S    
C78   O6    1.400941 S    
N13   N14   1.419821 A    
C36   N28   1.326877 A    
C59   H9    1.109906 S    
O21   H55   0.992522 S    
N2    Ni2   1.900864 S    
C32   O44   1.373332 S    
C21   C109  1.536949 S    
C22   C110  1.538540 S    
C79   C93   1.542207 S    
O17   H51   0.990794 S    
C101  O25   1.414561 S    
C5    N5    1.337160 A    
C43   C55   1.460831 S    
C39   C48   1.381248 A    
C103  C110  1.596554 S    
N30   Ni1   1.901318 S    
C52   C54   1.527445 S    
N11   N12   1.399118 A    
C72   Br16  1.978233 S    
O13   H47   0.988520 S    
C73   C83   1.575474 S    
C78   C96   1.546226 S    
C28   N20   1.312786 A    
C77   H19   1.111724 S    
C7    O11   1.356290 S    
O15   H49   0.988559 S    
C100  C108  1.594646 S    
C15   O39   1.375563 S    
O31   H65   0.992940 S    
C68   C70   1.573906 S    
C1    Br1   1.927647 S    
C34   N26   1.327061 A    
C4    Br4   1.927886 S    
C92   Br22  1.971865 S    
C6    N6    1.316882 A    
C58   H8    1.109918 S    
O5    H39   0.993718 S    
N25   N30   1.383950 A    
C85   C89   1.570245 S    
C71   H13   1.098123 S    
O39   H73   0.991969 S    
C89   O17   1.406599 S    
N15   N16   1.419821 A    
C3    C19   1.427752 A    
C15   C24   1.365506 A    
O37   H71   0.991961 S    
C100  Br26  1.997604 S    
C29   C43   1.398617 A    
C8    C19   1.382323 A    
C106  C112  1.539912 S    
C26   N18   1.313137 A    
C98   C107  1.594706 S    
C6    O10   1.351684 S    
C38   C45   1.386657 A    
C49   C53   1.526930 S    
C8    O12   1.351546 S    
C45   C85   1.504222 S    
C41   C107  1.504555 S    
C10   N10   1.329135 A    
C86   C90   1.581223 S    
O28   H62   0.985165 S    
C14   N14   1.335976 A    
C98   Br24  1.998571 S    
C69   Br17  1.975207 S    
C61   Br5   1.936049 S    
C102  C109  1.608080 S    
N21   N22   1.420311 A    
C60   C62   1.553387 S    
C80   H22   1.112004 S    
C62   C64   1.532746 S    
C6    C17   1.382499 A    
O4    H38   0.990668 S    
N19   Ni3   1.899516 S    
C19   C84   1.513126 S    
N9    Ni6   1.905824 S    
N17   N18   1.399118 A    
O34   H68   0.992791 S    
C99   C103  1.585298 S    
C5    O9    1.357571 S    
O19   H53   0.990624 S    
C36   O48   1.369240 S    
C111  O33   1.411389 S    
C9    Br27  1.917510 S    
O24   H58   0.985607 S    
C49   C63   1.529167 S    
C11   Br29  1.916607 S    
O25   H59   0.992927 S    
O16   H50   0.989476 S    
C103  O27   1.414348 S    
N15   Ni4   1.878120 S    
C93   H25   1.112083 S    
C66   C72   1.573991 S    
C97   O21   1.407214 S    
C72   C88   1.583422 S    
C79   H21   1.111756 S    
N12   Ni7   1.904824 S    
N23   Ni7   1.887615 S    
C3    N3    1.341006 A    
C112  O36   1.409350 S    
C14   C23   1.365099 A    
C69   C85   1.583219 S    
O18   H52   0.993098 S    
C79   O7    1.400543 S    
C56   C59   1.547255 S    
C57   H7    1.109913 S    
C26   H2    1.071459 S    
N14   Ni1   1.880528 S    
C91   O19   1.407079 S    
O14   H48   0.989511 S    
C76   H30   1.099202 S    
C37   N29   1.328473 A    
C100  O24   1.418463 S    
C4    N4    1.339117 A    
C96   O16   1.412187 S    
C95   H23   1.112095 S    
O29   H63   0.992907 S    
C96   H24   1.111581 S    
C61   C63   1.532814 S    
N18   Ni2   1.900503 S    
C49   O1    1.398731 S    
O46   H80   0.989232 S    
N10   Ni5   1.904824 S    
C12   Br30  1.923006 S    
C14   O38   1.375457 S    
O8    H42   0.993724 S    
C80   C84   1.589743 S    
O6    H40   0.993731 S    
C29   N21   1.328359 A    
C40   Br34  1.917168 S    
N7    Ni7   1.888266 S    
C52   C64   1.528644 S    
O1    H35   0.990707 S    
C67   C83   1.600744 S    
O42   H76   0.982769 S    
C74   H28   1.099098 S    
C16   C24   1.365058 A    
O35   H69   0.991801 S    
C11   C22   1.389869 A    
C75   H29   1.099707 S    
C104  O32   1.406502 S    
C73   H27   1.099883 S    
C26   C41   1.382368 A    
C111  O34   1.410078 S    
N1    N6    1.398401 A    
C90   O18   1.410859 S    
C95   O15   1.411963 S    
N3    N8    1.398401 A    
C55   C58   1.547871 S    
C54   H6    1.111010 S    
C48   C88   1.503948 S    
C38   Br32  1.917303 S    
O40   H74   0.992015 S    
C20   C83   1.515215 S    
C79   C83   1.583428 S    
C51   O3    1.398777 S    
C88   C96   1.581806 S    
C27   C42   1.406509 A    
C67   Br13  1.975924 S    
C112  O35   1.411838 S    
H34   C106  1.113826 S    
C105  C111  1.546250 S    
C102  O26   1.418094 S    
C78   H20   1.111935 S    
N16   Ni3   1.880528 S    
C27   N19   1.334365 A    
C76   C92   1.537054 S    
C80   O8    1.400980 S    
C110  C112  1.584448 S    
C2    Br2   1.927888 S    
C32   C44   1.398640 A    
C32   N24   1.329470 A    
C98   C102  1.560900 S    
N31   Ni4   1.898809 S    
O45   H79   0.981743 S    
C42   C108  1.505879 S    
C86   C94   1.581771 S    
C36   C48   1.398103 A    
N20   Ni4   1.900503 S    
C87   C95   1.581512 S    
C30   O42   1.373293 S    
O48   H82   0.989239 S    
C50   O2    1.398987 S    
O41   H75   0.983124 S    
C29   O41   1.373325 S    
C40   N32   1.327124 A    
C51   C54   1.526980 S    
C1    C17   1.427763 A    
O47   H81   0.981356 S    
C60   H10   1.109929 S    
C75   C91   1.531985 S    
C7    C20   1.383346 A    
C10   C21   1.374907 A    
O23   H57   0.992545 S    
C109  C111  1.581677 S    
C76   C82   1.566049 S    
C30   C43   1.398764 A    
C17   C82   1.513197 S    
C18   C81   1.515728 S    
C46   C86   1.504121 S    
C51   C59   1.535757 S    
C10   Br28  1.922916 S    
O10   H44   0.986536 S    
N17   Ni1   1.899516 S    
N29   Ni2   1.898809 S    
C71   Br15  1.975374 S    
O27   H61   0.992932 S    
C94   H26   1.111563 S    
N27   Ni8   1.894523 S    
C99   O23   1.406930 S    
C2    N2    1.339511 A    
C28   C42   1.382318 A    
H16   C74   1.111775 S    
C53   H5    1.111016 S    
C33   C45   1.387901 A    
C74   C84   1.565986 S    
C52   O4    1.398966 S    
C59   C62   1.553114 S    
C35   N27   1.334116 A    
C12   N12   1.328824 A    
C31   O43   1.373316 S    
H31   C105  1.112944 S    
O33   H67   0.991614 S    
N26   N29   1.383967 A    
C13   O37   1.375648 S    
C62   Br6   1.935916 S    
C68   Br14  1.972865 S    
O22   H56   0.985983 S    
O7    H41   0.993723 S    
C12   C22   1.377396 A    
H33   C106  1.113048 S    
O9    H43   0.992202 S    
C9    C21   1.390214 A    
C92   O20   1.410865 S    
C103  O31   1.412269 S    
O32   H66   0.994139 S    
C65   Br11  1.975856 S    
O36   H70   0.991480 S    
N21   Ni5   1.887616 S    
C101  O29   1.412814 S    
C37   C46   1.381208 A    
O12   H46   0.986517 S    
C30   N22   1.329635 A    
C80   C94   1.546539 S    
C52   C60   1.536534 S    
C68   C84   1.600619 S    
C66   Br8   1.988776 S    
O20   H54   0.993096 S    
C70   C86   1.583679 S    
N4    N7    1.398384 A    
C25   C41   1.406016 A    
C97   Br23  1.971402 S    
O26   H60   0.985871 S    
C13   C23   1.365605 A    
N2    N5    1.398384 A    
C39   N31   1.328424 A    
N24   Ni8   1.885186 S    
C97   C107  1.593045 S    
C34   C46   1.398001 A    
C56   C60   1.547701 S    
C88   C92   1.581172 S    
C65   C71   1.580215 S    
N4    Ni4   1.900864 S    
N6    Ni6   1.885784 S    
N27   N32   1.383950 A    
C16   O40   1.375482 S    
C66   C82   1.600575 S    
C67   Br9   1.981798 S    
C53   C55   1.541152 S    
C70   H12   1.097176 S    
C39   Br33  1.915659 S    
C105  C107  1.561344 S    
