data_mof_unit_65535.cif
_audit_creation_date              2012-12-10T17:59:50-0500
_audit_creation_method            fapswitch 2.2
_symmetry_space_group_name_H-M    P1
_symmetry_Int_Tables_number       1
_space_group_crystal_system       triclinic
_cell_length_a                    30.700818
_cell_length_b                    31.970094
_cell_length_c                    21.750653
_cell_angle_alpha                 89.832656
_cell_angle_beta                  134.93881
_cell_angle_gamma                 90.291973
_cell_volume                      15111.5370734

loop_
_atom_site_label
_atom_site_type_symbol
_atom_type_description
_atom_site_fract_x
_atom_site_fract_y
_atom_site_fract_z
_atom_type_partial_charge
C1    C     C_R   0.500215 0.998619 0.381533 0.829570
C2    C     C_3   0.000575 0.791564 0.500778 -0.062339
C3    C     C_3   0.790427 0.077520 0.267327 -0.483065
C4    C     C_R   0.716453 0.464007 0.714275 -0.025168
C5    C     C_R   0.216453 0.964009 0.714253 -0.025171
C6    C     C_R   0.684711 0.501598 0.685896 -0.156967
C7    C     C_R   0.184712 0.001599 0.685896 -0.156981
C8    C     C_R   0.717725 0.538746 0.731761 0.339298
C9    C     C_R   0.217726 0.038743 0.731784 0.339320
C10   C     C_3   0.472221 0.764275 0.421042 -0.292386
C11   C     C_3   0.523228 0.236209 0.468690 -0.258765
C12   C     C_3   0.972187 0.264276 0.421025 -0.292375
C13   C     C_3   0.556996 0.764287 0.561650 -0.179720
C14   C     C_3   0.023214 0.736209 0.468669 -0.258767
C15   C     C_R   0.282317 0.037567 0.797645 -0.215839
C16   C     C_R   0.782316 0.537571 0.797622 -0.215839
C17   C     C_R   0.313993 0.000094 0.817364 -0.130171
C18   C     C_R   0.813993 0.500095 0.817363 -0.130163
C19   C     C_R   0.279703 0.963251 0.777014 0.067053
C20   C     C_R   0.779703 0.463250 0.777035 0.067036
C21   C     C_3   0.281139 0.926952 0.734021 -0.087537
C22   C     C_3   0.781138 0.426939 0.734062 -0.087527
C23   C     C_3   0.710539 0.428132 0.665045 -0.465191
C24   C     C_3   0.536150 0.235791 0.582357 -0.171426
C25   C     C_3   0.210540 0.928146 0.665003 -0.465174
C26   C     C_1   0.499574 0.875028 0.500012 -0.102780
C27   C     C_1   0.500601 0.124984 0.499862 -0.071582
C28   C     C_1   0.999574 0.375028 0.500013 -0.102779
C29   C     C_1   0.000601 0.624984 0.499862 -0.071584
C30   C     C_1   0.499065 0.624937 0.499086 -0.018020
C31   C     C_1   0.500332 0.375069 0.500598 -0.083800
C32   C     C_1   0.999064 0.124937 0.499084 -0.018018
C33   C     C_1   0.000332 0.875069 0.500598 -0.083796
C34   C     C_3   0.466671 0.763541 0.516334 -0.071448
C35   C     C_3   0.056999 0.264286 0.561613 -0.179724
C36   C     C_3   0.443205 0.235996 0.450611 -0.071238
C37   C     C_3   0.966703 0.263541 0.516387 -0.071449
C38   C     C_3   0.943207 0.735996 0.450629 -0.071236
C39   C     C_3   0.498493 0.791479 0.499800 -0.016386
C40   C     C_3   0.500637 0.208544 0.500154 -0.029386
C41   C     C_3   0.998494 0.291478 0.499801 -0.016393
C42   C     C_3   0.000637 0.708544 0.500154 -0.029387
C43   C     C_2   0.555298 0.073417 0.742497 0.873878
C44   C     C_2   0.055296 0.573417 0.742496 0.873878
C45   C     C_2   0.306653 0.887135 0.786845 0.882989
C46   C     C_3   0.036162 0.735791 0.582360 -0.171428
C47   C     C_2   0.306498 0.935936 0.695673 0.830457
C48   C     C_2   0.806654 0.387129 0.786911 0.882996
C49   C     C_2   0.806495 0.435906 0.695706 0.830480
C50   C     C_2   0.430964 0.777931 0.535671 0.945914
C51   C     C_2   0.378183 0.221245 0.394320 0.951820
C52   C     C_2   0.931033 0.277931 0.535784 0.945920
C53   C     C_2   0.878187 0.721245 0.394357 0.951820
C54   C     C_2   0.581829 0.940081 0.398567 0.918967
C55   C     C_2   0.081830 0.440081 0.398567 0.918969
C56   C     C_2   0.588635 0.944947 0.270962 0.969766
C57   C     C_3   0.530157 0.736615 0.483325 0.367503
C58   C     C_2   0.088635 0.444947 0.270963 0.969764
C59   C     C_2   0.358513 0.013323 0.045773 0.819159
C60   C     C_2   0.399782 0.087169 0.088888 0.861610
C61   C     C_2   0.858513 0.513322 0.045773 0.819161
C62   C     C_2   0.899781 0.587168 0.088887 0.861617
C63   C     C_3   0.557548 0.263960 0.549910 0.444725
C64   C     C_3   0.030125 0.236615 0.483272 0.367498
C65   C     C_3   0.057546 0.763960 0.549893 0.444730
C66   C     C_1   0.499158 0.837336 0.499891 0.089242
C67   C     C_R   0.000215 0.498619 0.381533 0.829570
C68   C     C_1   0.500899 0.162681 0.500207 0.106549
C69   C     C_1   0.999158 0.337336 0.499892 0.089244
C70   C     C_1   0.000899 0.662681 0.500206 0.106549
C71   C     C_1   0.498872 0.662604 0.499324 0.144973
C72   C     C_1   0.500502 0.337401 0.500848 0.134478
C73   C     C_1   0.998871 0.162605 0.499322 0.144979
C74   C     C_1   0.000502 0.837401 0.500848 0.134481
C75   C     C_R   0.469415 0.027025 0.251249 0.020247
C76   C     C_R   0.969415 0.527025 0.251249 0.020248
C77   C     C_R   0.501851 0.997070 0.316542 -0.111555
C78   C     C_3   0.524824 0.735784 0.578238 -0.279227
C79   C     C_R   0.001851 0.497070 0.316542 -0.111556
C80   C     C_R   0.543470 0.970678 0.326040 -0.082423
C81   C     C_R   0.043471 0.470678 0.326040 -0.082423
C82   C     C_R   0.546044 0.972548 0.263255 -0.212103
C83   C     C_R   0.046044 0.472548 0.263255 -0.212102
C84   C     C_R   0.499894 0.919891 0.500114 0.833895
C85   C     C_R   0.500160 0.080112 0.499542 0.857544
C86   C     C_R   0.999894 0.419891 0.500114 0.833898
C87   C     C_R   0.000160 0.580112 0.499542 0.857546
C88   C     C_R   0.506013 0.000013 0.191331 -0.116420
C89   C     C_3   0.478111 0.263765 0.532213 -0.303247
C90   C     C_R   0.006013 0.500013 0.191331 -0.116420
C91   C     C_R   0.470487 0.027953 0.189492 0.092502
C92   C     C_R   0.970487 0.527953 0.189492 0.092499
C93   C     C_3   0.405036 0.043329 0.119944 -0.124084
C94   C     C_3   0.905036 0.543329 0.119944 -0.124085
C95   C     C_3   0.404541 0.042150 0.190103 -0.467566
C96   C     C_3   0.904541 0.542149 0.190102 -0.467570
C97   C     C_R   0.466312 0.972364 0.683995 0.105714
C98   C     C_R   0.966313 0.472363 0.683996 0.105723
C99   C     C_R   0.498476 0.003180 0.683590 -0.147466
C100  C     C_3   0.024858 0.235784 0.578254 -0.279203
C101  C     C_R   0.998476 0.503180 0.683590 -0.147471
C102  C     C_R   0.525951 0.036759 0.743831 -0.056851
C103  C     C_R   0.025951 0.536759 0.743830 -0.056854
C104  C     C_R   0.525726 0.035299 0.808223 -0.223647
C105  C     C_R   0.025726 0.535300 0.808222 -0.223641
C106  C     C_R   0.499642 0.001182 0.813854 -0.121309
C107  C     C_R   0.999642 0.501182 0.813854 -0.121328
C108  C     C_R   0.467442 0.971090 0.748479 0.170162
C109  C     C_R   0.967442 0.471090 0.748479 0.170170
C110  C     C_R   0.499825 0.000540 0.618485 0.840576
C111  C     C_3   0.978125 0.763764 0.532233 -0.303246
C112  C     C_R   0.999825 0.500540 0.618485 0.840583
C113  C     C_3   0.471815 0.924516 0.754280 -0.415185
C114  C     C_3   0.971816 0.424516 0.754282 -0.415172
C115  C     C_3   0.470039 0.925857 0.682691 -0.483809
C116  C     C_3   0.970041 0.425856 0.682693 -0.483815
C117  C     C_R   0.381465 0.499954 0.381674 0.773041
C118  C     C_R   0.881465 0.999954 0.381674 0.773040
C119  C     C_R   0.499426 0.580103 0.499380 0.862870
C120  C     C_R   0.500078 0.419896 0.500155 0.786059
C121  C     C_R   0.999425 0.080103 0.499380 0.862855
C122  C     C_3   0.498645 0.708444 0.499685 -0.042489
C123  C     C_R   0.000078 0.919896 0.500155 0.786062
C124  C     C_R   0.618440 0.500600 0.618429 0.872762
C125  C     C_R   0.118440 0.000601 0.618429 0.872760
C126  C     C_R   0.619259 0.000136 0.118576 0.811086
C127  C     C_R   0.119259 0.500136 0.118575 0.811088
C128  C     C_R   0.501416 0.999968 0.120272 0.816246
C129  C     C_R   0.001416 0.499968 0.120272 0.816248
C130  C     C_R   0.380871 0.999941 0.881167 0.871355
C131  C     C_R   0.880871 0.499941 0.881167 0.871347
C132  C     C_R   0.500683 0.000122 0.881578 0.836693
C133  C     C_3   0.500575 0.291564 0.500778 -0.062338
C134  C     C_R   0.000683 0.500122 0.881578 0.836686
C135  C     C_R   0.283475 0.536816 0.293027 -0.028490
C136  C     C_R   0.783475 0.036816 0.293029 -0.028484
C137  C     C_3   0.441072 0.735960 0.438840 0.380844
C138  C     C_3   0.465748 0.263983 0.420016 0.375076
C139  C     C_3   0.941070 0.235961 0.438876 0.380835
C140  C     C_3   0.965735 0.763983 0.420013 0.375078
C141  C     C_R   0.315384 0.499658 0.316967 -0.004462
C142  C     C_R   0.815383 0.999658 0.316967 -0.004464
C143  C     C_R   0.282911 0.461775 0.284081 -0.159477
C144  C     C_3   0.998644 0.208444 0.499683 -0.042493
C145  C     C_R   0.782912 0.961775 0.284079 -0.159473
C146  C     C_R   0.718560 0.961997 0.219883 -0.085172
C147  C     C_R   0.218560 0.461996 0.219884 -0.085171
C148  C     C_R   0.686243 0.000193 0.187772 -0.069446
C149  C     C_R   0.186243 0.500193 0.187772 -0.069446
C150  C     C_R   0.719938 0.037449 0.228545 0.004216
C151  C     C_R   0.219938 0.537449 0.228543 0.004219
C152  C     C_3   0.720132 0.078958 0.195435 0.680169
C153  C     C_3   0.220132 0.578957 0.195432 0.680167
C154  C     C_3   0.290427 0.577519 0.267323 -0.483064
Cu1   Cu    Cu3+1 0.438230 1.000000 0.438170 1.048210
Cu2   Cu    Cu3+1 0.500030 0.041430 0.000020 1.156652
Cu3   Cu    Cu3+1 0.000030 0.458570 0.000020 1.080610
Cu4   Cu    Cu3+1 0.000030 0.541430 0.000020 1.156653
Cu5   Cu    Cu3+1 0.938230 0.500000 0.438170 1.048205
Cu6   Cu    Cu3+1 0.561800 0.000000 0.561830 1.055218
Cu7   Cu    Cu3+1 0.061800 0.500000 0.561830 1.055213
Cu8   Cu    Cu3+1 0.499880 0.500000 0.438060 1.076134
Cu9   Cu    Cu3+1 0.999880 0.000000 0.438060 1.076130
Cu10  Cu    Cu3+1 0.500000 0.500000 0.561790 1.086282
Cu11  Cu    Cu3+1 0.000000 0.000000 0.561790 1.086309
Cu12  Cu    Cu3+1 0.500030 0.958570 0.000020 1.080608
H1    H     H_    0.450773 0.775866 0.356570 0.199075
H2    H     H_    0.047284 0.560310 0.855472 0.237995
H3    H     H_    0.430339 0.909698 0.733610 0.219027
H4    H     H_    0.516478 0.913356 0.817506 0.212967
H5    H     H_    0.930341 0.409697 0.733611 0.219016
H6    H     H_    0.016479 0.413356 0.817508 0.212967
H7    H     H_    0.427301 0.912052 0.620529 0.223205
H8    H     H_    0.513482 0.915209 0.704133 0.208210
H9    H     H_    0.927303 0.412052 0.620531 0.223205
H10   H     H_    0.013483 0.415209 0.704135 0.208220
H11   H     H_    0.307175 0.432281 0.306020 0.155131
H12   H     H_    0.541891 0.224994 0.442816 0.208953
H13   H     H_    0.807175 0.932282 0.306017 0.155135
H14   H     H_    0.694374 0.932358 0.193504 0.183969
H15   H     H_    0.194374 0.432358 0.193507 0.183970
H16   H     H_    0.312382 0.601508 0.319013 0.242582
H17   H     H_    0.312989 0.573859 0.244258 0.226897
H18   H     H_    0.812382 0.101509 0.319017 0.242586
H19   H     H_    0.812989 0.073861 0.244262 0.226892
H20   H     H_    0.307830 0.066178 0.831161 0.209975
H21   H     H_    0.807829 0.566184 0.831121 0.209980
H22   H     H_    0.688427 0.400645 0.665580 0.240567
H23   H     H_    0.950710 0.275867 0.356540 0.199079
H24   H     H_    0.688511 0.437546 0.598993 0.220063
H25   H     H_    0.188426 0.900653 0.665519 0.240563
H26   H     H_    0.188514 0.937571 0.598957 0.220068
H27   H     H_    0.605033 0.776127 0.611789 0.194718
H28   H     H_    0.565877 0.223976 0.649682 0.195748
H29   H     H_    0.105037 0.276126 0.611722 0.194720
H30   H     H_    0.065899 0.723976 0.649687 0.195748
H31   H     H_    0.546154 0.723917 0.642490 0.208709
H32   H     H_    0.459412 0.275240 0.557890 0.205489
H33   H     H_    0.046217 0.223916 0.642520 0.208723
H34   H     H_    0.041865 0.724994 0.442779 0.208952
H35   H     H_    0.959438 0.775240 0.557927 0.205490
H36   H     H_    0.616044 0.121188 0.809220 0.358099
H37   H     H_    0.116041 0.621189 0.809218 0.358098
H38   H     H_    0.694165 0.188453 0.210165 0.382633
H39   H     H_    0.682401 0.031447 0.008966 0.380281
H40   H     H_    0.194203 0.688454 0.210217 0.382675
H41   H     H_    0.182405 0.531445 0.008965 0.380283
H42   H     H_    0.668347 0.597367 0.594241 0.368090
H43   H     H_    0.168356 0.097387 0.594303 0.368093
H44   H     H_    0.274581 0.745846 0.258971 0.393892
H45   H     H_    0.373189 0.018246 0.179246 0.224309
H46   H     H_    0.361955 0.254481 0.185367 0.390280
H47   H     H_    0.774567 0.245849 0.259143 0.393870
H48   H     H_    0.861908 0.754481 0.185357 0.390280
H49   H     H_    0.312129 0.824274 0.786938 0.348384
H50   H     H_    0.313419 0.916672 0.614600 0.335014
H51   H     H_    0.812131 0.324267 0.787041 0.348385
H52   H     H_    0.813415 0.416617 0.614643 0.335012
H53   H     H_    0.563451 0.776599 0.401718 0.350411
H54   H     H_    0.723548 0.255213 0.693716 0.390869
H55   H     H_    0.063355 0.276603 0.401589 0.350411
H56   H     H_    0.401908 0.073390 0.209693 0.214477
H57   H     H_    0.223540 0.755213 0.693650 0.390862
H58   H     H_    0.398289 0.826334 0.552342 0.342741
H59   H     H_    0.319186 0.172576 0.341336 0.352457
H60   H     H_    0.898391 0.326334 0.552510 0.342728
H61   H     H_    0.819192 0.672576 0.341390 0.352455
H62   H     H_    0.585188 0.894322 0.465850 0.341660
H63   H     H_    0.085188 0.394323 0.465850 0.341660
H64   H     H_    0.631781 0.993324 0.272156 0.283636
H65   H     H_    0.131781 0.493324 0.272156 0.283635
H66   H     H_    0.341418 0.958929 0.984939 0.357712
H67   H     H_    0.873189 0.518245 0.179245 0.224308
H68   H     H_    0.347656 0.138883 0.027959 0.359729
H69   H     H_    0.841419 0.458928 0.984940 0.357725
H70   H     H_    0.847654 0.638883 0.027958 0.359727
H71   H     H_    0.901907 0.573389 0.209692 0.214476
H72   H     H_    0.547285 0.060310 0.855474 0.237990
O1    O     O_R   0.447840 0.000000 0.357610 -0.581120
O2    O     O_R   0.090140 0.000000 0.642300 -0.546079
O3    O     O_2   0.137149 0.809586 0.562370 -0.240715
O4    O     O_2   0.151765 0.808961 0.688896 -0.280157
O5    O     O_3   0.182281 0.742417 0.657841 -0.498066
O6    O     O_2   0.409134 0.752101 0.549314 -0.518745
O7    O     O_R   0.422990 0.820636 0.538372 -0.763543
O8    O     O_2   0.337236 0.246834 0.360770 -0.524515
O9    O     O_R   0.364637 0.178499 0.380492 -0.745441
O10   O     O_2   0.909227 0.252101 0.549464 -0.518749
O11   O     O_R   0.923066 0.320636 0.538499 -0.763556
O12   O     O_2   0.837242 0.746834 0.360819 -0.524513
O13   O     O_R   0.590180 0.965000 0.090240 -0.587329
O14   O     O_R   0.864641 0.678499 0.380532 -0.745439
O15   O     O_2   0.637073 0.937820 0.443549 -0.543406
O16   O     O_R   0.554520 0.913848 0.415121 -0.764509
O17   O     O_2   0.137073 0.437820 0.443549 -0.543410
O18   O     O_R   0.054520 0.413848 0.415122 -0.764509
O19   O     O_2   0.586024 0.907093 0.275541 -0.488930
O20   O     O_R   0.631676 0.961628 0.272723 -0.721240
O21   O     O_2   0.086024 0.407093 0.275541 -0.488923
O22   O     O_R   0.131676 0.461628 0.272723 -0.721243
O23   O     O_2   0.303774 0.021983 0.992986 -0.515978
O24   O     O_R   0.590180 0.035000 0.090240 -0.527590
O25   O     O_R   0.377161 0.975727 0.037695 -0.756746
O26   O     O_2   0.441751 0.102547 0.100631 -0.545091
O27   O     O_R   0.346192 0.110080 0.046080 -0.686853
O28   O     O_2   0.803774 0.521982 0.992986 -0.515986
O29   O     O_R   0.877161 0.475726 0.037696 -0.756735
O30   O     O_2   0.941750 0.602547 0.100629 -0.545088
O31   O     O_R   0.846191 0.610079 0.046080 -0.686862
O32   O     O_R   0.090180 0.465000 0.090240 -0.587329
O33   O     O_R   0.090180 0.535000 0.090240 -0.527593
O34   O     O_R   0.500040 0.965010 0.090190 -0.548167
O35   O     O_R   0.500040 0.034990 0.090190 -0.552968
O36   O     O_R   0.000040 0.465010 0.090190 -0.548162
O37   O     O_R   0.000040 0.534990 0.090190 -0.552968
O38   O     O_R   0.409890 0.965030 0.909800 -0.555913
O39   O     O_R   0.947840 0.500000 0.357610 -0.581121
O40   O     O_R   0.409890 0.034970 0.909800 -0.589831
O41   O     O_R   0.909890 0.465030 0.909800 -0.555913
O42   O     O_R   0.909890 0.534970 0.909800 -0.589839
O43   O     O_R   0.500040 0.965020 0.909850 -0.596034
O44   O     O_R   0.500040 0.034980 0.909850 -0.553377
O45   O     O_R   0.000040 0.465020 0.909850 -0.596026
O46   O     O_R   0.000040 0.534980 0.909850 -0.553380
O47   O     O_R   0.552190 0.000000 0.462050 -0.580084
O48   O     O_R   0.052190 0.500000 0.462050 -0.580085
O49   O     O_R   0.447840 0.939540 0.447780 -0.566519
O50   O     O_R   0.500000 0.560470 0.552180 -0.556895
O51   O     O_R   0.447840 0.060460 0.447780 -0.568503
O52   O     O_R   0.947840 0.439540 0.447780 -0.566525
O53   O     O_R   0.947840 0.560460 0.447780 -0.568503
O54   O     O_R   0.552190 0.939560 0.552210 -0.577531
O55   O     O_R   0.552190 0.060440 0.552210 -0.557440
O56   O     O_R   0.052190 0.439560 0.552210 -0.577530
O57   O     O_R   0.052190 0.560440 0.552210 -0.557442
O58   O     O_R   0.447840 0.000000 0.537950 -0.572925
O59   O     O_R   0.947840 0.500000 0.537950 -0.572924
O60   O     O_R   0.552190 0.000000 0.642390 -0.571930
O61   O     O_R   0.500000 0.439530 0.552180 -0.579844
O62   O     O_R   0.052190 0.500000 0.642390 -0.571930
O63   O     O_R   0.409740 0.500000 0.357550 -0.573572
O64   O     O_R   0.909740 1.000000 0.357550 -0.573571
O65   O     O_R   0.409840 0.500000 0.462040 -0.574732
O66   O     O_R   0.909840 0.000000 0.462040 -0.574729
O67   O     O_R   0.499890 0.560480 0.447700 -0.557040
O68   O     O_R   0.499890 0.439520 0.447700 -0.561441
O69   O     O_R   0.999890 0.060480 0.447700 -0.557057
O70   O     O_R   0.999890 0.939520 0.447700 -0.561441
O71   O     O_2   0.539775 0.083990 0.675311 -0.609726
O72   O     O_R   0.000000 0.060470 0.552180 -0.556875
O73   O     O_R   0.599843 0.096788 0.818270 -0.714782
O74   O     O_2   0.039773 0.583990 0.675310 -0.609726
O75   O     O_R   0.099841 0.596789 0.818268 -0.714782
O76   O     O_2   0.620724 0.118400 0.144189 -0.233095
O77   O     O_2   0.715178 0.118816 0.299913 -0.271610
O78   O     O_3   0.710528 0.166719 0.198621 -0.450783
O79   O     O_2   0.622132 0.084680 0.020960 -0.262842
O80   O     O_2   0.720524 0.112142 0.081666 -0.195335
O81   O     O_3   0.706018 0.031488 0.071467 -0.569606
O82   O     O_2   0.120725 0.618403 0.144182 -0.233059
O83   O     O_R   0.000000 0.939530 0.552180 -0.579844
O84   O     O_2   0.215176 0.618816 0.299907 -0.271640
O85   O     O_3   0.210534 0.666719 0.198622 -0.450799
O86   O     O_2   0.122132 0.584677 0.020956 -0.262840
O87   O     O_2   0.220523 0.612140 0.081660 -0.195340
O88   O     O_3   0.206019 0.531486 0.071466 -0.569607
O89   O     O_2   0.637650 0.584854 0.715629 -0.232175
O90   O     O_2   0.725620 0.622123 0.758892 -0.240128
O91   O     O_3   0.638327 0.597658 0.598568 -0.514146
O92   O     O_2   0.137649 0.084836 0.715672 -0.232131
O93   O     O_2   0.225623 0.122114 0.758965 -0.240162
O94   O     O_R   0.590030 0.500000 0.537810 -0.580101
O95   O     O_3   0.138334 0.097671 0.598626 -0.514195
O96   O     O_2   0.356826 0.692585 0.290798 -0.239523
O97   O     O_2   0.349833 0.689377 0.396423 -0.237277
O98   O     O_3   0.315808 0.758066 0.307721 -0.495725
O99   O     O_2   0.370277 0.310880 0.287999 -0.252975
O100  O     O_2   0.459389 0.306893 0.307699 -0.243410
O101  O     O_3   0.387089 0.241914 0.243616 -0.504586
O102  O     O_2   0.856777 0.192593 0.290837 -0.239482
O103  O     O_2   0.849863 0.189375 0.396544 -0.237274
O104  O     O_3   0.815804 0.258070 0.307847 -0.495722
O105  O     O_R   0.090030 0.000000 0.537810 -0.580111
O106  O     O_2   0.870255 0.810880 0.288012 -0.252980
O107  O     O_2   0.959349 0.806893 0.307670 -0.243409
O108  O     O_3   0.887050 0.741914 0.243608 -0.504586
O109  O     O_2   0.338929 0.888220 0.865082 -0.560730
O110  O     O_R   0.292961 0.848825 0.745416 -0.677031
O111  O     O_2   0.336220 0.967712 0.714763 -0.620463
O112  O     O_R   0.295096 0.907393 0.637038 -0.696739
O113  O     O_2   0.838931 0.388227 0.865147 -0.560742
O114  O     O_R   0.792962 0.348812 0.745505 -0.677020
O115  O     O_2   0.836214 0.467679 0.714774 -0.620462
O116  O     O_R   0.590140 0.500000 0.642300 -0.546091
O117  O     O_R   0.795093 0.407349 0.637089 -0.696716
O118  O     O_2   0.626053 0.692698 0.536772 -0.188755
O119  O     O_2   0.532452 0.692502 0.380552 -0.236880
O120  O     O_3   0.600267 0.759851 0.448856 -0.462665
O121  O     O_2   0.637169 0.309586 0.562426 -0.240706
O122  O     O_2   0.651755 0.308960 0.688927 -0.280159
O123  O     O_3   0.682288 0.242417 0.657895 -0.498061
O124  O     O_2   0.125986 0.192691 0.536619 -0.188828
O125  O     O_2   0.032345 0.192507 0.380419 -0.236874
O126  O     O_3   0.100174 0.259850 0.448701 -0.462650
S1    S     S_3+6 0.689713 0.121027 0.210321 0.090128
S2    S     S_3+6 0.919533 0.782796 0.312212 0.049815
S3    S     S_3+6 0.573042 0.718671 0.461670 0.077046
S4    S     S_3+6 0.634032 0.283096 0.616411 0.038358
S5    S     S_3+6 0.072966 0.218671 0.461545 0.077034
S6    S     S_3+6 0.134027 0.783096 0.616371 0.038351
S7    S     S_3+6 0.690476 0.077887 0.088619 0.054272
S8    S     S_3+6 0.189714 0.621027 0.210317 0.090136
S9    S     S_3+6 0.190476 0.577886 0.088615 0.054272
S10   S     S_3+6 0.680028 0.587305 0.703412 0.043411
S11   S     S_3+6 0.180030 0.087300 0.703463 0.043399
S12   S     S_3+6 0.363996 0.717082 0.356394 0.056402
S13   S     S_3+6 0.419562 0.282796 0.312219 0.049818
S14   S     S_3+6 0.863989 0.217084 0.356475 0.056414

loop_
_geom_bond_atom_site_label_1
_geom_bond_atom_site_label_2
_ccdc_geom_bond_type
C36   C89   S    
H59   O9    S    
O98   S12   S    
Cu3   Cu4   S    
C86   O52   A    
H66   O25   S    
C49   O117  S    
C1    C77   S    
C96   H71   S    
C44   O74   D    
C71   C122  S    
C132  O44   A    
C28   C69   T    
C76   C79   A    
C60   O27   S    
Cu6   O47   S    
C2    C65   S    
H51   O114  S    
C30   C71   T    
C75   C95   S    
Cu7   O57   S    
C104  H72   S    
C89   H32   S    
C63   C133  S    
Cu9   Cu11  S    
C115  H8    S    
C23   H22   S    
Cu6   O54   S    
C118  O64   A    
C152  S7    S    
C61   O29   S    
C27   C68   T    
C47   O112  S    
H57   O5    S    
C121  O72   A    
C127  O32   A    
O104  S14   S    
Cu5   Cu7   S    
C97   C115  S    
C3    H18   S    
O100  S13   D    
Cu3   O45   S    
C60   C93   S    
C147  H15   S    
Cu4   O46   S    
C132  O43   A    
C8    C16   A    
C98   C109  A    
H47   O104  S    
Cu1   O51   S    
C129  O36   A    
H37   O75   S    
C49   O115  D    
C52   O10   D    
C104  C106  A    
C145  C146  A    
Cu8   Cu10  S    
C45   O109  D    
C2    C111  S    
C95   H56   S    
C67   C79   S    
C46   C65   S    
C100  C144  S    
Cu3   O36   S    
C4    C23   S    
C61   C94   S    
C99   C110  S    
Cu9   O105  S    
Cu4   O33   S    
C58   O22   S    
C126  O13   A    
Cu11  O83   S    
C108  C113  S    
C124  O116  A    
C10   C57   S    
O92   S11   D    
C90   C92   A    
H42   O91   S    
Cu2   Cu12  S    
C145  H13   S    
C92   C94   S    
C12   C139  S    
C146  H14   S    
O103  S14   D    
O101  S13   S    
C94   C96   S    
Cu12  O38   S    
C131  O42   A    
C22   C49   S    
C5    C25   S    
C24   C63   S    
H50   O112  S    
O108  S2    S    
C41   C69   S    
C123  O83   A    
O89   S10   D    
C32   C121  S    
C122  C137  S    
C25   H26   S    
C114  H6    S    
C46   H30   S    
C113  H4    S    
O119  S3    D    
Cu1   O58   S    
C9    C15   A    
C76   C96   S    
C72   C133  S    
C38   C53   S    
C124  O94   A    
C110  O60   A    
C55   O17   D    
C151  C153  S    
C128  O35   A    
C139  S14   S    
H39   O81   S    
C22   C23   S    
C113  C115  S    
C73   C144  S    
H60   O11   S    
O76   S1    D    
Cu7   O56   S    
C111  H35   S    
Cu4   O37   S    
C101  C112  S    
C105  C107  A    
C59   O25   S    
C19   C21   S    
C11   C138  S    
C148  C150  A    
C107  C134  S    
C11   C63   S    
C149  C151  A    
C9    S11   S    
C135  C151  A    
C13   C57   S    
O102  S14   D    
C42   C70   S    
C3    C136  S    
O125  S5    D    
Cu10  O116  S    
C62   O30   D    
C90   C129  S    
C96   H67   S    
C55   C81   S    
H38   O78   S    
C75   C91   A    
O81   S7    S    
C93   C95   S    
H41   O88   S    
C127  O33   A    
O97   S12   D    
C54   O16   S    
C3    H19   S    
C81   C83   A    
C44   C103  S    
C21   C45   S    
H69   O29   S    
C114  H5    S    
C31   C120  S    
C89   C133  S    
C34   C39   S    
C26   C66   T    
O93   S11   D    
C80   C82   A    
C37   C52   S    
H68   O27   S    
C110  O58   A    
C134  O46   A    
O99   S13   D    
C123  O70   A    
C4    C20   A    
O126  S5    S    
Cu2   O40   S    
C48   O113  D    
O86   S9    D    
Cu3   O41   S    
C65   S6    S    
Cu4   O42   S    
C84   O54   A    
C88   C91   A    
C24   H28   S    
C85   O55   A    
C154  H17   S    
C103  C105  A    
H49   O110  S    
C75   C77   A    
C125  O2    A    
C109  C114  S    
O4    S6    D    
O123  S4    S    
C14   C140  S    
Cu5   O39   S    
C130  O38   A    
C35   C100  S    
Cu7   O48   S    
C153  S8    S    
C63   S4    S    
C21   C25   S    
C13   C78   S    
Cu11  O2    S    
C26   C84   S    
C119  O67   A    
C116  H9    S    
C17   C130  S    
C131  O41   A    
C59   O23   D    
O95   S11   S    
C114  C116  S    
C56   C82   S    
C105  H2    S    
C95   H45   S    
Cu5   O52   S    
C115  H7    S    
Cu6   O55   S    
C127  C149  S    
Cu2   O44   S    
C106  C108  A    
C82   C88   A    
C140  S2    S    
H70   O31   S    
C14   C65   S    
Cu2   O24   S    
C53   O12   D    
C143  H11   S    
C37   C41   S    
C11   C40   S    
C35   C41   S    
C61   O28   D    
C29   C87   S    
H52   O117  S    
C135  C141  A    
C101  C103  A    
O3    S6    D    
O90   S10   D    
Cu8   O67   S    
Cu5   O59   S    
Cu12  O43   S    
Cu7   O62   S    
C23   H24   S    
C21   C47   S    
C22   C48   S    
O5    S6    S    
C60   O26   D    
C56   O19   D    
C44   O75   S    
C1    O47   A    
C18   C131  S    
H46   O101  S    
C1    O1    A    
C12   H23   S    
C3    C152  S    
C112  O62   A    
C135  C154  S    
C147  C149  A    
C67   O48   A    
C141  C143  A    
O88   S9    S    
C42   C46   S    
Cu9   O70   S    
C27   C85   S    
C137  S12   S    
Cu10  O61   S    
C136  C142  A    
C64   S5    S    
C57   C122  S    
Cu9   O64   S    
Cu8   O94   S    
O79   S7    D    
C87   O53   A    
C67   O39   A    
C54   C80   S    
C35   H29   S    
C138  S13   S    
Cu1   O1    S    
C133  C138  S    
C13   H27   S    
C46   C111  S    
C107  C109  A    
C142  C145  A    
O120  S3    S    
C146  C148  A    
H40   O85   S    
H55   O126  S    
C15   H20   S    
Cu10  O50   S    
O124  S5    D    
C4    C6    A    
C25   H25   S    
O122  S4    D    
C126  C148  S    
C113  H3    S    
C14   H34   S    
O107  S2    D    
C10   C39   S    
C53   O14   S    
O96   S12   D    
C120  O61   A    
C12   C41   S    
C91   C93   S    
C7    C125  S    
Cu2   O35   S    
C84   O49   A    
C20   C22   S    
C62   C94   S    
C28   C86   S    
C39   C66   S    
C129  O37   A    
H63   O18   S    
C5    C7    A    
C29   C70   T    
C77   C80   A    
C15   C17   A    
C45   O110  S    
O91   S10   S    
Cu12  O34   S    
C134  O45   A    
C16   H21   S    
C6    C8    A    
C5    C19   A    
C98   C101  A    
C85   O51   A    
H65   O22   S    
Cu12  O13   S    
C86   O56   A    
C58   O21   D    
O80   S7    D    
Cu11  O66   S    
C12   C64   S    
Cu11  O72   S    
O77   S1    D    
Cu5   O53   S    
C43   C102  S    
C106  C132  S    
C62   O31   S    
C33   C74   T    
C99   C102  A    
O118  S3    D    
C40   C68   S    
C117  O63   A    
C120  O68   A    
O121  S4    D    
H36   O73   S    
C58   C83   S    
C36   C138  S    
C152  S1    S    
H61   O14   S    
O82   S8    D    
C117  C141  S    
C6    C124  S    
C24   C89   S    
C47   O111  D    
C143  C147  A    
C125  O105  A    
O84   S8    D    
C43   O73   S    
C38   C42   S    
C50   O6    D    
C30   C119  S    
H54   O123  S    
C55   O18   S    
C126  O24   A    
O87   S9    D    
Cu6   O60   S    
O78   S1    S    
C48   O114  S    
C24   C40   S    
C97   C108  A    
H64   O20   S    
C10   H1    S    
C35   C64   S    
C78   H31   S    
C50   O7    S    
C52   O11   S    
C2    C74   S    
C14   C42   S    
O106  S2    D    
C57   S3    S    
H44   O98   S    
C97   C99   A    
C128  O34   A    
C34   C50   S    
C116  H10   S    
C8    S10   S    
C36   C40   S    
C51   O8    D    
Cu10  O65   S    
C32   C73   T    
C79   C81   A    
C64   C144  S    
C87   O57   A    
C130  O40   A    
O85   S8    S    
C139  C144  S    
C98   C116  S    
C117  O65   A    
C118  O66   A    
C11   H12   S    
C102  C104  A    
C36   C51   S    
C76   C92   A    
H62   O16   S    
C16   C18   A    
C31   C72   T    
C10   C137  S    
C54   O15   D    
C150  C152  S    
Cu8   O68   S    
Cu1   O49   S    
H43   O95   S    
H48   O108  S    
C7    C9    A    
C83   C90   A    
Cu1   Cu6   S    
C43   O71   D    
C56   O20   S    
C118  C142  S    
C136  C150  A    
C34   C137  S    
C112  O59   A    
C2    C140  S    
C153  C154  S    
C88   C128  S    
Cu8   O63   S    
C51   O9    S    
C34   C78   S    
Cu3   O32   S    
C154  H16   S    
C17   C19   A    
C18   C20   A    
C37   C100  S    
Cu9   O69   S    
C78   C122  S    
C13   C39   S    
H53   O120  S    
C100  H33   S    
H58   O7    S    
C121  O69   A    
C37   C139  S    
C33   C123  S    
C38   C140  S    
C59   C93   S    
C38   C111  S    
C119  O50   A    
C153  S9    S    
