data_mof_unit_5780.cif
_audit_creation_date              2013-03-05T15:54:17-0500
_audit_creation_method            fapswitch 2.2
_symmetry_space_group_name_H-M    P1
_symmetry_Int_Tables_number       1
_space_group_crystal_system       triclinic
_cell_length_a                    20.612001
_cell_length_b                    7.253582
_cell_length_c                    18.805062
_cell_angle_alpha                 89.997079
_cell_angle_beta                  107.319513
_cell_angle_gamma                 90.001512
_cell_volume                      2684.08294897

loop_
_atom_site_label
_atom_site_type_symbol
_atom_site_description
_atom_site_fract_x
_atom_site_fract_y
_atom_site_fract_z
_atom_type_partial_charge
O1    O     O_R   0.422200 0.494350 0.423850 -0.580028
O2    O     O_R   0.577800 0.994350 0.576150 -0.580029
O3    O     O_R   0.555980 0.819730 0.435060 -0.589303
O4    O     O_R   0.444020 0.319730 0.564940 -0.589294
C1    C     C_R   0.575208 0.655493 0.420140 0.975760
C2    C     C_R   0.424792 0.155484 0.579860 0.975765
O5    O     O_R   0.421370 0.823790 0.415230 -0.583154
O6    O     O_R   0.578630 0.323790 0.584770 -0.583151
O7    O     O_R   0.442220 0.998380 0.556180 -0.588708
O8    O     O_R   0.557780 0.498380 0.443820 -0.588702
C3    C     C_R   0.396243 0.655350 0.394273 0.951779
C4    C     C_R   0.603757 0.155348 0.605727 0.951774
O9    O     O_3   0.507000 0.662200 0.546270 -0.286362
O10   O     O_3   0.493000 0.162200 0.453730 -0.286365
V1    V     V_3+5 0.498700 0.935390 0.491420 1.158446
V2    V     V_3+5 0.501300 0.435390 0.508580 1.158448
C5    C     C_1   0.666550 0.145290 0.667888 -0.299162
C6    C     C_1   0.333450 0.645292 0.332112 -0.299167
C7    C     C_1   0.719187 0.134407 0.719427 0.045877
C8    C     C_1   0.280812 0.634408 0.280574 0.045860
C9    C     C_1   0.781191 0.120659 0.780051 0.051361
C10   C     C_1   0.218809 0.620658 0.219950 0.051348
C11   C     C_1   0.833722 0.109839 0.831743 -0.285834
C12   C     C_1   0.166278 0.609837 0.168258 -0.285834
C13   C     C_3   0.249992 0.305515 0.807850 -0.446308
C14   C     C_3   0.750027 0.805514 0.192149 -0.446394
C15   C     C_3   0.253565 0.959589 0.805874 -0.483799
C16   C     C_3   0.746425 0.459594 0.194132 -0.483813
C17   C     C_3   0.302791 0.962837 0.757139 -0.409600
C18   C     C_3   0.697202 0.462877 0.242871 -0.409582
H1    H     H_    0.276040 0.309839 0.868755 0.160608
H2    H     H_    0.723990 0.809874 0.131243 0.160632
H3    H     H_    0.223523 0.829527 0.794870 0.172556
H4    H     H_    0.776455 0.329515 0.205138 0.172504
H5    H     H_    0.283145 0.956919 0.865859 0.176575
H6    H     H_    0.716844 0.456933 0.134148 0.176578
H7    H     H_    0.356236 0.949021 0.792627 0.176481
H8    H     H_    0.643756 0.449080 0.207387 0.176502
H9    H     H_    0.292977 0.839463 0.720220 0.152678
H10   H     H_    0.707015 0.339524 0.279803 0.152701
C19   C     C_1   0.379963 0.147964 0.626287 -0.278214
C20   C     C_1   0.620039 0.647999 0.373714 -0.278228
C21   C     C_3   0.204992 0.129016 0.789099 0.225871
C22   C     C_3   0.795012 0.628989 0.210901 0.225897
C23   C     C_3   0.302086 0.312977 0.762042 -0.117321
C24   C     C_3   0.697918 0.812993 0.237942 -0.117306
C25   C     C_3   0.292743 0.141443 0.709119 0.261537
C26   C     C_3   0.707258 0.641487 0.290877 0.261519
C27   C     C_3   0.217252 0.136679 0.656378 -0.307729
C28   C     C_3   0.782748 0.636747 0.343612 -0.307714
C29   C     C_3   0.165490 0.122700 0.703640 0.189756
C30   C     C_3   0.834512 0.622640 0.296357 0.189722
C31   C     C_1   0.341544 0.144105 0.664249 -0.052295
C32   C     C_1   0.658459 0.644158 0.335751 -0.052320
C33   C     C_1   0.158138 0.118787 0.836025 0.038199
C34   C     C_1   0.841863 0.618742 0.163974 0.038221
C35   C     C_1   0.120153 0.111740 0.874467 -0.233129
C36   C     C_1   0.879847 0.611707 0.125532 -0.233091
H11   H     H_    0.141931 0.982912 0.693364 0.077597
H12   H     H_    0.858033 0.482815 0.306643 0.077533
H13   H     H_    0.217873 0.431288 0.796088 0.189030
H14   H     H_    0.782162 0.931255 0.203927 0.188943
H15   H     H_    0.288651 0.435647 0.725787 0.089618
H16   H     H_    0.711340 0.935681 0.274182 0.089620
H17   H     H_    0.212500 0.001619 0.627124 0.107799
H18   H     H_    0.787495 0.501765 0.372919 0.107783
O11   O     O_R   0.942270 0.764870 0.056240 -0.575487
O12   O     O_R   0.057730 0.264870 0.943760 -0.575490
O13   O     O_R   0.078640 0.431230 0.084780 -0.583350
O14   O     O_R   0.921360 0.931230 0.915220 -0.583351
C37   C     C_R   0.103669 0.599819 0.105837 0.954239
C38   C     C_R   0.896331 0.099821 0.894163 0.954226
O15   O     O_R   0.944030 0.435400 0.064960 -0.587128
O16   O     O_R   0.055970 0.935400 0.935040 -0.587116
O17   O     O_R   0.922190 0.260960 0.923840 -0.580269
O18   O     O_R   0.077810 0.760960 0.076160 -0.580268
C39   C     C_R   0.924864 0.603635 0.079293 0.950340
C40   C     C_R   0.075135 0.103644 0.920707 0.950331
O19   O     O_3   0.993030 0.592980 0.953770 -0.279653
O20   O     O_3   0.006970 0.092980 0.046230 -0.279651
V3    V     V_3+5 0.001290 0.319740 0.008580 1.186085
V4    V     V_3+5 0.998710 0.819740 0.991420 1.186082
C41   C     C_R   0.375320 0.347233 0.810356 0.186135
C42   C     C_R   0.413868 0.486457 0.789510 -0.172417
C43   C     C_R   0.480317 0.524120 0.833094 -0.102095
C44   C     C_R   0.509402 0.423793 0.898120 -0.102916
C45   C     C_R   0.472061 0.285663 0.919705 -0.132596
C46   C     C_R   0.405534 0.247594 0.876405 -0.155696
H19   H     H_    0.392568 0.566374 0.739291 0.107943
H20   H     H_    0.509241 0.631523 0.816428 0.114498
H21   H     H_    0.560799 0.453473 0.931925 0.101676
H22   H     H_    0.494546 0.208531 0.970372 0.120352
H23   H     H_    0.377870 0.142262 0.895657 0.109676
C47   C     C_R   0.624685 0.847214 0.189623 0.186142
C48   C     C_R   0.586116 0.986353 0.210482 -0.172439
C49   C     C_R   0.519674 0.024030 0.166880 -0.102079
C50   C     C_R   0.490617 0.923802 0.101827 -0.102916
C51   C     C_R   0.527977 0.785736 0.080236 -0.132624
C52   C     C_R   0.594495 0.747641 0.123557 -0.155695
H24   H     H_    0.607395 0.066202 0.260719 0.107977
H25   H     H_    0.490733 0.131374 0.183551 0.114499
H26   H     H_    0.439228 0.953506 0.068005 0.101674
H27   H     H_    0.505512 0.708672 0.029553 0.120361
H28   H     H_    0.622170 0.642345 0.104308 0.109682
N1    N     N_R   0.108320 0.253135 0.679651 0.237597
O21   O     O_R   0.062924 0.228634 0.615395 -0.360823
O22   O     O_R   0.098261 0.382043 0.723353 -0.424666
N2    N     N_R   0.891720 0.752958 0.320349 0.237595
O23   O     O_R   0.937093 0.728426 0.384619 -0.360811
O24   O     O_R   0.901828 0.881797 0.276640 -0.424637
C53   C     C_R   0.201665 0.282065 0.593965 0.212646
C54   C     C_R   0.188138 0.468786 0.605546 -0.082597
C55   C     C_R   0.175321 0.595881 0.547098 -0.106468
C56   C     C_R   0.176385 0.540002 0.476488 -0.061109
C57   C     C_R   0.189713 0.356321 0.463933 -0.098557
C58   C     C_R   0.202003 0.228203 0.521954 -0.131059
H29   H     H_    0.186148 0.517388 0.659117 0.128831
H30   H     H_    0.164171 0.737902 0.556452 0.120008
H31   H     H_    0.166667 0.638956 0.431440 0.122296
H32   H     H_    0.190567 0.312988 0.409135 0.122468
H33   H     H_    0.212607 0.086766 0.510644 0.101571
C59   C     C_R   0.798338 0.782270 0.405953 0.212654
C60   C     C_R   0.811912 0.968900 0.394291 -0.082673
C61   C     C_R   0.824771 0.096109 0.452688 -0.106479
C62   C     C_R   0.823688 0.040456 0.523320 -0.061048
C63   C     C_R   0.810295 0.856877 0.535949 -0.098653
C64   C     C_R   0.797970 0.728635 0.477979 -0.131075
H34   H     H_    0.813912 0.017337 0.340701 0.128852
H35   H     H_    0.835968 0.238036 0.443273 0.120083
H36   H     H_    0.833432 0.139497 0.568328 0.122331
H37   H     H_    0.809425 0.813718 0.590760 0.122480
H38   H     H_    0.787326 0.587282 0.489342 0.101622

loop_
_geom_bond_atom_site_label_1
_geom_bond_atom_site_label_2
_geom_bond_distance
_ccdc_geom_bond_type
C13   H1    1.111260 S    
C45   C46   1.398146 A    
C3    C6    1.464974 S    
C14   H2    1.111241 S    
C63   C64   1.397640 A    
C15   C17   1.556794 S    
C48   C49   1.397831 A    
O11   C39   1.333027 A    
C1    C20   1.448919 S    
O2    C4    1.335005 A    
C13   C21   1.558514 S    
C2    O7    1.311972 A    
C56   C57   1.394640 A    
C14   C22   1.558520 S    
C60   C61   1.398005 A    
C25   C27   1.577086 S    
C43   C44   1.395606 A    
C15   H3    1.113547 S    
O5    C3    1.339708 A    
N1    O22   1.301624 A    
C27   H17   1.113532 S    
C17   C25   1.557334 S    
O12   V3    1.960097 S    
C63   H37   1.082454 S    
C18   C26   1.557271 S    
C7    C9    1.440647 S    
C26   C28   1.577032 S    
C44   H21   1.082506 S    
C37   O18   1.335895 A    
C51   H27   1.082836 S    
N2    O23   1.301563 A    
C18   H8    1.109591 S    
C59   C64   1.411389 A    
O13   C37   1.340432 A    
C64   H38   1.083025 S    
C30   H12   1.115932 S    
C36   C39   1.449444 S    
C62   H36   1.082411 S    
C53   C54   1.412718 A    
N2    O24   1.301634 A    
C27   C29   1.582126 S    
C2    C19   1.448907 S    
O1    C3    1.334994 A    
C4    C5    1.464973 S    
C28   C30   1.582105 S    
C53   C58   1.411425 A    
C56   H31   1.082522 S    
O6    C4    1.339706 A    
C27   C53   1.538904 S    
C22   C30   1.571137 S    
O5    V1    1.972060 S    
C52   H28   1.078328 S    
C16   H4    1.113540 S    
O6    V2    1.972034 S    
C49   H25   1.082492 S    
C23   C41   1.532732 S    
O16   V4    1.991429 S    
C38   O17   1.335905 A    
C35   C40   1.449463 S    
O15   V3    1.991501 S    
C54   C55   1.398131 A    
C50   C51   1.395357 A    
C23   C25   1.568972 S    
O12   C40   1.333030 A    
C24   C26   1.568880 S    
C58   H33   1.083160 S    
C16   H6    1.111324 S    
C42   C43   1.397826 A    
O4    C2    1.311981 A    
O18   V4    1.957660 S    
C48   H24   1.083342 S    
O17   V3    1.957678 S    
C15   H5    1.111341 S    
C16   C22   1.556949 S    
C24   H16   1.104878 S    
O4    V2    1.991472 S    
C26   C32   1.493176 S    
C22   C34   1.491383 S    
C41   C42   1.410749 A    
C24   C47   1.532692 S    
C29   N1    1.473338 S    
C49   C50   1.395576 A    
C17   H9    1.113647 S    
C18   H10   1.113610 S    
O1    V2    1.957839 S    
C13   H13   1.110100 S    
O2    V1    1.957856 S    
C28   H18   1.113459 S    
C19   C31   1.214131 T    
C21   C33   1.491403 S    
C8    C10   1.440649 S    
C51   C52   1.398146 A    
C33   C35   1.214587 T    
C62   C63   1.394545 A    
C10   C12   1.223430 T    
C29   H11   1.115967 S    
C42   H19   1.083379 S    
C13   C23   1.564813 S    
O3    V1    1.991544 S    
C55   C56   1.394735 A    
C46   H23   1.078344 S    
C44   C45   1.395345 A    
C11   C38   1.465137 S    
C50   H26   1.082505 S    
O20   V3    1.780719 S    
O3    C1    1.311971 A    
O19   V4    1.780780 S    
C43   H20   1.082492 S    
N1    O21   1.301556 A    
C25   C31   1.493149 S    
C9    C11   1.223429 T    
C14   H14   1.110098 S    
C1    O8    1.311975 A    
O8    V2    1.972603 S    
C20   C32   1.214145 T    
C21   C29   1.571176 S    
C60   H34   1.079558 S    
C54   H29   1.079558 S    
C23   H15   1.104896 S    
C47   C52   1.411433 A    
C16   C18   1.556802 S    
C5    C7    1.223360 T    
C34   C36   1.214579 T    
C61   H35   1.081077 S    
C41   C46   1.411468 A    
C6    C8    1.223359 T    
O7    V1    1.972644 S    
C47   C48   1.410759 A    
O14   V4    1.972041 S    
O13   V3    1.972066 S    
C14   C24   1.564859 S    
C55   H30   1.081250 S    
C15   C21   1.556983 S    
C28   C59   1.538713 S    
C30   N2    1.473350 S    
O11   V4    1.960061 S    
C57   H32   1.082508 S    
O16   C40   1.334670 A    
O9    V2    1.781380 S    
C17   H7    1.109595 S    
O15   C39   1.334657 A    
O10   V1    1.781319 S    
O14   C38   1.340430 A    
C59   C60   1.412605 A    
C45   H22   1.082900 S    
C57   C58   1.397724 A    
C12   C37   1.465138 S    
C61   C62   1.394740 A    
