data_mof_unit_31716.cif
_audit_creation_date              2012-12-10T21:26:05-0500
_audit_creation_method            fapswitch 2.2
_symmetry_space_group_name_H-M    P1
_symmetry_Int_Tables_number       1
_space_group_crystal_system       triclinic
_cell_length_a                    8.578299
_cell_length_b                    16.137659
_cell_length_c                    16.391791
_cell_angle_alpha                 89.212191
_cell_angle_beta                  95.020699
_cell_angle_gamma                 98.618467
_cell_volume                      2234.94381256

loop_
_atom_site_label
_atom_site_type_symbol
_atom_type_description
_atom_site_fract_x
_atom_site_fract_y
_atom_site_fract_z
_atom_type_partial_charge
C1    C     C_R   0.496286 0.490134 0.654598 1.014201
C2    C     C_R   0.499680 0.509274 0.344932 0.993609
C3    C     C_R   0.393922 0.755051 0.474022 0.427985
C4    C     C_R   0.564030 0.239850 0.550288 0.401608
C5    C     C_R   0.374149 0.836738 0.497306 0.166272
C6    C     C_R   0.518895 0.152529 0.562768 0.226874
C7    C     C_R   0.508172 0.891156 0.531280 0.151134
C8    C     C_R   0.430957 0.104342 0.498431 0.189457
C9    C     C_R   0.642400 0.854670 0.558836 -0.237048
C10   C     C_R   0.353007 0.147976 0.436460 -0.269681
C11   C     C_R   0.642451 0.767757 0.551397 0.032115
C12   C     C_R   0.370496 0.236242 0.437335 -0.053666
C13   C     C_R   0.800019 0.520389 0.504908 0.974582
C14   C     C_R   0.199977 0.480379 0.497479 0.885403
C15   C     C_2   0.963951 0.527524 0.521627 0.122979
C16   C     C_2   0.038099 0.478893 0.477070 0.068542
C17   C     C_R   0.451759 0.485725 0.739529 -0.207670
C18   C     C_R   0.473109 0.511310 0.254413 -0.169517
C19   C     C_R   0.464823 0.559825 0.786179 0.263118
C20   C     C_R   0.384102 0.443024 0.208712 0.295945
C21   C     C_R   0.364602 0.563017 0.848367 0.338555
C22   C     C_R   0.296053 0.460365 0.135504 0.273188
C23   C     C_R   0.299316 0.486844 0.884105 0.182243
C24   C     C_R   0.342628 0.536468 0.094213 0.128353
C25   C     C_R   0.296350 0.411913 0.841599 -0.126714
C26   C     C_R   0.448625 0.599691 0.135010 -0.151457
C27   C     C_R   0.363962 0.412007 0.767343 -0.190555
C28   C     C_R   0.509045 0.588293 0.215023 -0.133805
H1    H     H_    0.244957 0.352948 0.867313 0.227117
H2    H     H_    0.487195 0.657784 0.103809 0.225303
H3    H     H_    0.351044 0.354196 0.732936 0.219742
H4    H     H_    0.588475 0.639019 0.245540 0.234815
H5    H     H_    0.746153 0.893348 0.587642 0.237238
H6    H     H_    0.274100 0.113587 0.389265 0.232153
H7    H     H_    0.743976 0.740665 0.576451 0.224679
H8    H     H_    0.296653 0.268580 0.395505 0.215202
N1    N     N_2   0.281593 0.479375 0.969233 -0.063341
N2    N     N_2   0.317537 0.546202 0.008232 -0.067759
N3    N     N_R   0.519180 0.718290 0.509780 -0.160464
N4    N     N_R   0.480820 0.281710 0.490220 -0.155456
N5    N     N_2   0.517416 0.980966 0.537421 -0.046798
N6    N     N_2   0.415998 0.014092 0.493670 -0.035984
O1    O     O_R   0.493140 0.422050 0.612640 -0.605099
O2    O     O_R   0.506860 0.577950 0.387360 -0.566927
O3    O     O_R   0.505450 0.562230 0.618920 -0.555398
O4    O     O_R   0.494550 0.437770 0.381080 -0.572280
O5    O     O_R   0.723530 0.446300 0.497600 -0.544531
O6    O     O_R   0.276470 0.553700 0.502400 -0.550375
O7    O     O_R   0.735850 0.586490 0.503880 -0.593612
O8    O     O_R   0.264150 0.413510 0.496120 -0.662042
Zn1   Zn    Zn3+2 0.491780 0.406400 0.495810 1.083419
Zn2   Zn    Zn3+2 0.508220 0.593600 0.504190 1.141586
S1    S     S_3+6 0.043190 0.580925 0.614953 0.078757
O9    O     O_2   0.089369 0.518133 0.677525 -0.288753
O10   O     O_2   0.184380 0.645839 0.602924 -0.273693
O11   O     O_3   0.904594 0.630758 0.650033 -0.473363
H9    H     H_    0.963845 0.678168 0.682964 0.418420
S2    S     S_3+6 0.968588 0.447124 0.374599 0.115810
O12   O     O_2   0.878495 0.359896 0.372749 -0.187922
O13   O     O_2   0.863487 0.505944 0.335769 -0.266639
O14   O     O_3   0.124007 0.449049 0.318957 -0.526917
H10   H     H_    0.167914 0.397186 0.334446 0.367108
S3    S     S_3+6 0.423955 0.338250 0.221757 0.098923
O15   O     O_2   0.281776 0.283097 0.249664 -0.289223
O16   O     O_2   0.457322 0.306836 0.140104 -0.196477
O17   O     O_3   0.582486 0.330952 0.287622 -0.460545
H11   H     H_    0.587170 0.270103 0.292595 0.394824
S4    S     S_3+6 0.641945 0.632108 0.790306 0.105286
O18   O     O_2   0.638833 0.691600 0.719310 -0.234178
O19   O     O_2   0.666844 0.681861 0.868371 -0.221775
O20   O     O_3   0.792939 0.577176 0.787253 -0.467634
H12   H     H_    0.788324 0.541002 0.836560 0.378388
S5    S     S_3+6 0.120558 0.391618 0.100909 0.162176
O21   O     O_2   0.161998 0.323312 0.049127 -0.177289
O22   O     O_2   0.037959 0.352364 0.172130 -0.161971
O23   O     O_3   0.995103 0.444880 0.044569 -0.483002
H13   H     H_    0.971287 0.488055 0.082066 0.373674
S6    S     S_3+6 0.296019 0.658914 0.867711 0.132226
O24   O     O_2   0.396653 0.705336 0.937123 -0.237768
O25   O     O_2   0.302332 0.712746 0.792118 -0.226797
O26   O     O_3   0.107977 0.638273 0.892538 -0.493199
H14   H     H_    0.072974 0.693820 0.895818 0.408069
S7    S     S_3+6 0.752588 0.285705 0.598283 0.113792
O27   O     O_2   0.744930 0.362649 0.646963 -0.252319
O28   O     O_2   0.824829 0.224757 0.654388 -0.208094
O29   O     O_3   0.876349 0.310108 0.525279 -0.525947
H15   H     H_    0.983854 0.315996 0.554121 0.373640
S8    S     S_3+6 0.305732 0.722925 0.374999 0.115104
O30   O     O_2   0.211886 0.636862 0.374627 -0.205093
O31   O     O_2   0.436774 0.724012 0.320055 -0.339288
O32   O     O_3   0.185280 0.788725 0.334391 -0.440754
H16   H     H_    0.255894 0.835328 0.310577 0.377306
S9    S     S_3+6 0.528664 0.110649 0.663967 0.123261
O33   O     O_2   0.670976 0.066475 0.678734 -0.216260
O34   O     O_2   0.538794 0.179654 0.725799 -0.222705
O35   O     O_3   0.364484 0.041905 0.675699 -0.482621
H17   H     H_    0.383938 0.015981 0.730035 0.402556
S10   S     S_3+6 0.178699 0.860263 0.502051 0.109423
O36   O     O_2   0.138121 0.918439 0.433697 -0.220592
O37   O     O_2   0.060332 0.781354 0.495334 -0.232313
O38   O     O_3   0.165772 0.906802 0.591746 -0.466466
H18   H     H_    0.190326 0.865082 0.634000 0.373613

loop_
_geom_bond_atom_site_label_1
_geom_bond_atom_site_label_2
_ccdc_geom_bond_type
S3    O16   D    
S9    O33   D    
C2    C18   S    
N5    N6    D    
S8    O31   D    
O1    Zn1   S    
O26   H14   S    
S1    O9    D    
C2    O4    A    
O38   H18   S    
C6    C8    A    
C15   S1    S    
C22   C24   A    
C19   C21   A    
C24   C26   A    
S6    O25   D    
S2    O13   D    
C15   C16   D    
O11   H9    S    
S5    O21   D    
C1    O1    A    
C4    N4    A    
C2    O2    A    
S4    O18   D    
C21   S6    S    
C24   N2    S    
C12   H8    S    
O2    Zn2   S    
S2    O14   S    
C7    N5    S    
O17   H11   S    
S3    O17   S    
C3    N3    A    
S9    O34   D    
C9    H5    S    
S5    O22   D    
S1    O10   D    
C25   H1    S    
C27   H3    S    
C17   C27   A    
C28   H4    S    
C18   C28   A    
O23   H13   S    
C4    C6    A    
O32   H16   S    
C13   O5    A    
O29   H15   S    
C14   O6    A    
O3    Zn2   S    
S2    O12   D    
C23   N1    S    
O4    Zn1   S    
C12   N4    A    
N1    N2    D    
S7    O27   D    
S8    O32   S    
C6    S9    S    
O35   H17   S    
O8    Zn1   S    
C19   S4    S    
C10   H6    S    
C16   S2    S    
S8    O30   D    
C11   N3    A    
C9    C11   A    
C10   C12   A    
C13   O7    A    
C8    C10   A    
S7    O28   D    
C20   C22   A    
C26   H2    S    
S9    O35   S    
S10   O37   D    
C13   C15   S    
S5    O23   S    
C14   C16   S    
N4    Zn1   S    
C5    C7    A    
S1    O11   S    
C7    C9    A    
C3    S8    S    
S6    O24   D    
C26   C28   A    
O7    Zn2   S    
C8    N6    S    
C3    C5    A    
O5    Zn1   S    
C25   C27   A    
S10   O38   S    
C1    C17   S    
C20   S3    S    
C21   C23   A    
O20   H12   S    
S6    O26   S    
C1    O3    A    
C14   O8    A    
C4    S7    S    
S4    O20   S    
C11   H7    S    
C17   C19   A    
N3    Zn2   S    
C18   C20   A    
C23   C25   A    
O14   H10   S    
S3    O15   D    
O6    Zn2   S    
S7    O29   S    
C5    S10   S    
S4    O19   D    
S10   O36   D    
C22   S5    S    
