data_mof_unit_33253.cif
_audit_creation_date              2012-12-10T19:08:19-0500
_audit_creation_method            fapswitch 2.2
_symmetry_space_group_name_H-M    P1
_symmetry_Int_Tables_number       1
_space_group_crystal_system       triclinic
_cell_length_a                    25.551988
_cell_length_b                    34.531304
_cell_length_c                    21.514858
_cell_angle_alpha                 89.800204
_cell_angle_beta                  126.484428
_cell_angle_gamma                 90.452154
_cell_volume                      15262.5881252

loop_
_atom_site_label
_atom_site_type_symbol
_atom_type_description
_atom_site_fract_x
_atom_site_fract_y
_atom_site_fract_z
_atom_type_partial_charge
C1    C     C_R   0.141750 0.250003 0.000569 0.947620
C2    C     C_3   0.735553 0.232035 0.937375 0.306977
C3    C     C_R   0.028113 0.919977 0.970450 0.371443
C4    C     C_R   0.463334 0.581975 0.925100 0.354778
C5    C     C_R   0.512921 0.417791 0.067642 0.329730
C6    C     C_R   0.499414 0.581868 0.057969 0.351100
C7    C     C_R   0.526619 0.419265 0.965546 0.364933
C8    C     C_R   0.993187 0.102415 0.997691 -0.359607
C9    C     C_R   0.005551 0.898127 0.006329 -0.381719
C10   C     C_R   0.490764 0.602181 0.995380 -0.364532
C11   C     C_R   0.511043 0.397984 0.009170 -0.367548
C12   C     C_R   0.985201 0.021554 0.998193 -0.137843
C13   C     C_3   0.735100 0.763359 0.933569 0.339715
C14   C     C_R   0.003875 0.979460 0.009936 -0.141612
C15   C     C_R   0.484423 0.521033 0.994127 -0.122707
C16   C     C_R   0.505308 0.479125 0.006991 -0.123765
C17   C     C_R   0.999555 0.144843 0.000103 0.869610
C18   C     C_R   0.000806 0.855322 0.000808 0.849606
C19   C     C_R   0.498996 0.644730 0.999630 0.873405
C20   C     C_R   0.502489 0.355292 0.001980 0.880457
C21   C     C_R   0.000638 0.355174 0.000255 0.879485
C22   C     C_R   0.999279 0.644625 0.000694 0.936328
C23   C     C_R   0.500448 0.855076 0.000476 0.880048
C24   C     C_3   0.236930 0.214069 0.009618 0.321191
C25   C     C_R   0.499318 0.144638 0.000530 0.941340
C26   C     C_R   0.062191 0.457510 0.061137 0.343351
C27   C     C_R   0.940478 0.539887 0.950327 0.359818
C28   C     C_R   0.971357 0.458352 0.927572 0.371516
C29   C     C_R   0.042325 0.541813 0.075290 0.311850
C30   C     C_R   0.559000 0.956734 0.068906 0.341745
C31   C     C_R   0.441705 0.039740 0.949522 0.351200
C32   C     C_R   0.476936 0.958516 0.931901 0.378745
C33   C     C_R   0.540655 0.042346 0.077464 0.312408
C34   C     C_R   0.055553 0.417642 0.064868 0.329448
C35   C     C_3   0.765156 0.269060 0.063246 0.285793
C36   C     C_R   0.939590 0.580670 0.948111 0.326300
C37   C     C_R   0.966932 0.417753 0.927388 0.357446
C38   C     C_R   0.047006 0.582057 0.071132 0.319058
C39   C     C_R   0.549840 0.917010 0.070398 0.362132
C40   C     C_R   0.440583 0.080570 0.946786 0.333544
C41   C     C_R   0.470934 0.917999 0.930108 0.351067
C42   C     C_R   0.545950 0.082400 0.072297 0.316609
C43   C     C_R   0.004763 0.397574 0.998216 -0.361283
C44   C     C_R   0.996408 0.601885 0.004887 -0.332805
C45   C     C_R   0.503770 0.897414 0.000420 -0.351704
C46   C     C_3   0.236959 0.731698 0.939341 0.308054
C47   C     C_R   0.496505 0.101934 0.004837 -0.334954
C48   C     C_R   0.010090 0.478576 0.998812 -0.127326
C49   C     C_R   0.998561 0.520504 0.007113 -0.104013
C50   C     C_R   0.511337 0.978417 0.003595 -0.131426
C51   C     C_R   0.498822 0.020521 0.009476 -0.104579
C52   C     C_3   0.768434 0.287057 0.999924 0.231011
C53   C     C_3   0.233758 0.713994 0.002813 0.258288
C54   C     C_3   0.263552 0.272489 0.059558 0.249988
C55   C     C_3   0.772629 0.713848 0.012687 0.208879
C56   C     C_3   0.268019 0.787390 0.999562 0.226709
C57   C     C_3   0.262885 0.286223 0.990848 0.316675
C58   C     C_3   0.732205 0.213860 0.000449 0.252854
C59   C     C_3   0.727382 0.786880 0.988346 0.208397
C60   C     C_3   0.236300 0.227809 0.941015 0.289892
C61   C     C_3   0.874773 0.113494 0.829059 0.142105
C62   C     C_3   0.847109 0.136646 0.755134 -0.266596
C63   C     C_3   0.781694 0.154674 0.725170 -1.060815
C64   C     C_3   0.919018 0.891787 0.067807 0.154325
C65   C     C_3   0.889761 0.925261 0.084046 -0.364272
C66   C     C_3   0.819986 0.916098 0.054603 -0.796752
C67   C     C_3   0.086503 0.100213 0.185200 0.125365
C68   C     C_3   0.765726 0.737708 0.067933 0.318409
C69   C     C_3   0.104037 0.125563 0.253301 -0.250939
C70   C     C_3   0.176752 0.124293 0.318737 -1.044531
C71   C     C_3   0.117197 0.887727 0.995212 0.178908
C72   C     C_3   0.170245 0.917752 0.017786 -0.325505
C73   C     C_3   0.237311 0.902945 0.083244 -0.895033
C74   C     C_3   0.375296 0.614581 0.826263 0.142394
C75   C     C_3   0.347720 0.636062 0.750596 -0.262929
C76   C     C_3   0.282410 0.654687 0.719257 -1.059157
C77   C     C_3   0.467466 0.398244 0.127019 0.144184
C78   C     C_3   0.478162 0.372332 0.191374 -0.321373
C79   C     C_3   0.198931 0.750980 0.000546 -0.337514
C80   C     C_3   0.416203 0.367924 0.186056 -0.811625
C81   C     C_3   0.580975 0.595163 0.185025 0.144860
C82   C     C_3   0.586176 0.578370 0.254377 -0.217634
C83   C     C_3   0.657045 0.573169 0.323635 -0.948288
C84   C     C_3   0.613504 0.386941 0.984194 0.179842
C85   C     C_3   0.665610 0.418408 0.011189 -0.336684
C86   C     C_3   0.732856 0.403730 0.076620 -0.874512
C87   C     C_3   0.085192 0.393335 0.179779 0.155516
C88   C     C_3   0.137749 0.370455 0.250998 -0.297087
C89   C     C_3   0.116538 0.359424 0.301749 -0.988827
C90   C     C_3   0.801971 0.249862 0.000716 -0.315236
C91   C     C_3   0.839784 0.604037 0.906976 0.193700
C92   C     C_3   0.770358 0.600005 0.833043 -0.373041
C93   C     C_3   0.720254 0.601566 0.849914 -0.784606
C94   C     C_3   0.960395 0.383524 0.832180 0.145801
C95   C     C_3   0.913197 0.362665 0.755172 -0.328894
C96   C     C_3   0.948802 0.342076 0.727798 -0.940882
C97   C     C_3   0.155256 0.596332 0.150008 0.192199
C98   C     C_3   0.209656 0.610341 0.231215 -0.355487
C99   C     C_3   0.276015 0.606227 0.247067 -0.903664
C100  C     C_3   0.559136 0.885511 0.170717 0.096750
C101  C     C_3   0.802618 0.749901 0.002059 -0.366969
C102  C     C_3   0.565470 0.916674 0.225275 -0.295752
C103  C     C_3   0.531240 0.904246 0.260989 -0.972629
C104  C     C_3   0.338450 0.102713 0.898478 0.152054
C105  C     C_3   0.271041 0.102714 0.820574 -0.290214
C106  C     C_3   0.217074 0.095969 0.830116 -0.836010
C107  C     C_3   0.466213 0.883581 0.835975 0.158763
C108  C     C_3   0.419557 0.862303 0.759244 -0.334244
C109  C     C_3   0.455771 0.841318 0.733118 -0.940430
C110  C     C_3   0.653879 0.096689 0.152970 0.195180
C111  C     C_3   0.707178 0.112613 0.232877 -0.357395
C112  C     C_R   0.859035 0.749594 0.000985 0.943062
C113  C     C_3   0.199107 0.250421 0.001387 -0.321016
C114  C     C_3   0.773872 0.109475 0.249311 -0.913790
C115  C     C_3   0.339931 0.802833 0.177452 0.099010
C116  C     C_3   0.348063 0.827842 0.241348 -0.347918
C117  C     C_3   0.419783 0.834665 0.307417 -0.974894
C118  C     C_3   0.660276 0.201955 0.819966 0.169566
C119  C     C_3   0.654505 0.172030 0.764031 -0.388796
C120  C     C_3   0.583811 0.159810 0.703699 -0.858985
C121  C     C_3   0.749186 0.811270 0.868325 0.108891
C122  C     C_3   0.771949 0.810817 0.816878 -0.344669
C123  C     C_3   0.806498 0.848443 0.823209 -0.947857
C124  C     C_3   0.698624 0.250976 0.000045 -0.333836
C125  C     C_3   0.262570 0.148956 0.035864 0.118134
C126  C     C_3   0.231006 0.109080 0.022070 -0.325508
C127  C     C_3   0.279622 0.076671 0.045071 -0.916988
C128  C     C_3   0.840981 0.301455 0.177643 0.117462
C129  C     C_3   0.848892 0.327834 0.239763 -0.371254
C130  C     C_3   0.920553 0.335623 0.304739 -0.917050
C131  C     C_3   0.165007 0.698834 0.824119 0.154195
C132  C     C_3   0.164113 0.667032 0.774330 -0.349504
C133  C     C_3   0.095433 0.651700 0.714474 -0.944769
C134  C     C_3   0.242209 0.352024 0.980738 0.128433
C135  C     C_3   0.302667 0.750365 0.002053 -0.310690
C136  C     C_3   0.247782 0.389255 0.946478 -0.365347
C137  C     C_3   0.208678 0.421907 0.948092 -0.859023
C138  C     C_3   0.838364 0.712029 0.191046 0.184950
C139  C     C_3   0.854441 0.715266 0.271617 -0.371968
C140  C     C_3   0.921145 0.698517 0.333758 -0.907529
C141  C     C_3   0.338611 0.305212 0.478824 0.125361
C142  C     C_3   0.318638 0.333175 0.412649 -0.351554
C143  C     C_3   0.343303 0.374165 0.442605 -0.910215
C144  C     C_3   0.643779 0.781547 0.513879 0.118096
C145  C     C_3   0.654488 0.809872 0.575350 -0.381347
C146  C     C_3   0.300824 0.249859 0.998955 -0.331918
C147  C     C_3   0.606151 0.843192 0.538295 -0.953115
C148  C     C_3   0.742481 0.342355 0.556019 0.118232
C149  C     C_3   0.693997 0.370107 0.491727 -0.348693
C150  C     C_3   0.678483 0.358899 0.413715 -0.751581
C151  C     C_3   0.336912 0.799052 0.461209 0.090901
C152  C     C_3   0.410813 0.804202 0.511841 -0.313622
C153  C     C_3   0.430152 0.846926 0.523549 -0.972529
C154  C     C_3   0.762129 0.840411 0.486882 0.147797
C155  C     C_3   0.709503 0.867775 0.425149 -0.374971
C156  C     C_3   0.702948 0.903305 0.461975 -0.925092
C157  C     C_3   0.697864 0.750695 0.998761 -0.307490
C158  C     C_3   0.202748 0.327626 0.520295 0.105091
C159  C     C_3   0.240050 0.357337 0.586049 -0.358374
C160  C     C_3   0.237239 0.397604 0.554833 -0.902638
C161  C     C_3   0.241626 0.842104 0.557152 0.113045
C162  C     C_3   0.193596 0.869890 0.492622 -0.347356
C163  C     C_3   0.180645 0.859456 0.415621 -0.723545
C164  C     C_3   0.839316 0.297164 0.463120 0.086089
C165  C     C_3   0.913396 0.301122 0.517872 -0.315727
C166  C     C_3   0.934846 0.343473 0.530239 -0.962777
C167  C     C_3   0.248086 0.226896 0.268151 0.156104
C168  C     C_3   0.202035 0.768531 0.936460 0.253570
C169  C     C_3   0.319437 0.214646 0.317168 -0.302332
C170  C     C_3   0.328117 0.177330 0.286512 -0.903079
C171  C     C_3   0.731039 0.708952 0.698956 0.172224
C172  C     C_3   0.664092 0.714353 0.681536 -0.339541
C173  C     C_3   0.635795 0.676154 0.685192 -0.847838
C174  C     C_3   0.733776 0.276357 0.704244 0.177721
C175  C     C_3   0.665454 0.292631 0.645526 -0.360621
C176  C     C_3   0.617356 0.277478 0.659974 -0.896405
C177  C     C_3   0.276307 0.720822 0.302757 0.164195
C178  C     C_3   0.337137 0.732338 0.309148 -0.351597
C179  C     C_3   0.798775 0.231883 0.064292 0.259567
C180  C     C_3   0.381383 0.697972 0.328055 -0.844557
C181  C     C_3   0.745289 0.808049 0.290224 0.117039
C182  C     C_3   0.737817 0.838570 0.233926 -0.313996
C183  C     C_3   0.787344 0.832866 0.217202 -0.790913
C184  C     C_3   0.221486 0.262032 0.696063 0.148093
C185  C     C_3   0.172022 0.288760 0.691850 -0.331251
C186  C     C_3   0.111318 0.266508 0.669885 -0.790830
C187  C     C_3   0.234275 0.775012 0.705637 0.174344
C188  C     C_3   0.164699 0.789061 0.644991 -0.367559
C189  C     C_3   0.117055 0.771940 0.658535 -0.878721
C190  C     C_3   0.795667 0.773831 0.057794 0.246536
C191  C     C_3   0.777115 0.220524 0.303265 0.162364
C192  C     C_3   0.839292 0.232466 0.313031 -0.335387
C193  C     C_3   0.884131 0.198294 0.332820 -0.861042
C194  C     C_3   0.148927 0.190824 0.476508 0.100244
C195  C     C_3   0.103883 0.178019 0.497486 -0.297616
C196  C     C_3   0.114976 0.135702 0.522728 -0.926810
C197  C     C_3   0.865841 0.721956 0.509587 0.117468
C198  C     C_3   0.916587 0.692811 0.568062 -0.355534
C199  C     C_3   0.915951 0.656270 0.527946 -0.976204
C200  C     C_3   0.795419 0.163096 0.530300 0.113450
C201  C     C_3   0.198557 0.264359 0.932872 0.243788
C202  C     C_3   0.825783 0.127540 0.521592 -0.279191
C203  C     C_3   0.828484 0.131277 0.452914 -0.799460
C204  C     C_3   0.128801 0.701841 0.466831 0.100726
C205  C     C_3   0.103531 0.697841 0.515473 -0.328496
C206  C     C_3   0.087802 0.655785 0.520619 -0.962256
C207  C     C_3   0.729144 0.663774 0.483532 0.108403
C208  C     C_3   0.713284 0.627448 0.510178 -0.304017
C209  C     C_3   0.766573 0.597171 0.541157 -0.939256
C210  C     C_3   0.316769 0.173366 0.516238 0.099892
C211  C     C_3   0.339768 0.141714 0.577384 -0.338752
C212  C     C_3   0.701798 0.269047 0.936390 0.248115
C213  C     C_3   0.301383 0.104206 0.540762 -0.925624
C214  C     C_3   0.298776 0.664133 0.527787 0.113750
C215  C     C_3   0.332903 0.629238 0.523448 -0.282681
C216  C     C_3   0.339158 0.632965 0.457464 -0.800682
C217  C     C_3   0.634713 0.202778 0.473884 0.101039
C218  C     C_3   0.589741 0.197412 0.498056 -0.282876
C219  C     C_3   0.588229 0.155380 0.519020 -0.968689
C220  C     C_R   0.858575 0.249852 0.000042 0.958121
C221  C     C_3   0.299720 0.732809 0.066090 0.253562
C222  C     C_3   0.301369 0.235866 0.067672 0.201176
C223  C     C_3   0.704785 0.727255 0.943100 0.331746
C224  C     C_R   0.256022 0.259658 0.415899 0.388324
C225  C     C_R   0.744024 0.750609 0.584349 0.403691
C226  C     C_R   0.762263 0.277516 0.581492 0.384677
C227  C     C_R   0.255650 0.754499 0.414765 0.368976
C228  C     C_R   0.731580 0.783030 0.417299 0.380072
C229  C     C_R   0.256048 0.271350 0.584810 0.406485
C230  C     C_R   0.261700 0.777185 0.581492 0.387866
C231  C     C_R   0.141701 0.750360 0.000323 0.958189
C232  C     C_R   0.756031 0.253854 0.414998 0.373637
C233  C     C_R   0.215357 0.256630 0.335208 0.307002
C234  C     C_R   0.785060 0.746991 0.664931 0.288233
C235  C     C_R   0.797749 0.274422 0.662042 0.268737
C236  C     C_R   0.215112 0.751510 0.333921 0.264260
C237  C     C_R   0.692726 0.781383 0.336509 0.285242
C238  C     C_R   0.293027 0.267749 0.665350 0.267861
C239  C     C_R   0.297292 0.774078 0.662061 0.269873
C240  C     C_R   0.715414 0.251154 0.334037 0.270126
C241  C     C_R   0.147992 0.249743 0.295386 -0.371879
C242  C     C_R   0.641180 0.750369 0.999386 0.976842
C243  C     C_R   0.852937 0.750028 0.705198 -0.348209
C244  C     C_R   0.853126 0.250177 0.703783 -0.356894
C245  C     C_R   0.147222 0.749713 0.294179 -0.328860
C246  C     C_R   0.647480 0.750633 0.296287 -0.362831
C247  C     C_R   0.353633 0.249576 0.706007 -0.330140
C248  C     C_R   0.353265 0.750310 0.703770 -0.357480
C249  C     C_R   0.647455 0.249784 0.294283 -0.341414
C250  C     C_R   0.122945 0.241880 0.337438 0.237231
C251  C     C_R   0.880148 0.753379 0.664443 0.231095
C252  C     C_R   0.867225 0.226149 0.662054 0.226627
C253  C     C_R   0.358164 0.250074 0.999428 0.979521
C254  C     C_R   0.120304 0.746987 0.335199 0.212916
C255  C     C_R   0.643872 0.720657 0.338827 0.235243
C256  C     C_R   0.374320 0.230951 0.666372 0.222275
C257  C     C_R   0.368197 0.726967 0.662030 0.224044
C258  C     C_R   0.620616 0.247285 0.335402 0.208551
C259  C     C_R   0.164831 0.240021 0.418040 0.401269
C260  C     C_R   0.839914 0.752737 0.583715 0.419822
C261  C     C_R   0.823466 0.223844 0.581763 0.400247
C262  C     C_R   0.161363 0.745169 0.415977 0.399726
C263  C     C_R   0.685576 0.720999 0.419374 0.398435
C264  C     C_R   0.358898 0.750137 0.000660 0.950240
C265  C     C_R   0.332951 0.228831 0.585558 0.435756
C266  C     C_R   0.324459 0.724489 0.581724 0.400170
C267  C     C_R   0.661508 0.245623 0.416037 0.397005
C268  C     C_R   0.231242 0.250378 0.458111 -0.207163
C269  C     C_R   0.771536 0.752412 0.543492 -0.200288
C270  C     C_R   0.772311 0.250452 0.541148 -0.157176
C271  C     C_R   0.229069 0.750085 0.455950 -0.137180
C272  C     C_R   0.728688 0.752402 0.458727 -0.196193
C273  C     C_R   0.274373 0.250496 0.543829 -0.203204
C274  C     C_R   0.272184 0.750414 0.541071 -0.149428
C275  C     C_R   0.641684 0.250404 0.000330 0.966152
C276  C     C_R   0.729278 0.250036 0.456096 -0.136604
C277  C     C_R   0.960607 0.041158 0.928014 0.371243
C278  C     C_R   0.007489 0.957279 0.067361 0.321577
C279  C     C_R   0.989907 0.043520 0.056305 0.330299
C280  C     C_R   0.023802 0.960659 0.968696 0.353154
C281  C     C_R   0.459875 0.541193 0.924450 0.369578
C282  C     C_R   0.519363 0.458151 0.071885 0.318810
C283  C     C_R   0.486098 0.542242 0.050897 0.326586
C284  C     C_R   0.520865 0.459867 0.961803 0.347939
C285  C     C_R   0.895022 0.250091 0.789398 0.896644
C286  C     C_3   0.264939 0.769841 0.063386 0.288667
C287  C     C_R   0.104925 0.749941 0.209857 0.986392
C288  C     C_R   0.104855 0.250252 0.210403 0.903133
C289  C     C_R   0.895045 0.749904 0.789797 0.957086
C290  C     C_R   0.395078 0.750136 0.789394 0.892162
C291  C     C_R   0.605003 0.249974 0.209896 0.989823
C292  C     C_R   0.605176 0.750137 0.210739 0.908229
C293  C     C_R   0.395034 0.249969 0.790092 1.013059
C294  C     C_R   0.964257 0.081824 0.927628 0.351127
C295  C     C_R   0.995442 0.917704 0.056072 0.358627
C296  C     C_R   0.004575 0.082793 0.062339 0.336981
Cl1   Cl    Cl    0.142434 0.476488 0.118097 -0.531447
Cl2   Cl    Cl    0.057154 0.972172 0.165256 -0.535883
Cl3   Cl    Cl    0.947222 0.029449 0.094032 -0.500266
Cl4   Cl    Cl    0.055631 0.987053 0.927152 -0.518419
Cl5   Cl    Cl    0.410441 0.517311 0.834072 -0.513870
Cl6   Cl    Cl    0.571024 0.477864 0.166250 -0.582171
Cl7   Cl    Cl    0.446032 0.524662 0.089919 -0.535490
Cl8   Cl    Cl    0.548934 0.485565 0.915314 -0.493028
Cl9   Cl    Cl    0.792541 0.334872 0.994482 -0.562286
Cl10  Cl    Cl    0.211418 0.665443 0.006928 -0.554142
Cl11  Cl    Cl    0.282355 0.299828 0.140902 -0.551199
Cl12  Cl    Cl    0.865191 0.514547 0.894340 -0.523790
Cl13  Cl    Cl    0.803313 0.665891 0.028059 -0.633787
Cl14  Cl    Cl    0.290882 0.835360 0.992991 -0.566375
Cl15  Cl    Cl    0.708430 0.165373 0.002369 -0.541414
Cl16  Cl    Cl    0.695378 0.834510 0.973259 -0.625046
Cl17  Cl    Cl    0.217267 0.199349 0.861026 -0.611920
Cl18  Cl    Cl    0.137951 0.793681 0.852850 -0.493637
Cl19  Cl    Cl    0.861388 0.205061 0.146352 -0.494633
Cl20  Cl    Cl    0.856769 0.804833 0.132908 -0.591759
Cl21  Cl    Cl    0.128616 0.282350 0.843973 -0.611573
Cl22  Cl    Cl    0.638403 0.295830 0.854990 -0.544434
Cl23  Cl    Cl    0.942247 0.481679 0.839181 -0.525733
Cl24  Cl    Cl    0.363194 0.706634 0.148662 -0.522336
Cl25  Cl    Cl    0.371856 0.218924 0.157092 -0.540547
Cl26  Cl    Cl    0.644266 0.697491 0.864663 -0.479339
Cl27  Cl    Cl    0.038635 0.235404 0.291680 -0.542434
Cl28  Cl    Cl    0.965342 0.756616 0.712946 -0.527537
Cl29  Cl    Cl    0.939013 0.198378 0.705449 -0.491014
Cl30  Cl    Cl    0.035191 0.744442 0.286571 -0.574363
Cl31  Cl    Cl    0.588774 0.681168 0.295142 -0.543140
Cl32  Cl    Cl    0.451353 0.208552 0.717627 -0.602610
Cl33  Cl    Cl    0.441434 0.700660 0.705511 -0.491979
Cl34  Cl    Cl    0.071234 0.522711 0.166947 -0.539443
Cl35  Cl    Cl    0.535718 0.244173 0.287432 -0.486371
Cl36  Cl    Cl    0.639698 0.974154 0.134162 -0.525221
Cl37  Cl    Cl    0.367199 0.014094 0.887567 -0.525427
Cl38  Cl    Cl    0.454841 0.982233 0.846395 -0.516876
Cl39  Cl    Cl    0.563248 0.025154 0.167850 -0.558831
Cl40  Cl    Cl    0.913243 0.016445 0.838396 -0.511359
H1    H     H_    0.875277 0.132399 0.871287 0.112032
H2    H     H_    0.919792 0.930909 0.147272 0.280386
H3    H     H_    0.491618 0.906950 0.827403 0.176177
H4    H     H_    0.390707 0.840783 0.765890 0.270553
H5    H     H_    0.385270 0.883387 0.714018 0.232267
H6    H     H_    0.484443 0.862286 0.725030 0.280340
H7    H     H_    0.420130 0.826406 0.677257 0.256579
H8    H     H_    0.488927 0.819269 0.776551 0.283013
H9    H     H_    0.655992 0.111963 0.108797 0.174142
H10   H     H_    0.663632 0.065297 0.152489 0.182938
H11   H     H_    0.697008 0.143382 0.236479 0.220847
H12   H     H_    0.707258 0.095996 0.277276 0.249529
H13   H     H_    0.889598 0.951764 0.054626 0.258722
H14   H     H_    0.785228 0.078708 0.247417 0.294248
H15   H     H_    0.811746 0.121203 0.307654 0.258490
H16   H     H_    0.774952 0.126291 0.205967 0.298307
H17   H     H_    0.355431 0.820309 0.147493 0.176746
H18   H     H_    0.372533 0.777531 0.204756 0.190105
H19   H     H_    0.324475 0.856205 0.217035 0.230928
H20   H     H_    0.323927 0.813728 0.264714 0.245930
H21   H     H_    0.444003 0.806740 0.335112 0.265802
H22   H     H_    0.423901 0.853635 0.351724 0.271996
H23   H     H_    0.444970 0.848971 0.285535 0.276147
H24   H     H_    0.789200 0.910047 0.991512 0.269059
H25   H     H_    0.631809 0.227781 0.786238 0.194704
H26   H     H_    0.638989 0.189321 0.848110 0.192674
H27   H     H_    0.674228 0.184494 0.734092 0.221642
H28   H     H_    0.683588 0.146097 0.796937 0.256716
H29   H     H_    0.562833 0.147373 0.732221 0.296461
H30   H     H_    0.581551 0.137439 0.665238 0.256009
H31   H     H_    0.554346 0.185055 0.668030 0.286355
H32   H     H_    0.791947 0.818423 0.928477 0.136627
H33   H     H_    0.712618 0.834537 0.848281 0.198697
H34   H     H_    0.806065 0.786365 0.834311 0.251428
H35   H     H_    0.799500 0.941262 0.065248 0.284926
H36   H     H_    0.729176 0.806525 0.755866 0.252063
H37   H     H_    0.773765 0.873520 0.807039 0.275278
H38   H     H_    0.820722 0.847270 0.783498 0.280503
H39   H     H_    0.851174 0.852411 0.883115 0.244197
H40   H     H_    0.303972 0.151273 0.098045 0.187236
H41   H     H_    0.280977 0.151553 0.000293 0.156404
H42   H     H_    0.211726 0.106388 0.056581 0.233408
H43   H     H_    0.189584 0.105935 0.959953 0.259602
H44   H     H_    0.299482 0.078658 0.011249 0.256933
H45   H     H_    0.254896 0.048178 0.033296 0.288981
H46   H     H_    0.818904 0.890574 0.085375 0.306060
H47   H     H_    0.320319 0.078546 0.107683 0.272604
H48   H     H_    0.857032 0.317914 0.147210 0.180821
H49   H     H_    0.873256 0.276101 0.206290 0.204718
H50   H     H_    0.824370 0.355781 0.213249 0.234461
H51   H     H_    0.825527 0.314368 0.264652 0.243534
H52   H     H_    0.945608 0.308127 0.334097 0.284359
H53   H     H_    0.924537 0.355393 0.347989 0.262551
H54   H     H_    0.944955 0.349415 0.281384 0.275300
H55   H     H_    0.134400 0.723178 0.786203 0.192726
H56   H     H_    0.143763 0.686904 0.852802 0.182235
H57   H     H_    0.114931 0.110641 0.164212 0.097497
H58   H     H_    0.183811 0.678797 0.743900 0.221090
H59   H     H_    0.195564 0.642771 0.812003 0.256685
H60   H     H_    0.073279 0.641100 0.742863 0.286301
H61   H     H_    0.097125 0.627335 0.682194 0.269410
H62   H     H_    0.064946 0.674969 0.672961 0.266124
H63   H     H_    0.260932 0.357928 0.041376 0.191242
H64   H     H_    0.189863 0.343758 0.947037 0.177842
H65   H     H_    0.299742 0.398269 0.980101 0.224643
H66   H     H_    0.229441 0.383867 0.885695 0.244812
H67   H     H_    0.156303 0.413804 0.913662 0.260121
H68   H     H_    0.099897 0.069683 0.205343 0.182438
H69   H     H_    0.213734 0.448509 0.922876 0.278408
H70   H     H_    0.226962 0.428208 0.008530 0.284575
H71   H     H_    0.875765 0.728538 0.190598 0.210228
H72   H     H_    0.840230 0.681068 0.178685 0.195580
H73   H     H_    0.853661 0.746238 0.284975 0.234530
H74   H     H_    0.816880 0.699461 0.272645 0.220537
H75   H     H_    0.922889 0.667384 0.322352 0.266648
H76   H     H_    0.930767 0.701336 0.391097 0.249492
H77   H     H_    0.959755 0.714523 0.335456 0.319280
H78   H     H_    0.318902 0.314499 0.510403 0.105979
H79   H     H_    0.090081 0.155972 0.233539 0.252935
H80   H     H_    0.392419 0.306496 0.521645 0.187032
H81   H     H_    0.338820 0.323012 0.381931 0.275620
H82   H     H_    0.264813 0.333868 0.370912 0.226294
H83   H     H_    0.323185 0.385004 0.472895 0.261029
H84   H     H_    0.327439 0.393697 0.393283 0.285216
H85   H     H_    0.397317 0.374670 0.483031 0.276225
H86   H     H_    0.591117 0.774111 0.474581 0.177795
H87   H     H_    0.655162 0.795544 0.476800 0.107441
H88   H     H_    0.647931 0.794505 0.615676 0.245726
H89   H     H_    0.704849 0.821780 0.608951 0.217677
H90   H     H_    0.076501 0.115461 0.275405 0.253677
H91   H     H_    0.609060 0.858113 0.494661 0.268704
H92   H     H_    0.617358 0.864374 0.583484 0.276852
H93   H     H_    0.555740 0.832116 0.509583 0.268941
H94   H     H_    0.788127 0.342631 0.560202 0.096697
H95   H     H_    0.754040 0.353509 0.611316 0.165368
H96   H     H_    0.648237 0.370273 0.486986 0.237524
H97   H     H_    0.714936 0.399875 0.506920 0.186512
H98   H     H_    0.723612 0.358542 0.417202 0.225311
H99   H     H_    0.644618 0.380368 0.369342 0.250413
H100  H     H_    0.654795 0.329943 0.395339 0.283684
H101  H     H_    0.191498 0.094389 0.341694 0.290403
H102  H     H_    0.317949 0.814338 0.489414 0.123773
H103  H     H_    0.315722 0.812126 0.403436 0.161489
H104  H     H_    0.432306 0.790615 0.569148 0.251866
H105  H     H_    0.430830 0.789514 0.484327 0.224245
H106  H     H_    0.410225 0.860939 0.467071 0.267342
H107  H     H_    0.484033 0.849634 0.560753 0.277697
H108  H     H_    0.411563 0.862057 0.552240 0.270920
H109  H     H_    0.747904 0.827854 0.522355 0.099700
H110  H     H_    0.806953 0.857672 0.527588 0.194429
H111  H     H_    0.722225 0.877479 0.386311 0.268880
H112  H     H_    0.842225 0.088161 0.815172 0.167426
H113  H     H_    0.187698 0.143684 0.366112 0.254465
H114  H     H_    0.662085 0.852167 0.390079 0.211205
H115  H     H_    0.693039 0.894475 0.503719 0.265992
H116  H     H_    0.662240 0.921533 0.416515 0.278767
H117  H     H_    0.748462 0.920844 0.492738 0.282860
H118  H     H_    0.152374 0.338272 0.477680 0.181718
H119  H     H_    0.224287 0.325378 0.488493 0.102109
H120  H     H_    0.218545 0.358428 0.618205 0.248667
H121  H     H_    0.291854 0.348674 0.626751 0.234406
H122  H     H_    0.258632 0.397215 0.522568 0.261157
H123  H     H_    0.265360 0.418362 0.603648 0.290283
H124  H     H_    0.205348 0.134277 0.298052 0.261290
H125  H     H_    0.186045 0.407588 0.515775 0.263805
H126  H     H_    0.287978 0.842715 0.562878 0.096298
H127  H     H_    0.251925 0.852995 0.611977 0.170852
H128  H     H_    0.146922 0.869343 0.485807 0.245586
H129  H     H_    0.213827 0.899799 0.508941 0.187750
H130  H     H_    0.226538 0.860640 0.420825 0.215189
H131  H     H_    0.145968 0.880474 0.370708 0.266360
H132  H     H_    0.158959 0.830019 0.396827 0.285038
H133  H     H_    0.818625 0.313239 0.488564 0.122737
H134  H     H_    0.821226 0.310089 0.406154 0.161945
H135  H     H_    0.125251 0.861911 0.971240 0.214373
H136  H     H_    0.931618 0.287958 0.574605 0.252542
H137  H     H_    0.935257 0.285351 0.493583 0.230586
H138  H     H_    0.918371 0.356981 0.474444 0.267772
H139  H     H_    0.988782 0.345292 0.570584 0.276435
H140  H     H_    0.914313 0.359694 0.555609 0.268392
H141  H     H_    0.231295 0.231412 0.207718 0.189979
H142  H     H_    0.217630 0.202855 0.266228 0.069417
H143  H     H_    0.349264 0.238031 0.316528 0.277014
H144  H     H_    0.337004 0.209942 0.377819 0.243981
H145  H     H_    0.301260 0.153128 0.290316 0.240679
H146  H     H_    0.122655 0.877595 0.048077 0.091303
H147  H     H_    0.380560 0.169882 0.321613 0.286496
H148  H     H_    0.309786 0.180975 0.225359 0.298084
H149  H     H_    0.763361 0.693951 0.755391 0.171932
H150  H     H_    0.725637 0.689758 0.653721 0.134875
H151  H     H_    0.668186 0.734852 0.723966 0.277031
H152  H     H_    0.630022 0.726737 0.622804 0.244833
H153  H     H_    0.633642 0.654484 0.645671 0.249361
H154  H     H_    0.585783 0.680880 0.667754 0.303384
H155  H     H_    0.666108 0.664955 0.745135 0.287015
H156  H     H_    0.747543 0.280909 0.763379 0.210151
H157  H     H_    0.169400 0.924618 0.966688 0.281304
H158  H     H_    0.733292 0.244318 0.696499 0.088781
H159  H     H_    0.667220 0.324774 0.649188 0.256143
H160  H     H_    0.647635 0.284160 0.586247 0.271914
H161  H     H_    0.615287 0.245370 0.657727 0.248371
H162  H     H_    0.568040 0.288814 0.614972 0.281295
H163  H     H_    0.632127 0.287315 0.717351 0.316025
H164  H     H_    0.245173 0.702352 0.250717 0.165403
H165  H     H_    0.291201 0.703121 0.354278 0.149534
H166  H     H_    0.321717 0.744614 0.253086 0.265461
H167  H     H_    0.364960 0.754699 0.354842 0.235440
H168  H     H_    0.161523 0.944658 0.038249 0.242304
H169  H     H_    0.397210 0.684525 0.383587 0.251169
H170  H     H_    0.425276 0.708029 0.333366 0.293242
H171  H     H_    0.355667 0.676145 0.281098 0.295158
H172  H     H_    0.744215 0.778721 0.267811 0.136858
H173  H     H_    0.793161 0.812406 0.347230 0.180250
H174  H     H_    0.688121 0.836586 0.178619 0.293814
H175  H     H_    0.744214 0.867917 0.258736 0.244393
H176  H     H_    0.837661 0.834779 0.271420 0.262210
H177  H     H_    0.780995 0.855632 0.176686 0.302878
H178  H     H_    0.779707 0.804097 0.190003 0.302988
H179  H     H_    0.240619 0.900557 0.136960 0.247297
H180  H     H_    0.242786 0.242698 0.747054 0.184520
H181  H     H_    0.195100 0.243337 0.643290 0.148883
H182  H     H_    0.194840 0.303104 0.748785 0.249158
H183  H     H_    0.157138 0.311530 0.647695 0.237100
H184  H     H_    0.085981 0.253707 0.611245 0.240678
H185  H     H_    0.077340 0.286555 0.669464 0.281541
H186  H     H_    0.124596 0.243031 0.712158 0.325775
H187  H     H_    0.247119 0.780697 0.764038 0.212137
H188  H     H_    0.236701 0.742930 0.701236 0.085669
H189  H     H_    0.163418 0.821176 0.647081 0.259879
H190  H     H_    0.275367 0.923533 0.093629 0.282241
H191  H     H_    0.148610 0.780404 0.586475 0.274181
H192  H     H_    0.118167 0.739821 0.658149 0.241099
H193  H     H_    0.066909 0.781554 0.612039 0.290478
H194  H     H_    0.129706 0.782022 0.714827 0.319752
H195  H     H_    0.747111 0.202526 0.250295 0.167312
H196  H     H_    0.790262 0.202167 0.353355 0.148695
H197  H     H_    0.825466 0.245217 0.258000 0.260570
H198  H     H_    0.866081 0.254599 0.359405 0.236822
H199  H     H_    0.898186 0.184262 0.387209 0.249171
H200  H     H_    0.928983 0.208723 0.340757 0.297411
H201  H     H_    0.246182 0.874145 0.068685 0.315137
H202  H     H_    0.859711 0.176846 0.285066 0.296133
H203  H     H_    0.200087 0.186224 0.527612 0.116537
H204  H     H_    0.138031 0.172526 0.427362 0.138209
H205  H     H_    0.112846 0.196375 0.545303 0.218772
H206  H     H_    0.052399 0.181777 0.446529 0.248606
H207  H     H_    0.105360 0.116708 0.475339 0.274566
H208  H     H_    0.081422 0.127242 0.537276 0.278805
H209  H     H_    0.165873 0.131498 0.574662 0.263640
H210  H     H_    0.876830 0.729296 0.468112 0.163677
H211  H     H_    0.816796 0.708535 0.474483 0.083375
H212  H     H_    0.376119 0.634754 0.867127 0.108628
H213  H     H_    0.965521 0.706542 0.600210 0.261607
H214  H     H_    0.906376 0.684422 0.609799 0.222915
H215  H     H_    0.867160 0.642206 0.495135 0.265697
H216  H     H_    0.952436 0.635540 0.571855 0.284005
H217  H     H_    0.928441 0.663410 0.487835 0.268328
H218  H     H_    0.745186 0.166836 0.476631 0.103901
H219  H     H_    0.792500 0.157034 0.579188 0.082383
H220  H     H_    0.875838 0.123450 0.575338 0.254469
H221  H     H_    0.796323 0.101518 0.513207 0.175390
H222  H     H_    0.779084 0.136731 0.399186 0.230370
H223  H     H_    0.881817 0.160134 0.767453 0.272268
H224  H     H_    0.342472 0.589680 0.814235 0.163190
H225  H     H_    0.847222 0.104015 0.445884 0.247802
H226  H     H_    0.861565 0.155390 0.462589 0.289249
H227  H     H_    0.176758 0.687198 0.498231 0.088887
H228  H     H_    0.094002 0.687307 0.410027 0.177875
H229  H     H_    0.141285 0.708713 0.574734 0.213870
H230  H     H_    0.058944 0.715513 0.489735 0.248808
H231  H     H_    0.049960 0.644130 0.462025 0.276034
H232  H     H_    0.068920 0.654115 0.555542 0.273089
H233  H     H_    0.132309 0.637830 0.548691 0.271250
H234  H     H_    0.776985 0.675108 0.533334 0.117650
H235  H     H_    0.382550 0.659073 0.761114 0.274512
H236  H     H_    0.732384 0.655666 0.435770 0.123610
H237  H     H_    0.708353 0.635235 0.556566 0.224071
H238  H     H_    0.666196 0.615005 0.460848 0.249331
H239  H     H_    0.772625 0.588956 0.495913 0.266508
H240  H     H_    0.753166 0.570891 0.558815 0.284909
H241  H     H_    0.813549 0.608704 0.592271 0.274754
H242  H     H_    0.323805 0.162968 0.472876 0.170446
H243  H     H_    0.263783 0.177936 0.484145 0.086974
H244  H     H_    0.392365 0.136163 0.606790 0.267266
H245  H     H_    0.332857 0.151303 0.621281 0.228204
H246  H     H_    0.341666 0.615629 0.706900 0.236745
H247  H     H_    0.248769 0.109036 0.512447 0.260811
H248  H     H_    0.319092 0.081787 0.586162 0.292651
H249  H     H_    0.307896 0.093496 0.497148 0.269207
H250  H     H_    0.249985 0.667236 0.471621 0.108506
H251  H     H_    0.292181 0.657686 0.573647 0.080080
H252  H     H_    0.382124 0.626255 0.579072 0.256736
H253  H     H_    0.304447 0.602598 0.514436 0.175692
H254  H     H_    0.290363 0.636405 0.401590 0.228774
H255  H     H_    0.361978 0.606483 0.454549 0.247848
H256  H     H_    0.370251 0.658289 0.467247 0.290996
H257  H     H_    0.246268 0.632270 0.707918 0.284832
H258  H     H_    0.684750 0.194290 0.523091 0.095125
H259  H     H_    0.617208 0.183407 0.423467 0.151864
H260  H     H_    0.606970 0.216016 0.548914 0.218526
H261  H     H_    0.539605 0.206364 0.449816 0.259189
H262  H     H_    0.571346 0.136062 0.469093 0.278211
H263  H     H_    0.554026 0.152437 0.534569 0.273710
H264  H     H_    0.637437 0.146322 0.569216 0.266714
H265  H     H_    0.263790 0.670029 0.664377 0.258290
H266  H     H_    0.288396 0.676120 0.761467 0.264144
H267  H     H_    0.424663 0.387020 0.070301 0.136631
H268  H     H_    0.457284 0.428241 0.135852 0.185898
H269  H     H_    0.493950 0.343158 0.187128 0.275638
H270  H     H_    0.517276 0.385013 0.248438 0.226933
H271  H     H_    0.841198 0.117455 0.709945 0.237176
H272  H     H_    0.398193 0.396710 0.188135 0.257046
H273  H     H_    0.426351 0.350198 0.235230 0.301219
H274  H     H_    0.378141 0.352999 0.131418 0.293559
H275  H     H_    0.606147 0.623740 0.201360 0.172013
H276  H     H_    0.607679 0.575816 0.171110 0.115103
H277  H     H_    0.561788 0.597881 0.270679 0.272702
H278  H     H_    0.561203 0.549797 0.238676 0.281046
H279  H     H_    0.681802 0.552876 0.309062 0.285871
H280  H     H_    0.659114 0.560988 0.372866 0.277483
H281  H     H_    0.683014 0.601471 0.341299 0.263859
H282  H     H_    0.745715 0.131785 0.712269 0.283220
H283  H     H_    0.622223 0.363401 0.956328 0.217929
H284  H     H_    0.619745 0.373578 0.035408 0.101752
H285  H     H_    0.665758 0.427670 0.961772 0.280993
H286  H     H_    0.655149 0.443853 0.033394 0.243336
H287  H     H_    0.735091 0.398941 0.129220 0.248130
H288  H     H_    0.770451 0.425524 0.090055 0.285079
H289  H     H_    0.743419 0.376117 0.060196 0.314022
H290  H     H_    0.038227 0.377069 0.149993 0.114271
H291  H     H_    0.079878 0.422061 0.198902 0.173204
H292  H     H_    0.148518 0.343599 0.232407 0.267685
H293  H     H_    0.763045 0.171153 0.671414 0.254362
H294  H     H_    0.183111 0.388139 0.285362 0.237833
H295  H     H_    0.107292 0.385822 0.323123 0.277036
H296  H     H_    0.155628 0.342502 0.352075 0.251617
H297  H     H_    0.071738 0.341225 0.268767 0.279931
H298  H     H_    0.845931 0.633452 0.931254 0.198074
H299  H     H_    0.846518 0.582730 0.950366 0.159430
H300  H     H_    0.760886 0.623614 0.792423 0.206957
H301  H     H_    0.764851 0.571970 0.804502 0.283761
H302  H     H_    0.729062 0.578128 0.890545 0.289065
H303  H     H_    0.670630 0.597657 0.795331 0.269822
H304  H     H_    0.787434 0.174995 0.768797 0.270905
H305  H     H_    0.722799 0.630007 0.875369 0.315804
H306  H     H_    0.997769 0.362499 0.874390 0.103480
H307  H     H_    0.985053 0.407311 0.823349 0.162402
H308  H     H_    0.884798 0.340950 0.762068 0.276312
H309  H     H_    0.878669 0.383929 0.710640 0.229890
H310  H     H_    0.977233 0.363240 0.719696 0.278422
H311  H     H_    0.912828 0.327417 0.671764 0.254621
H312  H     H_    0.982115 0.319838 0.770534 0.296065
H313  H     H_    0.157134 0.613028 0.106978 0.175122
H314  H     H_    0.164086 0.565164 0.146027 0.185723
H315  H     H_    0.913760 0.864785 0.091820 0.233423
H316  H     H_    0.201475 0.641121 0.237577 0.216333
H317  H     H_    0.208891 0.593024 0.274328 0.252443
H318  H     H_    0.285611 0.575352 0.243090 0.294015
H319  H     H_    0.314657 0.616882 0.306111 0.258290
H320  H     H_    0.277815 0.623420 0.204629 0.298233
H321  H     H_    0.582571 0.858651 0.204534 0.194173
H322  H     H_    0.506761 0.878114 0.126222 0.110225
H323  H     H_    0.617815 0.922286 0.271939 0.253766
H324  H     H_    0.543165 0.943937 0.192675 0.267921
H325  H     H_    0.478353 0.899919 0.215119 0.277177
H326  H     H_    0.890822 0.887009 0.004193 0.088667
H327  H     H_    0.537497 0.927083 0.301150 0.283464
H328  H     H_    0.552161 0.876862 0.293778 0.256651
H329  H     H_    0.345572 0.130453 0.928725 0.160656
H330  H     H_    0.340245 0.079001 0.935006 0.138487
H331  H     H_    0.263302 0.130896 0.791181 0.233361
H332  H     H_    0.268171 0.079374 0.783172 0.267610
H333  H     H_    0.220971 0.066477 0.853262 0.275744
H334  H     H_    0.168903 0.098622 0.773145 0.283207
H335  H     H_    0.220405 0.117577 0.870272 0.288201
H336  H     H_    0.503039 0.862645 0.879209 0.118732
O1    O     O_3   0.000000 0.250010 0.000000 -0.553634
O2    O     O_R   0.359980 0.227250 0.954550 -0.642093
O3    O     O_3   0.634261 0.242123 0.455425 -0.561980
O4    O     O_R   0.359980 0.772750 0.954550 -0.611823
O5    O     O_R   0.640020 0.227250 0.045450 -0.611757
O6    O     O_R   0.944020 0.227270 0.826530 -0.590247
O7    O     O_R   0.055980 0.772730 0.173470 -0.584543
O8    O     O_R   0.055980 0.227270 0.173470 -0.605511
O9    O     O_R   0.944020 0.772730 0.826530 -0.579614
O10   O     O_R   0.444020 0.727270 0.826530 -0.590014
O11   O     O_R   0.555980 0.272730 0.173470 -0.614550
O12   O     O_R   0.555980 0.727270 0.173470 -0.576027
O13   O     O_3   0.000000 0.749990 0.000000 -0.540497
O14   O     O_R   0.444020 0.272730 0.826530 -0.600272
O15   O     O_R   0.008020 0.163280 0.954510 -0.599633
O16   O     O_R   0.991980 0.836720 0.045490 -0.616098
O17   O     O_R   0.991980 0.163280 0.045490 -0.594180
O18   O     O_R   0.008020 0.836720 0.954510 -0.610800
O19   O     O_R   0.508020 0.663280 0.954510 -0.592605
O20   O     O_R   0.491980 0.336720 0.045490 -0.621163
O21   O     O_R   0.491980 0.663280 0.045490 -0.583464
O22   O     O_R   0.508020 0.336720 0.954510 -0.619497
O23   O     O_R   0.053480 0.336740 0.045470 -0.608057
O24   O     O_3   0.500000 0.750010 0.000000 -0.552774
O25   O     O_R   0.946520 0.663260 0.954530 -0.630440
O26   O     O_R   0.946520 0.336740 0.954530 -0.586025
O27   O     O_R   0.053480 0.663260 0.045470 -0.614119
O28   O     O_R   0.553480 0.836740 0.045470 -0.624680
O29   O     O_R   0.446520 0.163260 0.954530 -0.625649
O30   O     O_R   0.446520 0.836740 0.954530 -0.589857
O31   O     O_R   0.553480 0.163260 0.045470 -0.613951
O32   O     O_R   0.882520 0.272750 0.826550 -0.622714
O33   O     O_R   0.117480 0.727250 0.173450 -0.644937
O34   O     O_R   0.117480 0.272750 0.173450 -0.624796
O35   O     O_3   0.500000 0.249990 0.000000 -0.540564
O36   O     O_R   0.882520 0.727250 0.826550 -0.650607
O37   O     O_R   0.382520 0.772750 0.826550 -0.621537
O38   O     O_R   0.617480 0.227250 0.173450 -0.642084
O39   O     O_R   0.617480 0.772750 0.173450 -0.639636
O40   O     O_R   0.382520 0.227250 0.826550 -0.646769
O41   O     O_R   0.094550 0.227270 0.954490 -0.571122
O42   O     O_R   0.905450 0.772730 0.045510 -0.608511
O43   O     O_R   0.905450 0.227270 0.045510 -0.585348
O44   O     O_R   0.094550 0.772730 0.954490 -0.604703
O45   O     O_R   0.594550 0.727270 0.954490 -0.592059
O46   O     O_R   0.140020 0.272750 0.045450 -0.627506
O47   O     O_R   0.405450 0.272730 0.045510 -0.593155
O48   O     O_R   0.405450 0.727270 0.045510 -0.593166
O49   O     O_R   0.594550 0.272730 0.954490 -0.613875
O50   O     O_3   0.938333 0.101129 0.858646 -0.555253
O51   O     O_3   0.986457 0.897856 0.105129 -0.553978
O52   O     O_3   0.019007 0.102944 0.126321 -0.540026
O53   O     O_3   0.054287 0.902285 0.936879 -0.547855
O54   O     O_3   0.438790 0.601657 0.856825 -0.550147
O55   O     O_3   0.524184 0.397539 0.130104 -0.573721
O56   O     O_3   0.514562 0.601096 0.123150 -0.539941
O57   O     O_R   0.859980 0.727250 0.954550 -0.629897
O58   O     O_3   0.549673 0.401305 0.928604 -0.552528
O59   O     O_3   0.104077 0.397990 0.130420 -0.553920
O60   O     O_3   0.884074 0.599311 0.888300 -0.587370
O61   O     O_3   0.924897 0.398325 0.858041 -0.554570
O62   O     O_3   0.094664 0.602386 0.136646 -0.585045
O63   O     O_3   0.592026 0.897076 0.138932 -0.576974
O64   O     O_3   0.386235 0.099182 0.885017 -0.571615
O65   O     O_3   0.429729 0.899233 0.859752 -0.561886
O66   O     O_3   0.592706 0.103000 0.137866 -0.585195
O67   O     O_3   0.274340 0.790545 0.125993 -0.623398
O68   O     O_R   0.859980 0.272750 0.954550 -0.611011
O69   O     O_3   0.726399 0.212248 0.874185 -0.629336
O70   O     O_3   0.719314 0.775228 0.861421 -0.600040
O71   O     O_3   0.216090 0.177460 0.016910 -0.601229
O72   O     O_3   0.775322 0.289274 0.126673 -0.624622
O73   O     O_3   0.229775 0.711693 0.877573 -0.630233
O74   O     O_3   0.279914 0.323043 0.978862 -0.619462
O75   O     O_3   0.774791 0.725984 0.136653 -0.638640
O76   O     O_3   0.321818 0.266524 0.452386 -0.576929
O77   O     O_3   0.677412 0.746359 0.546669 -0.589308
O78   O     O_3   0.714037 0.305049 0.540674 -0.573894
O79   O     O_R   0.140020 0.727250 0.045450 -0.612939
O80   O     O_3   0.322087 0.759163 0.453680 -0.581926
O81   O     O_3   0.778701 0.811978 0.454308 -0.587255
O82   O     O_3   0.197819 0.291369 0.547196 -0.574817
O83   O     O_3   0.213380 0.804681 0.540750 -0.572497
O84   O     O_3   0.822642 0.257524 0.454194 -0.583800
O85   O     O_3   0.242043 0.262614 0.295596 -0.584325
O86   O     O_3   0.758458 0.745857 0.705285 -0.646604
O87   O     O_3   0.779706 0.296792 0.699607 -0.616115
O88   O     O_3   0.241269 0.754736 0.293190 -0.625274
O89   O     O_3   0.693882 0.812555 0.296793 -0.615515
O90   O     O_R   0.640020 0.772750 0.045450 -0.623406
O91   O     O_3   0.272009 0.284801 0.705053 -0.635809
O92   O     O_3   0.278921 0.796154 0.699658 -0.612254
O93   O     O_3   0.741502 0.254258 0.293186 -0.626211
O94   O     O_3   0.138870 0.230535 0.457251 -0.551049
O95   O     O_3   0.868494 0.756948 0.545641 -0.544534
O96   O     O_3   0.833262 0.196388 0.543003 -0.529420
O97   O     O_3   0.134870 0.741547 0.456194 -0.565535
O98   O     O_3   0.680245 0.691542 0.459363 -0.546521
O99   O     O_3   0.353584 0.207942 0.548828 -0.549026
O100  O     O_3   0.336068 0.698063 0.543048 -0.530826
Zn1   Zn    Zn3+2 0.923580 0.282490 0.935040 1.020826
Zn2   Zn    Zn3+2 0.988550 0.782480 0.064990 1.032890
Zn3   Zn    Zn3+2 0.988550 0.217520 0.064990 1.041230
Zn4   Zn    Zn3+2 0.011450 0.782480 0.935010 1.045823
Zn5   Zn    Zn3+2 0.511450 0.717520 0.935010 1.056186
Zn6   Zn    Zn3+2 0.488550 0.282480 0.064990 1.027666
Zn7   Zn    Zn3+2 0.488550 0.717520 0.064990 1.059154
Zn8   Zn    Zn3+2 0.511450 0.282480 0.935010 1.049323
Zn9   Zn    Zn3+2 0.076420 0.717510 0.064960 1.016452
Zn10  Zn    Zn3+2 0.076420 0.282490 0.064960 1.002412
Zn11  Zn    Zn3+2 0.923580 0.717510 0.935040 0.984670
Zn12  Zn    Zn3+2 0.423580 0.782490 0.935040 1.014363
Zn13  Zn    Zn3+2 0.576420 0.217510 0.064960 1.022901
Zn14  Zn    Zn3+2 0.576420 0.782490 0.064960 0.977767
Zn15  Zn    Zn3+2 0.423580 0.217510 0.935040 1.012905
Zn16  Zn    Zn3+2 0.011450 0.217520 0.935010 1.047751

loop_
_geom_bond_atom_site_label_1
_geom_bond_atom_site_label_2
_ccdc_geom_bond_type
C130  H52   S    
C167  H142  S    
C126  C127  S    
C226  O78   S    
C80   H273  S    
C236  O88   S    
C99   H318  S    
C242  O45   A    
C87   C88   S    
C267  O3    S    
C158  H119  S    
C65   H2    S    
C295  O51   S    
C21   O26   A    
C20   O20   A    
C131  O73   S    
C118  H25   S    
C191  O93   S    
C181  H173  S    
C40   O64   S    
C117  H21   S    
C35   C124  S    
C223  Cl26  S    
C266  O100  S    
C251  Cl28  S    
C130  H53   S    
C246  C255  A    
C78   H269  S    
C53   C221  S    
C5    O55   S    
C166  H140  S    
C84   H283  S    
C108  C109  S    
C176  H162  S    
C129  H50   S    
C158  O82   S    
C187  O92   S    
C2    C90   S    
C189  H193  S    
C110  C111  S    
C230  O83   S    
C165  H136  S    
C162  H128  S    
C262  C271  A    
C209  H239  S    
C108  H5    S    
C204  H228  S    
C181  H172  S    
C255  Cl31  S    
C238  C247  A    
O35   Zn13  S    
C147  H93   S    
C151  H103  S    
C113  C201  S    
C211  H245  S    
C133  H61   S    
C61   C62   S    
C109  H8    S    
C14   C278  A    
C79   C286  S    
C239  O92   S    
C154  O81   S    
C240  C249  A    
C91   H299  S    
C121  H33   S    
C237  O89   S    
C60   C146  S    
C187  H188  S    
C71   H135  S    
C214  H250  S    
C235  O87   S    
C104  C105  S    
C161  C162  S    
O24   Zn14  S    
C203  H225  S    
C11   C20   S    
C111  H12   S    
O79   Zn9   S    
C171  O86   S    
C209  H241  S    
C191  C192  S    
O24   Zn12  S    
C184  O91   S    
C141  H78   S    
C4    O54   S    
C133  H60   S    
C75   H246  S    
C120  H30   S    
C67   H68   S    
O18   Zn4   S    
C110  H9    S    
C144  C145  S    
C96   H310  S    
C100  O63   S    
C125  O71   S    
C196  H208  S    
C294  O50   S    
C33   C51   A    
C173  H155  S    
C291  O38   A    
C83   H279  S    
C239  C248  A    
O7    Zn2   S    
C88   H292  S    
C123  H38   S    
C134  H63   S    
C75   C76   S    
C171  H149  S    
C125  H41   S    
C219  H264  S    
C151  O80   S    
C68   O75   S    
C251  C260  A    
C175  C176  S    
C100  H321  S    
C205  H230  S    
C82   H278  S    
C54   Cl11  S    
O6    Zn16  S    
C154  C155  S    
C190  Cl20  S    
C111  H11   S    
C62   H223  S    
C261  O96   S    
O16   Zn2   S    
C105  H331  S    
C255  C263  A    
C131  H55   S    
C174  H158  S    
C224  C233  A    
C160  H122  S    
C158  C159  S    
O1    Zn10  S    
C185  H182  S    
C36   C44   A    
C169  H144  S    
C168  Cl18  S    
C153  H106  S    
C196  H207  S    
C97   H314  S    
O68   Zn1   S    
O14   Zn8   S    
C105  C106  S    
C143  H85   S    
C26   C34   A    
C214  C215  S    
C66   H46   S    
C117  H23   S    
C177  H165  S    
C72   C73   S    
C183  H177  S    
C76   H257  S    
C61   H112  S    
O20   Zn6   S    
C139  C140  S    
C121  C122  S    
C74   H224  S    
C81   H275  S    
C166  H138  S    
C8    C17   S    
C257  Cl33  S    
C22   O25   A    
C86   H287  S    
C217  C218  S    
C25   O29   A    
C170  H147  S    
C226  C270  A    
C203  H222  S    
O13   Zn9   S    
C16   C284  A    
C278  Cl2   S    
O28   Zn14  S    
C141  O76   S    
C146  C222  S    
C107  O65   S    
C46   C53   S    
C191  H195  S    
C227  C271  A    
C147  H91   S    
C206  H232  S    
O90   Zn14  S    
C154  H110  S    
C69   C70   S    
C137  H70   S    
C145  H89   S    
C210  H242  S    
C148  H95   S    
C207  H236  S    
C282  Cl6   S    
C195  C196  S    
C177  O88   S    
C66   H35   S    
C66   H24   S    
C228  C237  A    
C88   C89   S    
C18   O18   A    
C200  C202  S    
C98   C99   S    
C155  C156  S    
C52   C212  S    
C163  H131  S    
C150  H99   S    
C56   C286  S    
C116  H19   S    
C186  H184  S    
C23   O30   A    
C144  H86   S    
C243  C289  S    
O49   Zn8   S    
C256  Cl32  S    
C140  H77   S    
C245  C287  S    
C225  O77   S    
C180  H169  S    
C141  H80   S    
C249  C258  A    
C126  H42   S    
C128  C129  S    
C19   O21   A    
C149  H97   S    
C57   O74   S    
C185  C186  S    
C96   H312  S    
C29   C49   A    
C85   C86   S    
C31   C40   A    
C101  C112  S    
C74   H212  S    
C246  C292  S    
C155  H111  S    
C86   H289  S    
C148  O78   S    
C225  C234  A    
C186  H185  S    
C99   H319  S    
O1    Zn16  S    
C219  H262  S    
C199  H216  S    
C288  O8    A    
C188  H191  S    
C71   H146  S    
C78   C80   S    
C161  H126  S    
C81   O56   S    
C118  O69   S    
C115  C116  S    
C249  C291  S    
C143  H84   S    
C260  C269  A    
C279  Cl3   S    
C27   Cl12  S    
C220  O68   A    
O36   Zn11  S    
C150  H100  S    
C204  O97   S    
C143  H83   S    
C91   O60   S    
O1    Zn3   S    
O15   Zn16  S    
C259  C268  A    
C114  H16   S    
C93   H302  S    
C7    O58   S    
C208  H238  S    
C217  O3    S    
C89   H295  S    
O13   Zn4   S    
C174  H156  S    
C29   C38   A    
C142  H82   S    
C94   O61   S    
C32   C41   A    
C73   H179  S    
C115  H17   S    
C217  H258  S    
C162  H129  S    
C164  H133  S    
C296  O52   S    
C90   C220  S    
C253  O2    A    
C24   C60   S    
C39   C45   A    
C247  C256  A    
O29   Zn15  S    
C135  C264  S    
C128  O72   S    
C74   O54   S    
C39   O63   S    
C230  C239  A    
C221  C286  S    
C160  H123  S    
C93   H305  S    
C119  H27   S    
C174  O87   S    
C195  H206  S    
C69   H90   S    
C233  O85   S    
O26   Zn1   S    
C35   C179  S    
C135  C221  S    
C41   O65   S    
C243  C251  A    
C5    C282  A    
C242  O90   A    
C197  H210  S    
C89   H296  S    
C85   H286  S    
C228  C272  A    
C170  H145  S    
C91   C92   S    
O13   Zn11  S    
C231  O44   A    
C208  C209  S    
C275  O5    A    
C210  O99   S    
C71   O53   S    
C207  O98   S    
C83   H281  S    
C26   Cl1   S    
C192  H198  S    
C193  H199  S    
C157  C242  S    
C115  O67   S    
C3    C9    A    
C207  H234  S    
C222  Cl25  S    
C213  H248  S    
C151  C152  S    
O47   Zn6   S    
C172  H152  S    
C196  H209  S    
O37   Zn12  S    
C123  H39   S    
C197  O95   S    
O13   Zn2   S    
C56   Cl14  S    
C103  H328  S    
O19   Zn5   S    
C265  C273  A    
C177  C178  S    
C138  H71   S    
C180  H171  S    
C120  H31   S    
C19   O19   A    
C250  C259  A    
C9    C295  A    
C77   O55   S    
C129  C130  S    
C221  Cl24  S    
C17   O17   A    
C211  C213  S    
C25   C47   S    
C28   C48   A    
C122  H36   S    
C80   H274  S    
C160  H125  S    
C253  O47   A    
C34   C43   A    
C289  O36   A    
C31   C51   A    
C136  C137  S    
C224  C268  A    
C172  H151  S    
C13   C59   S    
C213  H249  S    
C152  H104  S    
O40   Zn15  S    
C118  H26   S    
C136  H65   S    
C290  O10   A    
C150  H98   S    
C149  H96   S    
C224  O76   S    
C71   C72   S    
C114  H14   S    
C137  H69   S    
C130  H54   S    
C8    C294  A    
C28   C37   A    
C116  H20   S    
C127  H47   S    
C84   H284  S    
C30   C39   A    
C1    C113  S    
C70   H124  S    
C102  C103  S    
O8    Zn3   S    
C258  Cl35  S    
C200  H219  S    
C9    C18   S    
O39   Zn14  S    
C152  C153  S    
C254  C262  A    
C264  O4    A    
C57   C201  S    
C157  C223  S    
C52   Cl9   S    
C139  H74   S    
O5    Zn13  S    
C132  H58   S    
C12   C277  A    
O31   Zn13  S    
C148  H94   S    
C17   O15   A    
C109  H7    S    
C54   C57   S    
C271  C274  S    
C256  C265  A    
C77   H268  S    
C23   C45   S    
C238  O91   S    
C121  H32   S    
C232  C276  A    
C70   H101  S    
C52   C90   S    
C6    C283  A    
C187  H187  S    
C250  Cl27  S    
C24   O71   S    
C214  O100  S    
C92   H301  S    
C36   O60   S    
C55   C68   S    
O44   Zn4   S    
C285  O32   A    
O38   Zn13  S    
C77   C78   S    
C227  C236  A    
C182  H174  S    
C229  C273  A    
C240  O93   S    
C94   H306  S    
C46   C168  S    
C140  H76   S    
C164  C165  S    
C5    C11   A    
C107  H336  S    
C265  O99   S    
C59   Cl16  S    
C110  H10   S    
C124  C275  S    
C175  H159  S    
C216  H255  S    
C14   C280  A    
C106  H335  S    
C215  H252  S    
O33   Zn9   S    
C173  H154  S    
C231  O79   A    
C35   O72   S    
C73   H201  S    
C123  H37   S    
O32   Zn1   S    
C87   H290  S    
C219  H263  S    
C102  H324  S    
C13   O70   S    
C215  H253  S    
C277  C294  A    
C100  H322  S    
C152  H105  S    
C205  H229  S    
C112  O57   A    
C64   O51   S    
O34   Zn10  S    
C87   O59   S    
C104  H329  S    
C80   H272  S    
C120  H29   S    
C26   C48   A    
C76   H265  S    
C167  H141  S    
C254  Cl30  S    
C194  C195  S    
C30   C50   A    
C122  H34   S    
O23   Zn10  S    
C57   C146  S    
C230  C274  A    
C290  O37   A    
C169  H143  S    
C13   C223  S    
C70   H113  S    
O42   Zn2   S    
C97   H313  S    
O11   Zn6   S    
C145  C147  S    
C97   C98   S    
C42   O66   S    
C267  C276  A    
C32   Cl38  S    
C207  C208  S    
C46   O73   S    
C117  H22   S    
C177  H164  S    
C84   C85   S    
C167  C169  S    
C101  C190  S    
C202  C203  S    
C263  O98   S    
C124  C212  S    
C260  O95   S    
C127  H45   S    
C134  H64   S    
C166  H139  S    
C82   C83   S    
C102  H323  S    
C201  Cl21  S    
C178  H167  S    
C64   H326  S    
C176  H161  S    
C129  H51   S    
C22   O27   A    
C86   H288  S    
C189  H194  S    
C28   Cl23  S    
C38   C44   A    
C62   C63   S    
C170  H148  S    
C291  O11   A    
C189  H192  S    
C159  C160  S    
C106  H333  S    
C68   C190  S    
C194  H203  S    
C204  H227  S    
C289  O9    A    
C128  H49   S    
C50   C51   S    
C206  H233  S    
C41   C45   A    
C132  H59   S    
C1    O46   A    
O57   Zn11  S    
C12   C279  A    
C225  C269  A    
C210  H243  S    
C184  H180  S    
C200  O96   S    
C262  O97   S    
C48   C49   S    
C128  H48   S    
C73   H190  S    
O46   Zn10  S    
C153  H108  S    
C110  O66   S    
C125  C126  S    
C159  H121  S    
C3    O53   S    
C33   C42   A    
C88   H294  S    
C68   C157  S    
C55   C223  S    
C162  C163  S    
C293  O40   A    
C21   O23   A    
C203  H226  S    
C55   C101  S    
C140  H75   S    
C121  O70   S    
C72   H157  S    
C108  H4    S    
C293  O14   A    
C178  H166  S    
C180  H170  S    
C236  C245  A    
C241  C250  A    
O30   Zn12  S    
C58   Cl15  S    
C6    C10   A    
C178  C180  S    
C119  C120  S    
C2    C58   S    
C60   Cl17  S    
C46   C135  S    
C24   C222  S    
C27   C36   A    
O12   Zn7   S    
O48   Zn7   S    
C8    C296  A    
C245  C254  A    
C2    C212  S    
C165  H137  S    
C64   C65   S    
C186  H186  S    
C198  H214  S    
C55   Cl13  S    
C171  H150  S    
C187  C188  S    
C199  H215  S    
C149  C150  S    
C192  C193  S    
C218  H260  S    
C59   C157  S    
C3    C280  A    
C220  O43   A    
C266  C274  A    
C63   H293  S    
C278  C295  A    
C25   O31   A    
C92   C93   S    
C82   H277  S    
C237  C246  A    
C31   Cl37  S    
C111  C114  S    
C181  O89   S    
C94   C95   S    
C75   H235  S    
C235  C244  A    
C138  C139  S    
O25   Zn11  S    
O1    Zn1   S    
C60   C201  S    
C105  H332  S    
C6    O56   S    
O27   Zn9   S    
C131  H56   S    
C269  C272  S    
C98   H316  S    
C35   C52   S    
C142  C143  S    
C185  H183  S    
C59   C190  S    
C153  H107  S    
C164  H134  S    
C229  C238  A    
C104  O64   S    
C218  H261  S    
C275  O49   A    
C7    C284  A    
C182  C183  S    
C167  O85   S    
C200  H218  S    
C285  O6    A    
C40   C47   A    
C171  C172  S    
C209  H240  S    
C37   C43   A    
C165  C166  S    
C30   Cl36  S    
C169  C170  S    
C15   C283  A    
C95   C96   S    
C112  O42   A    
C215  C216  S    
C183  H178  S    
C1    O41   A    
C93   H303  S    
C81   C82   S    
C195  H205  S    
C205  C206  S    
C97   O62   S    
C7    C11   A    
C89   H297  S    
C115  H18   S    
C176  H163  S    
C159  H120  S    
C53   C79   S    
C154  H109  S    
C287  O7    A    
C85   H285  S    
C92   H300  S    
C23   O28   A    
C188  H189  S    
O43   Zn3   S    
C54   C222  S    
C284  Cl8   S    
C279  C296  A    
C227  O80   S    
C15   C16   S    
C54   C113  S    
C181  C182  S    
C191  H196  S    
C95   H309  S    
C147  H92   S    
C151  H102  S    
C206  H231  S    
C211  H244  S    
O35   Zn6   S    
C118  C119  S    
C125  H40   S    
C2    O69   S    
C174  C175  S    
C286  O67   S    
C127  H44   S    
C22   C44   S    
C228  O81   S    
C156  H117  S    
C216  H254  S    
C132  C133  S    
C91   H298  S    
C268  C273  S    
C98   H317  S    
C163  H132  S    
C58   C179  S    
C106  H334  S    
C79   C168  S    
C10   C19   S    
C87   H291  S    
C63   H304  S    
C103  H327  S    
C234  C243  A    
C42   C47   A    
C212  Cl22  S    
C72   H168  S    
O4    Zn12  S    
C259  O94   S    
C24   C113  S    
C155  H114  S    
O21   Zn7   S    
C62   H271  S    
O10   Zn5   S    
O24   Zn5   S    
C138  O75   S    
C197  C198  S    
C258  C267  A    
C69   H79   S    
C137  H67   S    
C96   H311  S    
C134  O74   S    
C67   H57   S    
O22   Zn8   S    
C292  O12   A    
C74   C75   S    
C270  C276  S    
C99   H320  S    
C107  H3    S    
C148  C149  S    
C202  H221  S    
C198  H213  S    
C34   O59   S    
C161  H127  S    
C134  C136  S    
C144  H87   S    
O9    Zn4   S    
C136  H66   S    
C226  C235  A    
C194  O94   S    
C188  C189  S    
C67   C69   S    
C145  H88   S    
C257  C266  A    
C193  H202  S    
O35   Zn8   S    
C114  H15   S    
C208  H237  S    
O17   Zn3   S    
C292  O39   A    
C107  C108  S    
C79   C231  S    
C156  H115  S    
C142  H81   S    
C100  C102  S    
C4    C281  A    
C133  H62   S    
C67   O52   S    
C217  H259  S    
C204  C205  S    
C63   H282  S    
C83   H280  S    
C32   C50   A    
C261  C270  A    
C198  C199  S    
C84   O58   S    
C252  C261  A    
C233  C241  A    
C263  C272  A    
C156  H116  S    
C12   C14   S    
C210  C211  S    
O35   Zn15  S    
C95   H308  S    
C15   C281  A    
C184  C185  S    
C139  H73   S    
C13   C101  S    
C164  O84   S    
C281  Cl5   S    
C119  H28   S    
C78   H270  S    
C56   C135  S    
C172  C173  S    
C232  C240  A    
C109  H6    S    
C283  Cl7   S    
C264  O48   A    
C90   C179  S    
C77   H267  S    
C244  C252  A    
C232  O84   S    
C202  H220  S    
C33   Cl39  S    
C197  H211  S    
C4    C10   A    
O45   Zn5   S    
O2    Zn15  S    
C158  H118  S    
C199  H217  S    
C81   H276  S    
C182  H175  S    
C247  C293  S    
C58   C124  S    
C94   H307  S    
C248  C290  S    
C192  H197  S    
C104  H330  S    
C53   Cl10  S    
C38   O62   S    
C193  H200  S    
C65   H13   S    
C37   O61   S    
C146  C253  S    
C141  C142  S    
C234  O86   S    
C194  H204  S    
C229  O82   S    
C213  H247  S    
C218  C219  S    
C216  H256  S    
C184  H181  S    
C116  C117  S    
C214  H251  S    
C277  Cl40  S    
C163  H130  S    
C173  H153  S    
C144  O77   S    
C61   O50   S    
C241  C288  S    
C16   C282  A    
C131  C132  S    
C161  O83   S    
C179  Cl19  S    
C103  H325  S    
O41   Zn16  S    
C248  C257  A    
C27   C49   A    
C244  C285  S    
C183  H176  S    
C288  O34   A    
C65   C66   S    
C126  H43   S    
C56   C168  S    
C287  O33   A    
O24   Zn7   S    
C280  Cl4   S    
C61   H1    S    
C29   Cl34  S    
C138  H72   S    
C122  C123  S    
C20   O22   A    
C252  Cl29  S    
C64   H315  S    
C21   C43   S    
C175  H160  S    
C76   H266  S    
C18   O16   A    
