data_mof_unit_40738.cif
_audit_creation_date              2012-10-26T18:51:43-0400
_audit_creation_method            fapswitch 2.2
_symmetry_space_group_name_H-M    P1
_symmetry_Int_Tables_number       1
_space_group_crystal_system       triclinic
_cell_length_a                    11.685953
_cell_length_b                    14.778094
_cell_length_c                    14.809825
_cell_angle_alpha                 64.63145
_cell_angle_beta                  105.488756
_cell_angle_gamma                 102.178754
_cell_volume                      2213.3116236

loop_
_atom_site_label
_atom_site_type_symbol
_atom_type_description
_atom_site_fract_x
_atom_site_fract_y
_atom_site_fract_z
_atom_type_partial_charge
C1    C     C_R   0.482369 0.119546 0.311667 0.552135
C2    C     C_R   0.590452 0.609369 0.102174 -0.128536
C3    C     C_R   0.734714 0.301769 0.632593 -0.114726
C4    C     C_R   0.305913 0.722476 0.322475 -0.097511
C5    C     C_R   0.685766 0.212109 0.621879 0.354937
C6    C     C_R   0.329840 0.797096 0.360373 0.349080
C7    C     C_R   0.509528 0.286288 0.511390 0.375771
C8    C     C_R   0.493941 0.717275 0.484568 0.383467
C9    C     C_R   0.563843 0.383639 0.512382 -0.036967
C10   C     C_R   0.476985 0.641371 0.444007 -0.050420
C11   C     C_R   0.675800 0.387936 0.578269 -0.035367
C12   C     C_R   0.514259 0.881058 0.688304 0.563500
C13   C     C_R   0.378909 0.644946 0.362423 -0.028847
C14   C     C_R   0.508694 0.475690 0.456083 -0.006988
C15   C     C_R   0.549557 0.559997 0.483561 -0.038368
C16   C     C_R   0.284356 0.999826 0.500394 0.532405
C17   C     C_R   0.715760 0.999634 0.500373 0.558796
C18   C     C_R   0.665072 0.562808 0.542929 -0.092528
C19   C     C_R   0.425797 0.491950 0.364567 -0.082534
C20   C     C_R   0.727134 0.477884 0.591352 0.269273
C21   C     C_R   0.357186 0.573723 0.318412 0.280217
C22   C     C_1   0.162668 0.999656 0.500793 0.013993
C23   C     C_R   0.431079 0.327047 0.998232 0.011088
C24   C     C_1   0.837497 0.999316 0.500542 0.026295
C25   C     C_1   0.060080 0.999489 0.500848 -0.004514
C26   C     C_1   0.940126 0.999316 0.500719 -0.002336
C27   C     C_R   0.472487 0.187556 0.202171 -0.035722
C28   C     C_R   0.516418 0.816147 0.798292 -0.038827
C29   C     C_R   0.420733 0.223168 0.020174 0.293331
C30   C     C_R   0.577944 0.782562 0.979806 0.291237
C31   C     C_R   0.441541 0.153336 0.121950 0.266424
C32   C     C_R   0.561271 0.851502 0.877669 0.269819
C33   C     C_R   0.493792 0.291423 0.178063 -0.204470
C34   C     C_R   0.553771 0.678274 0.002934 0.007609
C35   C     C_R   0.471836 0.714759 0.824343 -0.204688
C36   C     C_R   0.477579 0.362596 0.077020 -0.021462
C37   C     C_R   0.494290 0.643021 0.925372 -0.023322
C38   C     C_3   0.483752 0.191392 0.905388 -0.058077
C39   C     C_3   0.535699 0.826617 0.095615 -0.057451
C40   C     C_3   0.830047 0.481011 0.743842 -0.117379
C41   C     C_3   0.284692 0.555877 0.163130 -0.116165
C42   C     C_3   0.531048 0.634835 0.656580 -0.116232
C43   C     C_3   0.326736 0.273892 0.399787 -0.060816
C44   C     C_R   0.502699 0.468220 0.052595 0.044511
C45   C     C_R   0.466067 0.537215 0.950469 0.046315
C46   C     C_R   0.405614 0.497741 0.876513 -0.152642
C47   C     C_R   0.567219 0.506753 0.126337 -0.158668
C48   C     C_R   0.393283 0.395421 0.899018 -0.120410
Cl1   Cl    Cl    0.593113 0.980628 0.855340 -0.501523
Cl2   Cl    Cl    0.429061 0.024808 0.143493 -0.535755
Cl3   Cl    Cl    0.234599 0.892718 0.301471 -0.485767
Cl4   Cl    Cl    0.769978 0.109545 0.693901 -0.474572
Cu1   Cu    Cu3+1 0.469550 0.918260 0.475690 1.106526
Cu2   Cu    Cu3+1 0.530450 0.081740 0.524310 1.085478
H1    H     H_    0.350882 0.369835 0.838203 0.168114
H2    H     H_    0.230813 0.727123 0.259718 0.208512
H3    H     H_    0.453761 0.163186 0.843504 0.197990
H4    H     H_    0.549283 0.141581 0.966037 0.178208
H5    H     H_    0.527877 0.269575 0.872463 0.083373
H6    H     H_    0.473298 0.879834 0.035391 0.187448
H7    H     H_    0.575889 0.857256 0.155011 0.191935
H8    H     H_    0.485595 0.752174 0.132475 0.094530
H9    H     H_    0.771995 0.412846 0.783914 0.113175
H10   H     H_    0.795921 0.550398 0.733322 0.125283
H11   H     H_    0.920088 0.477412 0.793715 0.159825
H12   H     H_    0.639682 0.634523 0.162005 0.168672
H13   H     H_    0.271729 0.472937 0.186095 0.113839
H14   H     H_    0.375242 0.587955 0.146966 0.113252
H15   H     H_    0.219962 0.588558 0.090848 0.161066
H16   H     H_    0.541605 0.558476 0.665694 0.101529
H17   H     H_    0.434867 0.638409 0.649948 0.113045
H18   H     H_    0.583223 0.644044 0.727100 0.150801
H19   H     H_    0.267648 0.334779 0.365710 0.128461
H20   H     H_    0.262782 0.206599 0.402742 0.150363
H21   H     H_    0.386910 0.286037 0.348223 0.093885
H22   H     H_    0.710662 0.631349 0.550800 0.188567
H23   H     H_    0.422555 0.445943 0.324438 0.077034
H24   H     H_    0.422183 0.693781 0.763112 0.127007
H25   H     H_    0.517859 0.315927 0.239912 0.129736
H26   H     H_    0.366949 0.543581 0.799714 0.099820
H27   H     H_    0.604641 0.459625 0.203442 0.112603
H28   H     H_    0.820355 0.303582 0.683548 0.195995
N1    N     N_R   0.576230 0.204580 0.560790 -0.210582
N2    N     N_R   0.423770 0.795420 0.439210 -0.218248
O1    O     O_R   0.459870 0.022090 0.338120 -0.407956
O2    O     O_3   0.628363 0.817552 0.056403 -0.527698
O3    O     O_3   0.840492 0.483722 0.649941 -0.559551
O4    O     O_3   0.260393 0.581215 0.237243 -0.569303
O5    O     O_3   0.576323 0.711266 0.572666 -0.549260
O6    O     O_3   0.385510 0.266028 0.499290 -0.531561
O7    O     O_R   0.540130 0.977910 0.661880 -0.404106
O8    O     O_R   0.511290 0.160150 0.379180 -0.552642
O9    O     O_R   0.488710 0.839850 0.620820 -0.492867
O10   O     O_R   0.311490 0.930960 0.479480 -0.457332
O11   O     O_R   0.688510 0.069040 0.520520 -0.460625
O12   O     O_R   0.362910 0.069020 0.520540 -0.479554
O13   O     O_R   0.637090 0.930980 0.479460 -0.467834
O14   O     O_3   0.383063 0.188686 0.942396 -0.523560

loop_
_geom_bond_atom_site_label_1
_geom_bond_atom_site_label_2
_ccdc_geom_bond_type
C43   H19   S    
C15   C18   A    
C7    N1    A    
C48   H1    S    
C34   C37   A    
C12   O7    A    
C38   O14   S    
C41   H13   S    
Cu1   Cu2   S    
C27   C33   A    
C40   H9    S    
C29   O14   S    
C12   C28   S    
Cu1   N2    S    
C23   C29   A    
C40   O3    S    
C35   C37   A    
C24   C26   T    
C10   C15   A    
C5    N1    A    
C20   O3    S    
C42   H16   S    
C33   C36   A    
C4    C13   A    
C19   H23   S    
C38   H4    S    
C28   C35   A    
C22   C25   T    
C16   C22   S    
C5    Cl4   S    
C17   O11   A    
C6    Cl3   S    
C30   O2    S    
Cu2   O12   S    
C44   C47   A    
C2    C34   A    
C43   H20   S    
C21   O4    S    
C4    H2    S    
C43   H21   S    
Cu2   N1    S    
C41   H14   S    
C1    O1    A    
C39   H7    S    
C46   C48   A    
C11   C20   A    
C16   O12   A    
C17   C24   S    
C6    N2    A    
C30   C34   A    
C27   C31   A    
C43   O6    S    
C28   C32   A    
C4    C6    A    
C33   H25   S    
C3    C5    A    
C25   C26   S    
C45   C46   A    
C7    O6    S    
Cu1   O9    S    
C9    C14   A    
Cu2   O8    S    
C38   H3    S    
C3    H28   S    
C42   H18   S    
C13   C21   A    
C9    C11   A    
Cu2   O11   S    
C1    O8    A    
C40   H11   S    
C12   O9    A    
C36   C44   A    
C31   Cl2   S    
C37   C45   A    
C44   C45   A    
C41   H15   S    
C7    C9    A    
C41   O4    S    
C18   H22   S    
C23   C48   A    
C19   C21   A    
Cu1   O10   S    
C8    N2    A    
C14   C19   A    
C2    H12   S    
C10   C13   A    
C2    C47   A    
C35   H24   S    
C16   O10   A    
C40   H10   S    
C42   O5    S    
Cu1   O13   S    
Cu2   O7    S    
C29   C31   A    
C30   C32   A    
C39   H6    S    
C42   H17   S    
C18   C20   A    
C47   H27   S    
C32   Cl1   S    
C3    C11   A    
C38   H5    S    
C8    C10   A    
C23   C36   A    
C39   H8    S    
C1    C27   S    
C14   C15   A    
Cu1   O1    S    
C8    O5    S    
C46   H26   S    
C39   O2    S    
C17   O13   A    
