data_mof_unit_16824.cif
_audit_creation_date              2012-12-10T18:47:41-0500
_audit_creation_method            fapswitch 2.2
_symmetry_space_group_name_H-M    P1
_symmetry_Int_Tables_number       1
_space_group_crystal_system       triclinic
_cell_length_a                    18.095143
_cell_length_b                    18.102705
_cell_length_c                    59.860548
_cell_angle_alpha                 89.990316
_cell_angle_beta                  90.012762
_cell_angle_gamma                 90.032203
_cell_volume                      19608.5778404

loop_
_atom_site_label
_atom_site_type_symbol
_atom_type_description
_atom_site_fract_x
_atom_site_fract_y
_atom_site_fract_z
_atom_type_partial_charge
C1    C     C_R   0.499952 0.000003 0.810375 0.562268
C2    C     C_R   0.497642 0.993891 0.382397 0.185759
C3    C     C_R   0.142418 0.526825 0.524068 0.267619
C4    C     C_R   0.569835 0.881787 0.476503 0.283918
C5    C     C_R   0.456803 0.120934 0.523642 0.266818
C6    C     C_R   0.123543 0.577620 0.475989 0.283875
C7    C     C_R   0.876064 0.486598 0.523725 0.272940
C8    C     C_R   0.642209 0.859542 0.749999 0.517506
C9    C     C_R   0.358872 0.141823 0.250564 0.544849
C10   C     C_R   0.140679 0.642126 0.749909 0.510107
C11   C     C_R   0.858308 0.358767 0.250437 0.542064
C12   C     C_R   0.358220 0.140957 0.749772 0.513610
C13   C     C_R   0.007644 0.502658 0.617857 0.129480
C14   C     C_R   0.641351 0.858437 0.250438 0.550829
C15   C     C_R   0.859461 0.357883 0.749965 0.516327
C16   C     C_R   0.141389 0.641510 0.250381 0.553903
C17   C     C_R   0.141442 0.358644 0.249588 0.525459
C18   C     C_R   0.858630 0.641538 0.750388 0.543691
C19   C     C_R   0.640270 0.142338 0.250083 0.516622
C20   C     C_R   0.358591 0.858515 0.750382 0.557492
C21   C     C_R   0.858035 0.640781 0.249862 0.516712
C22   C     C_R   0.141204 0.358267 0.750504 0.544589
C23   C     C_R   0.359180 0.857994 0.249862 0.502417
C24   C     C_R   0.010056 0.501057 0.382382 0.186635
C25   C     C_R   0.641492 0.141392 0.750372 0.541124
C26   C     C_3   0.694987 0.270464 0.763815 -0.125705
C27   C     C_3   0.308091 0.725995 0.237128 -0.207033
C28   C     C_3   0.729035 0.694590 0.763558 -0.124631
C29   C     C_3   0.271832 0.306566 0.236074 -0.200134
C30   C     C_3   0.304848 0.729463 0.764059 -0.121508
C31   C     C_3   0.687929 0.276099 0.238820 -0.196155
C32   C     C_3   0.272269 0.306339 0.763209 -0.123173
C33   C     C_3   0.725606 0.690629 0.237588 -0.203307
C34   C     C_3   0.195931 0.769632 0.264564 -0.116207
C35   C     C_R   0.999930 0.504713 0.117735 0.127324
C36   C     C_3   0.810510 0.225150 0.738032 -0.195278
C37   C     C_3   0.230041 0.196494 0.264699 -0.126428
C38   C     C_3   0.775544 0.811120 0.738373 -0.195439
C39   C     C_3   0.805478 0.229065 0.263487 -0.126042
C40   C     C_3   0.190489 0.775198 0.737763 -0.215562
C41   C     C_3   0.770056 0.804362 0.264271 -0.123997
C42   C     C_3   0.224843 0.189607 0.738077 -0.199430
C43   C     C_3   0.726088 0.310179 0.743037 0.231482
C44   C     C_3   0.278405 0.684202 0.257918 0.187547
C45   C     C_3   0.690179 0.726537 0.742735 0.230797
C46   C     C_R   0.999656 0.502262 0.882461 0.188952
C47   C     C_3   0.314464 0.280232 0.257097 0.168557
C48   C     C_3   0.274542 0.689502 0.743252 0.217510
C49   C     C_3   0.721797 0.315132 0.259548 0.183548
C50   C     C_3   0.309968 0.275168 0.742089 0.229903
C51   C     C_3   0.684462 0.721294 0.258402 0.183092
C52   C     C_3   0.224395 0.811364 0.243852 0.203629
C53   C     C_3   0.778279 0.184664 0.758766 0.182667
C54   C     C_3   0.188068 0.222029 0.243630 0.229446
C55   C     C_3   0.815179 0.778020 0.759122 0.182546
C56   C     C_3   0.772846 0.190874 0.242641 0.230585
C57   C     C_R   0.499253 0.998432 0.117905 0.131225
C58   C     C_3   0.222025 0.815487 0.758588 0.188414
C59   C     C_3   0.810620 0.774826 0.243471 0.228741
C60   C     C_3   0.186522 0.221700 0.759134 0.176179
C61   C     C_3   0.805334 0.298714 0.751257 -0.024771
C62   C     C_3   0.198672 0.698074 0.250595 0.025989
C63   C     C_3   0.701395 0.805429 0.751296 -0.026348
C64   C     C_3   0.302128 0.198995 0.250731 0.003805
C65   C     C_3   0.194865 0.701500 0.751132 -0.031857
C66   C     C_3   0.800250 0.302982 0.250698 0.000624
C67   C     C_3   0.299792 0.195968 0.750522 -0.022197
C68   C     C_R   0.497968 0.000067 0.882341 0.180538
C69   C     C_3   0.697605 0.800878 0.250696 0.006772
C70   C     C_3   0.304782 0.798770 0.251040 -0.034395
C71   C     C_3   0.699178 0.197492 0.750523 0.000525
C72   C     C_3   0.199506 0.303081 0.249950 -0.011207
C73   C     C_3   0.802596 0.699306 0.750560 -0.000426
C74   C     C_3   0.694208 0.201620 0.251488 -0.027330
C75   C     C_3   0.301207 0.802093 0.750615 0.020687
C76   C     C_3   0.798817 0.694950 0.251120 -0.025756
C77   C     C_3   0.197680 0.300876 0.750671 0.002743
C78   C     C_3   0.775498 0.257231 0.771940 0.279821
C79   C     C_R   0.487326 0.990252 0.547183 -0.066805
C80   C     C_3   0.226841 0.740430 0.230055 0.282587
C81   C     C_3   0.742054 0.774734 0.772020 0.280142
C82   C     C_3   0.259365 0.224190 0.229935 0.283733
C83   C     C_3   0.224102 0.743087 0.771858 0.282450
C84   C     C_3   0.767604 0.264240 0.230147 0.286401
C85   C     C_3   0.260558 0.225938 0.771453 0.271441
C86   C     C_3   0.738735 0.771602 0.230135 0.284374
C87   C     C_3   0.277289 0.755593 0.271682 0.282927
C88   C     C_3   0.730177 0.237765 0.730007 0.283585
C89   C     C_3   0.242935 0.278796 0.270751 0.273851
C90   C     C_R   0.491389 0.990780 0.452932 -0.072694
C91   C     C_3   0.763179 0.731176 0.730012 0.284454
C92   C     C_3   0.725573 0.241646 0.272233 0.280156
C93   C     C_3   0.271244 0.761542 0.730001 0.282181
C94   C     C_3   0.756579 0.723316 0.271840 0.280022
C95   C     C_3   0.236084 0.270028 0.729797 0.285918
C96   C     C_R   0.471423 0.054866 0.582367 0.419015
C97   C     C_R   0.535484 0.940634 0.417802 0.415592
C98   C     C_R   0.944452 0.488546 0.582294 0.423499
C99   C     C_R   0.066262 0.537554 0.417503 0.419545
C100  C     C_R   0.505672 0.927617 0.582604 0.417146
C101  C     C_R   0.009114 0.505048 0.547150 -0.067325
C102  C     C_R   0.454407 0.044515 0.417526 0.416920
C103  C     C_R   0.073059 0.517548 0.582582 0.420076
C104  C     C_R   0.956287 0.464819 0.417731 0.421839
C105  C     C_R   0.998567 0.570703 0.082311 0.417879
C106  C     C_R   0.024405 0.441972 0.917751 0.418005
C107  C     C_R   0.439402 0.970352 0.082514 0.421880
C108  C     C_R   0.543225 0.047865 0.917655 0.416180
C109  C     C_R   0.999682 0.438900 0.082378 0.419768
C110  C     C_R   0.974383 0.563898 0.917520 0.418264
C111  C     C_R   0.558829 0.026312 0.082472 0.421483
C112  C     C_R   0.500016 0.999919 0.189752 0.490387
C113  C     C_R   0.010609 0.503317 0.452896 -0.069111
C114  C     C_R   0.451649 0.952983 0.917634 0.416353
C115  C     C_R   0.442679 0.950361 0.630549 0.317783
C116  C     C_R   0.436420 0.967707 0.370366 0.244678
C117  C     C_R   0.050793 0.451794 0.629899 0.308791
C118  C     C_R   0.029707 0.437127 0.370598 0.246121
C119  C     C_R   0.544919 0.037636 0.628807 0.308022
C120  C     C_R   0.559845 0.021584 0.371146 0.246419
C121  C     C_R   0.962529 0.553034 0.629465 0.307179
C122  C     C_R   0.986912 0.564617 0.370951 0.243361
C123  C     C_R   0.941307 0.471860 0.129490 0.308728
C124  C     C_R   0.998256 0.504510 0.047079 -0.068182
C125  C     C_R   0.933444 0.490293 0.870882 0.243618
C126  C     C_R   0.551468 0.956241 0.129738 0.308693
C127  C     C_R   0.529560 0.940372 0.870777 0.246639
C128  C     C_R   0.059346 0.536366 0.129612 0.312445
C129  C     C_R   0.066017 0.513362 0.870885 0.243347
C130  C     C_R   0.447061 0.040767 0.129687 0.306747
C131  C     C_R   0.467022 0.059640 0.870578 0.247338
C132  C     C_R   0.449279 0.947557 0.653864 0.192512
C133  C     C_R   0.436466 0.970296 0.346772 0.172268
C134  C     C_R   0.052732 0.454458 0.653296 0.183360
C135  C     C_R   0.998774 0.503380 0.952886 -0.072521
C136  C     C_R   0.023954 0.435425 0.347055 0.164274
C137  C     C_R   0.544684 0.043448 0.652153 0.188413
C138  C     C_R   0.561610 0.022459 0.347523 0.170924
C139  C     C_R   0.955525 0.548327 0.652717 0.189332
C140  C     C_R   0.984634 0.565134 0.347351 0.171120
C141  C     C_R   0.944921 0.464684 0.152713 0.185209
C142  C     C_R   0.932764 0.490761 0.847292 0.171206
C143  C     C_R   0.554972 0.960073 0.153112 0.189477
C144  C     C_R   0.529107 0.939341 0.847160 0.173630
C145  C     C_R   0.056965 0.540365 0.152986 0.192069
C146  C     C_R   0.498752 0.998817 0.047197 -0.066706
C147  C     C_R   0.066975 0.511195 0.847302 0.170753
C148  C     C_R   0.444005 0.037603 0.153065 0.178772
C149  C     C_R   0.469159 0.060807 0.846982 0.170032
C150  C     C_3   0.866997 0.274052 0.799675 0.033910
C151  C     C_3   0.913132 0.203723 0.796702 -0.273782
C152  C     C_3   0.989960 0.212751 0.806888 -0.467853
C153  C     C_3   0.243657 0.739498 0.191315 0.027538
C154  C     C_3   0.268827 0.819648 0.187541 -0.246997
C155  C     C_3   0.319735 0.825865 0.167301 -0.466416
C156  C     C_3   0.724359 0.865172 0.800004 0.036522
C157  C     C_R   0.497594 0.000240 0.952929 -0.071653
C158  C     C_3   0.794035 0.912182 0.796722 -0.276168
C159  C     C_3   0.784456 0.988983 0.806829 -0.464414
C160  C     C_3   0.318508 0.224753 0.195442 0.030885
C161  C     C_3   0.280798 0.275603 0.178498 -0.250208
C162  C     C_3   0.337264 0.313801 0.163529 -0.492765
C163  C     C_3   0.131437 0.727707 0.799298 0.033610
C164  C     C_3   0.087138 0.799315 0.796591 -0.269544
C165  C     C_3   0.010537 0.792266 0.807050 -0.465959
C166  C     C_3   0.766607 0.340152 0.198743 0.032873
C167  C     C_3   0.729932 0.325616 0.176166 -0.231474
C168  C     C_R   0.471042 0.055584 0.558897 -0.026304
C169  C     C_3   0.699602 0.396658 0.165915 -0.473679
C170  C     C_3   0.266577 0.129201 0.796930 0.053126
C171  C     C_3   0.248588 0.112625 0.821366 -0.248667
C172  C     C_3   0.252641 0.029961 0.826256 -0.470279
C173  C     C_3   0.677899 0.767000 0.195877 0.032662
C174  C     C_3   0.713375 0.712081 0.179648 -0.252372
C175  C     C_3   0.655244 0.673308 0.165379 -0.494409
C176  C     C_3   0.371852 0.768621 0.298618 0.036774
C177  C     C_3   0.414307 0.695888 0.296049 -0.268859
C178  C     C_3   0.490817 0.700918 0.306667 -0.467738
C179  C     C_R   0.532916 0.937727 0.441249 -0.032622
C180  C     C_3   0.725838 0.164523 0.698039 0.033715
C181  C     C_3   0.756760 0.179385 0.674712 -0.231683
C182  C     C_3   0.783900 0.108379 0.663682 -0.475733
C183  C     C_3   0.255564 0.380746 0.294044 0.044546
C184  C     C_3   0.207382 0.420926 0.311115 -0.275051
C185  C     C_3   0.227425 0.502637 0.312783 -0.467759
C186  C     C_3   0.839173 0.728204 0.698659 0.037435
C187  C     C_3   0.826585 0.764993 0.676008 -0.233899
C188  C     C_3   0.899261 0.791518 0.665834 -0.481483
C189  C     C_3   0.635745 0.222069 0.300321 0.034507
C190  C     C_R   0.943102 0.491608 0.558866 -0.027330
C191  C     C_3   0.586307 0.289554 0.296203 -0.275784
C192  C     C_3   0.508817 0.277230 0.305577 -0.466402
C193  C     C_3   0.252731 0.790516 0.692371 0.028328
C194  C     C_3   0.207541 0.724548 0.683759 -0.248133
C195  C     C_3   0.150719 0.748744 0.666392 -0.485521
C196  C     C_3   0.772048 0.630350 0.299179 0.037303
C197  C     C_3   0.700117 0.586265 0.296957 -0.273417
C198  C     C_3   0.707531 0.509814 0.307477 -0.466340
C199  C     C_3   0.167616 0.262146 0.696962 0.035020
C200  C     C_3   0.198311 0.208051 0.679655 -0.249480
C201  C     C_R   0.067454 0.538760 0.440971 -0.029564
C202  C     C_3   0.136316 0.170718 0.666566 -0.493243
C203  C     C_3   0.656743 0.040426 0.611777 0.027018
C204  C     C_3   0.710669 0.089251 0.598840 -0.248857
C205  C     C_3   0.781950 0.047964 0.593422 -0.500098
C206  C     C_3   0.610960 0.118884 0.390093 0.007079
C207  C     C_3   0.647088 0.129685 0.412954 -0.244555
C208  C     C_3   0.636251 0.208228 0.421599 -0.482794
C209  C     C_3   0.962483 0.666785 0.613639 0.025277
C210  C     C_3   0.914012 0.724741 0.602293 -0.247273
C211  C     C_3   0.957210 0.795498 0.597616 -0.500335
C212  C     C_R   0.503928 0.925446 0.559127 -0.027285
C213  C     C_3   0.895625 0.625661 0.389917 0.006965
C214  C     C_3   0.888778 0.665603 0.412328 -0.247002
C215  C     C_3   0.809763 0.663176 0.421206 -0.482216
C216  C     C_3   0.328971 0.947672 0.613691 0.022656
C217  C     C_3   0.271056 0.948466 0.632387 -0.252439
C218  C     C_3   0.200047 0.986497 0.624855 -0.504450
C219  C     C_3   0.382488 0.869802 0.388375 0.006371
C220  C     C_3   0.342660 0.858139 0.410634 -0.245206
C221  C     C_3   0.351573 0.779136 0.419109 -0.481317
C222  C     C_3   0.058126 0.335742 0.615874 0.028568
C223  C     C_R   0.999997 0.500058 0.810427 0.553675
C224  C     C_R   0.452027 0.044881 0.440971 -0.033557
C225  C     C_3   0.110182 0.279353 0.605270 -0.246381
C226  C     C_3   0.071753 0.205236 0.601656 -0.500764
C227  C     C_3   0.128112 0.375822 0.385161 -0.000786
C228  C     C_3   0.150313 0.312718 0.400718 -0.251846
C229  C     C_3   0.233627 0.311472 0.404678 -0.474982
C230  C     C_3   0.165807 0.517455 0.109532 0.023716
C231  C     C_3   0.234063 0.510876 0.124494 -0.250241
C232  C     C_3   0.291430 0.459173 0.114275 -0.507203
C233  C     C_3   0.140451 0.597376 0.888538 0.007292
C234  C     C_3   0.179433 0.602092 0.911161 -0.247412
C235  C     C_R   0.074866 0.517290 0.559103 -0.026998
C236  C     C_3   0.188859 0.682029 0.918746 -0.480895
C237  C     C_3   0.422909 0.152675 0.114355 0.028819
C238  C     C_3   0.363856 0.199087 0.102715 -0.248459
C239  C     C_3   0.391891 0.276830 0.097641 -0.501763
C240  C     C_3   0.364788 0.103587 0.888719 0.006145
C241  C     C_3   0.348174 0.144371 0.910514 -0.244447
C242  C     C_3   0.269937 0.128635 0.918760 -0.485097
C243  C     C_3   0.826978 0.494287 0.115767 0.024546
C244  C     C_3   0.761771 0.460579 0.103180 -0.250321
C245  C     C_3   0.698729 0.515949 0.100714 -0.499934
C246  C     C_R   0.954350 0.466279 0.441156 -0.026763
C247  C     C_3   0.858806 0.407309 0.888906 0.007317
C248  C     C_3   0.819983 0.403908 0.911571 -0.247218
C249  C     C_3   0.810774 0.324435 0.919617 -0.481139
C250  C     C_3   0.575023 0.843426 0.114970 0.025690
C251  C     C_3   0.632470 0.797236 0.102561 -0.245745
C252  C     C_3   0.604264 0.719195 0.098036 -0.499491
C253  C     C_3   0.629013 0.895124 0.890127 0.007251
C254  C     C_3   0.641814 0.854149 0.912139 -0.244540
C255  C     C_3   0.718748 0.869218 0.921545 -0.486299
C256  C     C_3   0.844447 0.672555 0.992238 0.019908
C257  C     C_R   0.999838 0.571727 0.058848 -0.028306
C258  C     C_3   0.791110 0.706152 0.975153 -0.274342
C259  C     C_3   0.710838 0.698021 0.982571 -0.492338
C260  C     C_3   0.895403 0.305887 0.007980 0.016778
C261  C     C_3   0.876450 0.237135 0.994321 -0.256668
C262  C     C_3   0.794517 0.235052 0.988272 -0.455697
C263  C     C_3   0.418542 0.791906 0.994996 0.014659
C264  C     C_3   0.437333 0.734505 0.977056 -0.279554
C265  C     C_3   0.486837 0.673708 0.986416 -0.488075
C266  C     C_3   0.720600 0.996934 0.006345 0.019635
C267  C     C_3   0.787692 0.012535 0.991601 -0.249940
C268  C     C_R   0.023137 0.440585 0.941176 -0.030966
C269  C     C_3   0.823122 0.941016 0.983390 -0.482907
C270  C     C_3   0.151757 0.335342 0.993133 0.019837
C271  C     C_3   0.205789 0.300356 0.976526 -0.273140
C272  C     C_3   0.285773 0.309688 0.984106 -0.491978
C273  C     C_3   0.100348 0.702222 0.007525 0.016684
C274  C     C_3   0.118743 0.769330 0.993075 -0.257172
C275  C     C_3   0.200606 0.771075 0.986951 -0.455662
C276  C     C_3   0.577683 0.207512 0.995382 0.015734
C277  C     C_3   0.558598 0.265717 0.977705 -0.279632
C278  C     C_3   0.509507 0.326244 0.987405 -0.488411
C279  C     C_R   0.437527 0.971258 0.059041 -0.025545
C280  C     C_3   0.276264 0.003428 0.006903 0.019212
C281  C     C_3   0.209600 0.989227 0.991849 -0.249930
C282  C     C_3   0.174564 0.061491 0.984073 -0.483369
C283  C     C_3   0.295895 0.099828 0.494505 0.019386
C284  C     C_3   0.237729 0.086474 0.476312 -0.280527
C285  C     C_3   0.170454 0.046088 0.485659 -0.487519
C286  C     C_3   0.443977 0.771433 0.507381 0.018059
C287  C     C_3   0.444685 0.696299 0.495751 -0.261428
C288  C     C_3   0.367065 0.673022 0.488601 -0.458148
C289  C     C_3   0.876386 0.322281 0.493397 0.018136
C290  C     C_R   0.544314 0.048508 0.941112 -0.032449
C291  C     C_3   0.818261 0.275098 0.505203 -0.244544
C292  C     C_3   0.850419 0.201545 0.512972 -0.495835
C293  C     C_3   0.227202 0.450930 0.508006 0.019326
C294  C     C_3   0.300167 0.449233 0.495172 -0.258723
C295  C     C_3   0.321524 0.370511 0.488688 -0.469811
C296  C     C_3   0.678628 0.870588 0.495958 0.017630
C297  C     C_3   0.741696 0.872143 0.478888 -0.279612
C298  C     C_3   0.811874 0.904946 0.488963 -0.486768
C299  C     C_3   0.525920 0.210671 0.507284 0.017463
C300  C     C_3   0.522222 0.282910 0.494143 -0.252532
C301  C     C_R   0.997141 0.437513 0.058954 -0.027531
C302  C     C_3   0.599259 0.310054 0.487750 -0.480564
C303  C     C_3   0.140749 0.688937 0.493626 0.016580
C304  C     C_3   0.148462 0.749368 0.475851 -0.277630
C305  C     C_3   0.120216 0.823555 0.484411 -0.487640
C306  C     C_3   0.795432 0.566093 0.507287 0.017270
C307  C     C_3   0.720162 0.572084 0.495851 -0.255674
C308  C     C_3   0.703172 0.651636 0.489106 -0.461806
C309  C     C_R   0.974858 0.565892 0.940950 -0.030972
C310  C     C_R   0.560221 0.026027 0.058996 -0.026977
C311  C     C_R   0.000164 0.500599 0.189679 0.504152
C312  C     C_R   0.450660 0.952193 0.941095 -0.033509
C313  C     C_R   0.457183 0.120666 0.546977 -0.109925
C314  C     C_R   0.572316 0.884222 0.453189 -0.111757
C315  C     C_R   0.876826 0.484233 0.547023 -0.107749
C316  C     C_R   0.122722 0.576518 0.452664 -0.112093
C317  C     C_R   0.516306 0.859616 0.547419 -0.107769
C318  C     C_R   0.409162 0.096405 0.452597 -0.112272
C319  C     C_R   0.141166 0.526855 0.547411 -0.108741
C320  C     C_R   0.898356 0.430231 0.452994 -0.111866
C321  C     C_R   0.005275 0.638169 0.046990 -0.107566
C322  C     C_R   0.000217 0.500002 0.310408 0.551600
C323  C     C_R   0.047417 0.378661 0.953038 -0.111666
C324  C     C_R   0.374982 0.947556 0.047242 -0.108603
C325  C     C_R   0.589340 0.097780 0.952918 -0.114156
C326  C     C_R   0.991118 0.370830 0.047256 -0.107489
C327  C     C_R   0.950147 0.628089 0.952598 -0.112264
C328  C     C_R   0.622423 0.050279 0.047143 -0.108330
C329  C     C_R   0.405763 0.902774 0.952883 -0.114888
C330  C     C_R   0.498549 0.996419 0.665012 -0.074195
C331  C     C_R   0.499404 0.997494 0.335287 0.020401
C332  C     C_R   0.002531 0.500555 0.665014 -0.076900
C333  C     C_R   0.000301 0.500074 0.689723 0.497159
C334  C     C_R   0.002676 0.500095 0.335315 0.014497
C335  C     C_R   0.000763 0.502012 0.164905 -0.077415
C336  C     C_R   0.999935 0.500590 0.835372 0.012845
C337  C     C_R   0.499831 0.999443 0.165080 -0.077609
C338  C     C_R   0.499426 0.000046 0.835235 0.020066
C339  C     C_R   0.981496 0.569761 0.988165 0.010074
C340  C     C_R   0.001857 0.436265 0.011761 0.007676
C341  C     C_R   0.446157 0.955914 0.988341 0.009429
C342  C     C_R   0.557574 0.032592 0.011758 0.003971
C343  C     C_R   0.014828 0.437835 0.988355 0.009682
C344  C     C_R   0.499931 0.999602 0.310397 0.561154
C345  C     C_R   0.994007 0.571943 0.011608 0.008313
C346  C     C_R   0.549839 0.043735 0.988343 0.008571
C347  C     C_R   0.439059 0.966322 0.011793 0.004292
C348  C     C_R   0.453640 0.047932 0.488199 0.007703
C349  C     C_R   0.509659 0.925477 0.511857 0.004075
C350  C     C_R   0.948510 0.475728 0.488301 0.008086
C351  C     C_R   0.075082 0.524071 0.511794 0.006999
C352  C     C_R   0.522687 0.930873 0.488455 0.007840
C353  C     C_R   0.464636 0.053601 0.511650 0.004226
C354  C     C_R   0.070889 0.535448 0.488281 0.008397
C355  C     C_R   0.499820 0.999452 0.689717 0.498101
C356  C     C_R   0.943750 0.488577 0.511670 0.005335
C357  C     C_R   0.998347 0.503658 0.976514 -0.076939
C358  C     C_R   0.997966 0.504250 0.023438 -0.075880
C359  C     C_R   0.497854 0.999976 0.976575 -0.075726
C360  C     C_R   0.498478 0.999223 0.023546 -0.076233
C361  C     C_R   0.489250 0.989823 0.476568 -0.075185
C362  C     C_R   0.487183 0.989772 0.523525 -0.075415
C363  C     C_R   0.010012 0.504843 0.476540 -0.075649
C364  C     C_R   0.009335 0.506012 0.523492 -0.075468
C365  C     C_R   0.950916 0.629817 0.975907 0.282720
C366  C     C_R   0.492375 0.993140 0.617872 0.129103
C367  C     C_R   0.989720 0.369933 0.023941 0.272216
C368  C     C_R   0.405640 0.901741 0.976203 0.285133
C369  C     C_R   0.622853 0.050753 0.023800 0.267764
C370  C     C_R   0.045801 0.377475 0.976338 0.282890
C371  C     C_R   0.006102 0.638572 0.023655 0.272662
C372  C     C_R   0.590000 0.098273 0.976240 0.284383
C373  C     C_R   0.374004 0.947971 0.023899 0.268212
C374  C     C_R   0.406881 0.096387 0.475903 0.287087
C375  C     C_R   0.515925 0.858372 0.524069 0.267950
C376  C     C_R   0.896013 0.432676 0.476275 0.270819
H1    H     H_    0.647876 0.289912 0.774130 0.156175
H2    H     H_    0.858290 0.206364 0.727883 0.119520
H3    H     H_    0.752349 0.742040 0.168509 0.204722
H4    H     H_    0.745226 0.669950 0.189089 0.172605
H5    H     H_    0.616998 0.641063 0.176135 0.141973
H6    H     H_    0.682779 0.634907 0.153550 0.143753
H7    H     H_    0.623115 0.714450 0.155636 0.154588
H8    H     H_    0.377692 0.787688 0.316174 0.176620
H9    H     H_    0.397362 0.812425 0.288348 0.136614
H10   H     H_    0.382998 0.650302 0.304135 0.213858
H11   H     H_    0.421392 0.683252 0.278030 0.199405
H12   H     H_    0.522829 0.746947 0.299104 0.195713
H13   H     H_    0.212734 0.151925 0.276317 0.154973
H14   H     H_    0.520983 0.648380 0.303844 0.176294
H15   H     H_    0.486022 0.710200 0.324952 0.144129
H16   H     H_    0.676419 0.128736 0.696550 0.193419
H17   H     H_    0.767616 0.132700 0.707773 0.104475
H18   H     H_    0.713062 0.204646 0.664128 0.223765
H19   H     H_    0.803633 0.218896 0.675956 0.172710
H20   H     H_    0.830704 0.084696 0.673318 0.132243
H21   H     H_    0.803156 0.120563 0.646462 0.144133
H22   H     H_    0.738632 0.067078 0.662822 0.189955
H23   H     H_    0.251919 0.411255 0.277887 0.134159
H24   H     H_    0.794897 0.859157 0.728426 0.119246
H25   H     H_    0.314010 0.381850 0.299765 0.180811
H26   H     H_    0.148593 0.416104 0.306013 0.222308
H27   H     H_    0.213990 0.394634 0.327779 0.177289
H28   H     H_    0.286232 0.509227 0.317726 0.159662
H29   H     H_    0.192035 0.529515 0.325572 0.163406
H30   H     H_    0.218018 0.530537 0.296497 0.189150
H31   H     H_    0.873368 0.678141 0.696268 0.199690
H32   H     H_    0.872132 0.766354 0.709384 0.104642
H33   H     H_    0.799989 0.724956 0.664442 0.222645
H34   H     H_    0.789049 0.813077 0.678123 0.169376
H35   H     H_    0.853359 0.208903 0.273350 0.156606
H36   H     H_    0.924911 0.834346 0.676632 0.131978
H37   H     H_    0.888641 0.815945 0.649132 0.142526
H38   H     H_    0.938297 0.744644 0.663964 0.184070
H39   H     H_    0.632815 0.208216 0.318383 0.175504
H40   H     H_    0.613885 0.172999 0.291627 0.150854
H41   H     H_    0.611071 0.338898 0.304322 0.209141
H42   H     H_    0.581151 0.299822 0.277991 0.192557
H43   H     H_    0.482405 0.228925 0.297350 0.175007
H44   H     H_    0.474400 0.326909 0.302421 0.191868
H45   H     H_    0.511247 0.267566 0.323889 0.144947
H46   H     H_    0.142067 0.794128 0.727918 0.112346
H47   H     H_    0.284260 0.813692 0.678082 0.199497
H48   H     H_    0.216706 0.836252 0.698365 0.107763
H49   H     H_    0.245491 0.683447 0.676118 0.212114
H50   H     H_    0.178116 0.697161 0.697766 0.190323
H51   H     H_    0.111243 0.788726 0.673851 0.137736
H52   H     H_    0.119227 0.699878 0.660432 0.162198
H53   H     H_    0.178673 0.774813 0.651872 0.153370
H54   H     H_    0.791615 0.625762 0.316723 0.174795
H55   H     H_    0.816100 0.605198 0.288962 0.134639
H56   H     H_    0.654508 0.616453 0.305359 0.207644
H57   H     H_    0.788949 0.850801 0.274957 0.156652
H58   H     H_    0.686415 0.579104 0.279011 0.197471
H59   H     H_    0.753796 0.478995 0.299615 0.194217
H60   H     H_    0.655517 0.478338 0.304954 0.180448
H61   H     H_    0.717944 0.514691 0.325705 0.146661
H62   H     H_    0.134789 0.304602 0.688172 0.208136
H63   H     H_    0.127803 0.233838 0.708338 0.108423
H64   H     H_    0.234603 0.238385 0.667803 0.209442
H65   H     H_    0.231996 0.165109 0.688141 0.170577
H66   H     H_    0.100631 0.138052 0.677989 0.141448
H67   H     H_    0.160370 0.132959 0.653895 0.148775
H68   H     H_    0.205284 0.141121 0.728383 0.118499
H69   H     H_    0.102174 0.212761 0.657850 0.160974
H70   H     H_    0.567141 0.112552 0.675956 0.333674
H71   H     H_    0.662228 0.062381 0.346555 0.362947
H72   H     H_    0.885385 0.566081 0.676593 0.335499
H73   H     H_    0.955371 0.669317 0.346093 0.363402
H74   H     H_    0.430248 0.883558 0.679378 0.349061
H75   H     H_    0.336447 0.929115 0.344617 0.363090
H76   H     H_    0.117089 0.434388 0.678568 0.338836
H77   H     H_    0.048539 0.330077 0.345478 0.366207
H78   H     H_    0.089038 0.604325 0.177080 0.349539
H79   H     H_    0.448927 0.172511 0.555664 0.177644
H80   H     H_    0.174556 0.523935 0.845964 0.363079
H81   H     H_    0.378313 0.051336 0.178543 0.330676
H82   H     H_    0.424083 0.159015 0.845256 0.362345
H83   H     H_    0.919120 0.393586 0.175290 0.334275
H84   H     H_    0.825187 0.477958 0.845912 0.363242
H85   H     H_    0.620196 0.944708 0.178681 0.341058
H86   H     H_    0.576716 0.842253 0.845683 0.362759
H87   H     H_    0.643189 0.991267 0.601348 0.140140
H88   H     H_    0.683974 0.021808 0.627504 0.139117
H89   H     H_    0.684325 0.107622 0.583004 0.175583
H90   H     H_    0.607036 0.844772 0.444531 0.166361
H91   H     H_    0.724150 0.138972 0.608953 0.187521
H92   H     H_    0.809873 0.030158 0.609051 0.143894
H93   H     H_    0.819855 0.084931 0.584044 0.146291
H94   H     H_    0.769892 0.998705 0.582969 0.149013
H95   H     H_    0.551897 0.136220 0.391342 0.156355
H96   H     H_    0.638527 0.155424 0.377702 0.138543
H97   H     H_    0.622410 0.090328 0.425110 0.177358
H98   H     H_    0.707209 0.117850 0.411683 0.182034
H99   H     H_    0.660364 0.248772 0.409726 0.161484
H100  H     H_    0.664300 0.214337 0.437994 0.143831
H101  H     H_    0.824628 0.479484 0.555774 0.178615
H102  H     H_    0.576475 0.220089 0.423849 0.157245
H103  H     H_    0.009472 0.653366 0.602330 0.139545
H104  H     H_    0.984586 0.690418 0.629490 0.130001
H105  H     H_    0.892600 0.702206 0.586271 0.175606
H106  H     H_    0.866156 0.737842 0.613236 0.187007
H107  H     H_    0.978402 0.819489 0.613454 0.143513
H108  H     H_    0.920384 0.836527 0.589484 0.145285
H109  H     H_    0.004401 0.783907 0.586281 0.150039
H110  H     H_    0.873302 0.568553 0.391954 0.155936
H111  H     H_    0.861234 0.654607 0.377256 0.142550
H112  H     H_    0.355741 0.707792 0.226844 0.115016
H113  H     H_    0.164966 0.607128 0.443773 0.165447
H114  H     H_    0.926026 0.639054 0.424728 0.176007
H115  H     H_    0.906091 0.724145 0.410304 0.181663
H116  H     H_    0.771308 0.689428 0.409116 0.164720
H117  H     H_    0.806729 0.693682 0.437271 0.140190
H118  H     H_    0.792427 0.605105 0.424168 0.157614
H119  H     H_    0.304444 0.920840 0.598735 0.150079
H120  H     H_    0.342895 0.005349 0.608622 0.133640
H121  H     H_    0.258153 0.890825 0.637470 0.187658
H122  H     H_    0.293301 0.978440 0.647119 0.190057
H123  H     H_    0.211547 0.044574 0.619952 0.152563
H124  H     H_    0.524043 0.808040 0.556300 0.179780
H125  H     H_    0.159578 0.986623 0.638798 0.142998
H126  H     H_    0.175371 0.956635 0.610459 0.146564
H127  H     H_    0.441229 0.852259 0.390416 0.156372
H128  H     H_    0.356843 0.833905 0.375447 0.139096
H129  H     H_    0.365582 0.896756 0.423308 0.176236
H130  H     H_    0.282886 0.870448 0.408533 0.182391
H131  H     H_    0.328853 0.739331 0.406766 0.164586
H132  H     H_    0.321146 0.772555 0.435097 0.140685
H133  H     H_    0.410867 0.766649 0.422099 0.157348
H134  H     H_    0.009615 0.343800 0.604656 0.136047
H135  H     H_    0.375080 0.135771 0.443666 0.166067
H136  H     H_    0.038902 0.313436 0.632251 0.144740
H137  H     H_    0.129971 0.300727 0.588916 0.178578
H138  H     H_    0.158842 0.271062 0.616335 0.193282
H139  H     H_    0.052216 0.182356 0.617830 0.143922
H140  H     H_    0.111220 0.165497 0.594098 0.147987
H141  H     H_    0.023893 0.211885 0.590207 0.148603
H142  H     H_    0.147172 0.428734 0.392732 0.164340
H143  H     H_    0.156051 0.368170 0.368743 0.133700
H144  H     H_    0.121664 0.319410 0.417025 0.176639
H145  H     H_    0.132955 0.259218 0.393259 0.187094
H146  H     H_    0.193121 0.531632 0.556297 0.178708
H147  H     H_    0.263444 0.303915 0.388621 0.165315
H148  H     H_    0.247839 0.264898 0.415964 0.160576
H149  H     H_    0.251900 0.363863 0.412616 0.149052
H150  H     H_    0.183390 0.536951 0.092752 0.147876
H151  H     H_    0.140741 0.461658 0.107040 0.130607
H152  H     H_    0.259189 0.566386 0.126841 0.189734
H153  H     H_    0.217467 0.489173 0.141123 0.192789
H154  H     H_    0.268007 0.402802 0.112341 0.152638
H155  H     H_    0.340538 0.456121 0.125360 0.144774
H156  H     H_    0.309343 0.480011 0.097682 0.147219
H157  H     H_    0.856458 0.398573 0.444289 0.170244
H158  H     H_    0.087587 0.628927 0.889664 0.158742
H159  H     H_    0.175480 0.624197 0.875610 0.143945
H160  H     H_    0.146494 0.571787 0.923888 0.177474
H161  H     H_    0.234673 0.575573 0.909940 0.180065
H162  H     H_    0.221680 0.713611 0.906304 0.166969
H163  H     H_    0.218344 0.683326 0.935010 0.143039
H164  H     H_    0.134021 0.708670 0.920899 0.159247
H165  H     H_    0.472591 0.149981 0.103386 0.139122
H166  H     H_    0.438006 0.180096 0.130402 0.141962
H167  H     H_    0.347602 0.171832 0.086811 0.178293
H168  H     H_    0.011947 0.690145 0.055736 0.179455
H169  H     H_    0.314244 0.202928 0.113607 0.191604
H170  H     H_    0.406777 0.305909 0.113348 0.145470
H171  H     H_    0.347908 0.308741 0.089037 0.147831
H172  H     H_    0.441072 0.274362 0.086563 0.149904
H173  H     H_    0.353632 0.043577 0.891405 0.154221
H174  H     H_    0.326879 0.123708 0.875423 0.130335
H175  H     H_    0.388203 0.126638 0.923551 0.176038
H176  H     H_    0.354752 0.204795 0.907866 0.182825
H177  H     H_    0.228768 0.146012 0.906038 0.160002
H178  H     H_    0.259600 0.159929 0.934408 0.142317
H179  H     H_    0.069125 0.330938 0.944318 0.164731
H180  H     H_    0.263065 0.068766 0.922292 0.154993
H181  H     H_    0.847629 0.542804 0.106123 0.139673
H182  H     H_    0.807443 0.513103 0.132494 0.141452
H183  H     H_    0.780268 0.442740 0.086313 0.174616
H184  H     H_    0.741406 0.411243 0.112362 0.183213
H185  H     H_    0.678624 0.533726 0.117405 0.143219
H186  H     H_    0.652210 0.489856 0.091540 0.146118
H187  H     H_    0.717644 0.565085 0.091182 0.148398
H188  H     H_    0.911614 0.375712 0.890156 0.158367
H189  H     H_    0.823622 0.379844 0.876139 0.143711
H190  H     H_    0.325394 0.930857 0.056041 0.177397
H191  H     H_    0.852934 0.435050 0.924108 0.177641
H192  H     H_    0.764684 0.430243 0.910225 0.179854
H193  H     H_    0.777927 0.292029 0.907377 0.166103
H194  H     H_    0.781416 0.324087 0.935903 0.142699
H195  H     H_    0.865682 0.298042 0.921895 0.159467
H196  H     H_    0.523571 0.845424 0.104740 0.136797
H197  H     H_    0.562853 0.816325 0.131292 0.141192
H198  H     H_    0.645908 0.824309 0.086389 0.177614
H199  H     H_    0.683819 0.793987 0.112716 0.193719
H200  H     H_    0.592187 0.690278 0.113989 0.144508
H201  H     H_    0.622687 0.138153 0.944136 0.166158
H202  H     H_    0.647071 0.687516 0.088852 0.146547
H203  H     H_    0.553334 0.721069 0.087687 0.149827
H204  H     H_    0.640442 0.955000 0.892940 0.153334
H205  H     H_    0.668715 0.874557 0.877392 0.136668
H206  H     H_    0.599915 0.872130 0.924582 0.176052
H207  H     H_    0.635181 0.793786 0.909383 0.182915
H208  H     H_    0.761790 0.851662 0.909435 0.162173
H209  H     H_    0.726322 0.837664 0.937292 0.140224
H210  H     H_    0.725478 0.928994 0.925238 0.155017
H211  H     H_    0.833623 0.697948 0.008814 0.162206
H212  H     H_    0.984667 0.319032 0.056118 0.179975
H213  H     H_    0.833372 0.612135 0.994160 0.106483
H214  H     H_    0.803879 0.765779 0.972977 0.172394
H215  H     H_    0.798197 0.678197 0.958777 0.162859
H216  H     H_    0.696439 0.638738 0.984594 0.148118
H217  H     H_    0.673837 0.722547 0.969759 0.147930
H218  H     H_    0.701726 0.727253 0.998651 0.140951
H219  H     H_    0.881443 0.355480 0.997756 0.121641
H220  H     H_    0.861407 0.306060 0.023504 0.127529
H221  H     H_    0.909750 0.237013 0.978712 0.182017
H222  H     H_    0.890506 0.186836 0.004091 0.179429
H223  H     H_    0.709114 0.647092 0.773633 0.157020
H224  H     H_    0.928775 0.675611 0.943696 0.164823
H225  H     H_    0.760270 0.232017 0.003644 0.191961
H226  H     H_    0.782984 0.185619 0.977874 0.181389
H227  H     H_    0.778968 0.285065 0.978605 0.131612
H228  H     H_    0.391276 0.763262 0.009192 0.154666
H229  H     H_    0.470159 0.816888 0.001850 0.117978
H230  H     H_    0.385464 0.709454 0.970588 0.169045
H231  H     H_    0.466517 0.761707 0.962950 0.162211
H232  H     H_    0.539309 0.697621 0.992794 0.145400
H233  H     H_    0.500076 0.633456 0.973009 0.152229
H234  H     H_    0.458285 0.644080 0.000188 0.142799
H235  H     H_    0.672146 0.066880 0.055895 0.178346
H236  H     H_    0.680746 0.963084 0.996471 0.123819
H237  H     H_    0.738631 0.964831 0.021261 0.130864
H238  H     H_    0.770150 0.045750 0.976908 0.178250
H239  H     H_    0.829117 0.044904 0.001213 0.171779
H240  H     H_    0.841523 0.906837 0.997766 0.165977
H241  H     H_    0.871909 0.954187 0.972870 0.153722
H242  H     H_    0.783079 0.908955 0.973191 0.139017
H243  H     H_    0.161744 0.311180 0.009927 0.161803
H244  H     H_    0.162937 0.395866 0.994675 0.105807
H245  H     H_    0.193406 0.240458 0.974862 0.172474
H246  H     H_    0.372234 0.862589 0.944084 0.165715
H247  H     H_    0.199062 0.326640 0.959881 0.162688
H248  H     H_    0.299809 0.369228 0.985601 0.147879
H249  H     H_    0.323303 0.284051 0.971647 0.148176
H250  H     H_    0.294515 0.282194 0.000487 0.140987
H251  H     H_    0.114797 0.651530 0.997873 0.120552
H252  H     H_    0.134319 0.704228 0.023042 0.128832
H253  H     H_    0.085312 0.767304 0.977498 0.182852
H254  H     H_    0.104470 0.820717 0.002271 0.178107
H255  H     H_    0.234913 0.776335 0.002260 0.199584
H256  H     H_    0.211789 0.819119 0.975939 0.176803
H257  H     H_    0.698683 0.411764 0.746689 0.334675
H258  H     H_    0.216382 0.719901 0.977900 0.132236
H259  H     H_    0.605314 0.235480 0.009637 0.154846
H260  H     H_    0.526169 0.182324 0.002234 0.117598
H261  H     H_    0.610370 0.290910 0.971220 0.169335
H262  H     H_    0.529003 0.239170 0.963561 0.162490
H263  H     H_    0.457194 0.302189 0.993846 0.145185
H264  H     H_    0.495931 0.367036 0.974173 0.152165
H265  H     H_    0.538548 0.355284 0.001198 0.142716
H266  H     H_    0.316434 0.038047 0.997394 0.123402
H267  H     H_    0.257870 0.034320 0.022003 0.131283
H268  H     H_    0.302375 0.582620 0.252399 0.327549
H269  H     H_    0.227542 0.957236 0.976960 0.177861
H270  H     H_    0.167815 0.956171 0.001092 0.171294
H271  H     H_    0.155744 0.094470 0.998649 0.164820
H272  H     H_    0.126097 0.049296 0.973308 0.153228
H273  H     H_    0.214971 0.094357 0.974243 0.139076
H274  H     H_    0.270037 0.132146 0.508203 0.158708
H275  H     H_    0.313444 0.046307 0.502052 0.115715
H276  H     H_    0.219934 0.140310 0.469185 0.170818
H277  H     H_    0.261899 0.052572 0.462683 0.161610
H278  H     H_    0.187027 0.991689 0.492635 0.143354
H279  H     H_    0.588345 0.699123 0.745877 0.335278
H280  H     H_    0.129654 0.036725 0.472093 0.151946
H281  H     H_    0.143873 0.079526 0.498977 0.143620
H282  H     H_    0.420776 0.812982 0.495560 0.126319
H283  H     H_    0.407775 0.767825 0.522416 0.126885
H284  H     H_    0.480816 0.699205 0.480753 0.180201
H285  H     H_    0.467590 0.654029 0.507306 0.175706
H286  H     H_    0.330108 0.668851 0.503367 0.191827
H287  H     H_    0.369445 0.618200 0.480317 0.158244
H288  H     H_    0.343798 0.713687 0.476620 0.141643
H289  H     H_    0.923087 0.332150 0.505176 0.128467
H290  H     H_    0.416157 0.304464 0.251936 0.324922
H291  H     H_    0.896997 0.291584 0.478502 0.121965
H292  H     H_    0.796584 0.305632 0.519923 0.189713
H293  H     H_    0.771572 0.264274 0.493581 0.163423
H294  H     H_    0.871342 0.169523 0.498464 0.145495
H295  H     H_    0.806756 0.168711 0.521426 0.142733
H296  H     H_    0.896309 0.211028 0.524967 0.146706
H297  H     H_    0.183336 0.426744 0.497148 0.126194
H298  H     H_    0.232946 0.416777 0.523405 0.129101
H299  H     H_    0.294809 0.483179 0.479775 0.181324
H300  H     H_    0.344684 0.473413 0.505685 0.173227
H301  H     H_    0.301245 0.587857 0.747236 0.337973
H302  H     H_    0.329127 0.335973 0.503858 0.183235
H303  H     H_    0.374264 0.371428 0.479217 0.145740
H304  H     H_    0.278112 0.345476 0.477960 0.153580
H305  H     H_    0.697425 0.839619 0.510941 0.157580
H306  H     H_    0.665807 0.927758 0.501767 0.113970
H307  H     H_    0.753389 0.815038 0.473071 0.167281
H308  H     H_    0.725163 0.905936 0.464225 0.163735
H309  H     H_    0.801687 0.962490 0.494625 0.145664
H310  H     H_    0.856314 0.905648 0.476176 0.151004
H311  H     H_    0.830695 0.871128 0.503367 0.140751
H312  H     H_    0.697548 0.417547 0.256007 0.318661
H313  H     H_    0.553718 0.168412 0.496653 0.124883
H314  H     H_    0.559237 0.219796 0.522707 0.127586
H315  H     H_    0.489213 0.274203 0.478695 0.180519
H316  H     H_    0.494410 0.325812 0.504423 0.173347
H317  H     H_    0.632781 0.320595 0.502972 0.162784
H318  H     H_    0.594646 0.362329 0.478146 0.155244
H319  H     H_    0.627714 0.268382 0.477200 0.140227
H320  H     H_    0.170112 0.707111 0.508975 0.158291
H321  H     H_    0.081507 0.681879 0.498401 0.112245
H322  H     H_    0.207521 0.755175 0.471061 0.165050
H323  H     H_    0.412116 0.302044 0.744561 0.335087
H324  H     H_    0.116414 0.733706 0.460744 0.163434
H325  H     H_    0.060895 0.819343 0.489017 0.145959
H326  H     H_    0.126270 0.865951 0.471125 0.151422
H327  H     H_    0.152590 0.841423 0.499227 0.139443
H328  H     H_    0.838519 0.586186 0.495445 0.126633
H329  H     H_    0.795267 0.601848 0.522458 0.122942
H330  H     H_    0.719686 0.536619 0.480688 0.182719
H331  H     H_    0.676424 0.552141 0.507416 0.177714
H332  H     H_    0.702452 0.688012 0.504048 0.176078
H333  H     H_    0.648096 0.654174 0.480954 0.174096
H334  H     H_    0.288995 0.352582 0.224969 0.120711
H335  H     H_    0.582604 0.697066 0.253434 0.321442
H336  H     H_    0.745364 0.672099 0.477136 0.134175
H337  H     H_    0.198245 0.912665 0.248856 0.343046
H338  H     H_    0.802504 0.082602 0.754350 0.319788
H339  H     H_    0.086801 0.195588 0.248579 0.335465
H340  H     H_    0.917492 0.802292 0.755152 0.319003
H341  H     H_    0.800514 0.089051 0.245391 0.335630
H342  H     H_    0.197365 0.917358 0.753929 0.323724
H343  H     H_    0.912112 0.801970 0.247682 0.336292
H344  H     H_    0.083874 0.197157 0.756449 0.319119
H345  H     H_    0.870718 0.291286 0.817456 0.168638
H346  H     H_    0.351608 0.710278 0.774571 0.155594
H347  H     H_    0.891101 0.320200 0.790086 0.136567
H348  H     H_    0.884796 0.156501 0.804908 0.209129
H349  H     H_    0.919781 0.191654 0.778634 0.193608
H350  H     H_    0.019378 0.259787 0.798931 0.185311
H351  H     H_    0.022498 0.161554 0.804159 0.191894
H352  H     H_    0.985804 0.222771 0.825152 0.146708
H353  H     H_    0.215442 0.720225 0.175893 0.189423
H354  H     H_    0.291489 0.701757 0.193652 0.111041
H355  H     H_    0.219633 0.855340 0.184918 0.224620
H356  H     H_    0.299254 0.840190 0.202379 0.194642
H357  H     H_    0.639236 0.295465 0.229169 0.119798
H358  H     H_    0.369861 0.791399 0.169764 0.142818
H359  H     H_    0.337203 0.884258 0.165106 0.180748
H360  H     H_    0.290528 0.807622 0.151938 0.172959
H361  H     H_    0.708356 0.868334 0.817895 0.179717
H362  H     H_    0.677285 0.888884 0.790747 0.147189
H363  H     H_    0.841889 0.884593 0.804817 0.210061
H364  H     H_    0.805395 0.918796 0.778609 0.193792
H365  H     H_    0.737093 0.017874 0.798878 0.187551
H366  H     H_    0.835387 0.021884 0.803995 0.183640
H367  H     H_    0.774694 0.984966 0.825109 0.145010
H368  H     H_    0.292183 0.353666 0.773354 0.156262
H369  H     H_    0.348602 0.181347 0.186190 0.206854
H370  H     H_    0.361652 0.255081 0.205109 0.112411
H371  H     H_    0.242619 0.242510 0.167930 0.205743
H372  H     H_    0.247765 0.318175 0.187363 0.174041
H373  H     H_    0.374394 0.349409 0.173655 0.144075
H374  H     H_    0.308019 0.348795 0.151156 0.151513
H375  H     H_    0.370768 0.272211 0.154425 0.158800
H376  H     H_    0.126896 0.709470 0.816971 0.168348
H377  H     H_    0.106406 0.682784 0.789388 0.135485
H378  H     H_    0.117071 0.845703 0.804730 0.215649
H379  H     H_    0.706635 0.643126 0.227361 0.114607
H380  H     H_    0.080081 0.811745 0.778555 0.195267
H381  H     H_    0.979797 0.745637 0.799339 0.192720
H382  H     H_    0.979087 0.844094 0.804266 0.180928
H383  H     H_    0.015183 0.782718 0.825327 0.147516
H384  H     H_    0.814958 0.376609 0.196306 0.198215
H385  H     H_    0.727411 0.371622 0.209495 0.103508
H386  H     H_    0.770929 0.300821 0.164553 0.221110
H387  H     H_    0.683743 0.285803 0.178438 0.174029
H388  H     H_    0.656638 0.420985 0.176932 0.131977
H389  H     H_    0.674226 0.384250 0.149451 0.144390
H390  H     H_    0.149997 0.787755 0.275562 0.156750
H391  H     H_    0.744610 0.437539 0.163462 0.196462
H392  H     H_    0.320647 0.103591 0.792848 0.160115
H393  H     H_    0.222841 0.103679 0.786312 0.158476
H394  H     H_    0.288369 0.142003 0.832367 0.197395
H395  H     H_    0.192097 0.133033 0.825244 0.174918
H396  H     H_    0.212696 0.999328 0.815625 0.172152
H397  H     H_    0.238831 0.019887 0.844072 0.144776
H398  H     H_    0.309348 0.008949 0.823054 0.172764
H399  H     H_    0.648792 0.809750 0.185999 0.204046
H400  H     H_    0.634365 0.739661 0.206177 0.110493
N1    N     N_R   0.489436 0.991711 0.593772 -0.377301
N2    N     N_R   0.496108 0.993176 0.406443 -0.351149
N3    N     N_R   0.008578 0.502553 0.593741 -0.375912
N4    N     N_R   0.011285 0.500759 0.406405 -0.349753
N5    N     N_R   0.999452 0.504878 0.093633 -0.378445
N6    N     N_R   0.999548 0.502770 0.906449 -0.348123
N7    N     N_R   0.499199 0.998257 0.093786 -0.373000
N8    N     N_R   0.497530 0.000349 0.906406 -0.355364
O1    O     O_3   0.500000 0.000000 0.750000 -0.458496
O2    O     O_R   0.500060 0.061320 0.200430 -0.526790
O3    O     O_3   0.226570 0.298283 0.707999 -0.508859
O4    O     O_3   0.589176 0.096873 0.661598 -0.677044
O5    O     O_3   0.622316 0.049086 0.335993 -0.678118
O6    O     O_3   0.901455 0.590737 0.662658 -0.671405
O7    O     O_3   0.963197 0.627580 0.335692 -0.669044
O8    O     O_3   0.406303 0.896386 0.665034 -0.664969
O9    O     O_3   0.376647 0.945150 0.334519 -0.673420
O10   O     O_3   0.105411 0.412037 0.663901 -0.669846
O11   O     O_3   0.039891 0.371872 0.335151 -0.672410
O12   O     O_3   0.110578 0.582224 0.163435 -0.655922
O13   O     O_R   0.061320 0.499940 0.799570 -0.489629
O14   O     O_3   0.132222 0.520348 0.835558 -0.661863
O15   O     O_3   0.384831 0.071661 0.163330 -0.674403
O16   O     O_3   0.440526 0.119515 0.834976 -0.673556
O17   O     O_3   0.893950 0.419146 0.162795 -0.680660
O18   O     O_3   0.867656 0.480679 0.835538 -0.662084
O19   O     O_3   0.613594 0.924996 0.163405 -0.664602
O20   O     O_3   0.558968 0.880916 0.835304 -0.681091
O21   O     O_3   0.592407 0.081556 0.616530 -0.485747
O22   O     O_3   0.620450 0.044450 0.383443 -0.546304
O23   O     O_3   0.919527 0.603213 0.617901 -0.483193
O24   O     O_R   0.938680 0.500060 0.200430 -0.530235
O25   O     O_3   0.970435 0.627659 0.383040 -0.548553
O26   O     O_3   0.391356 0.905400 0.620079 -0.484697
O27   O     O_3   0.374265 0.944548 0.381893 -0.546879
O28   O     O_3   0.096424 0.403043 0.618715 -0.481782
O29   O     O_3   0.050582 0.374859 0.382412 -0.545531
O30   O     O_3   0.116678 0.570836 0.118388 -0.486985
O31   O     O_3   0.130805 0.522045 0.882899 -0.549902
O32   O     O_3   0.394499 0.081168 0.118227 -0.485102
O33   O     O_3   0.438560 0.118889 0.882374 -0.543834
O34   O     O_3   0.882911 0.440488 0.118025 -0.486873
O35   O     O_R   0.000060 0.561320 0.299570 -0.492007
O36   O     O_3   0.868536 0.482304 0.882874 -0.549631
O37   O     O_3   0.603514 0.915199 0.118288 -0.481862
O38   O     O_3   0.556170 0.880534 0.882721 -0.543444
O39   O     O_3   0.918269 0.689667 0.986327 -0.522451
O40   O     O_3   0.971327 0.304336 0.013486 -0.515505
O41   O     O_3   0.367949 0.844758 0.986604 -0.541693
O42   O     O_3   0.689208 0.064767 0.013153 -0.528311
O43   O     O_3   0.078195 0.317929 0.986998 -0.522158
O44   O     O_3   0.024433 0.703900 0.013038 -0.515474
O45   O     O_3   0.628003 0.154983 0.986676 -0.540459
O46   O     O_R   0.999940 0.438680 0.700430 -0.527530
O47   O     O_3   0.307314 0.934984 0.013313 -0.529492
O48   O     O_3   0.355620 0.142130 0.486084 -0.528668
O49   O     O_3   0.516912 0.790202 0.513647 -0.521568
O50   O     O_3   0.843556 0.389607 0.486859 -0.522627
O51   O     O_3   0.210658 0.524807 0.513709 -0.524455
O52   O     O_3   0.616710 0.832652 0.487128 -0.531047
O53   O     O_3   0.453428 0.188530 0.512943 -0.524568
O54   O     O_3   0.174916 0.622965 0.486254 -0.531845
O55   O     O_3   0.808142 0.491635 0.513235 -0.518603
O56   O     O_R   0.438680 0.000060 0.299570 -0.492533
O57   O     O_R   0.561320 0.999940 0.700430 -0.535894
O58   O     O_R   0.999940 0.438680 0.299570 -0.493974
O59   O     O_R   0.000060 0.561320 0.700430 -0.540190
O60   O     O_R   0.561320 0.999940 0.299570 -0.495323
O61   O     O_3   0.500000 0.000000 0.250000 -0.454643
O62   O     O_R   0.438680 0.000060 0.700430 -0.524479
O63   O     O_R   0.586640 0.851790 0.762730 -0.537715
O64   O     O_R   0.413360 0.148210 0.237270 -0.556643
O65   O     O_R   0.148210 0.586640 0.762730 -0.533028
O66   O     O_R   0.851790 0.413360 0.237270 -0.570247
O67   O     O_R   0.413360 0.148210 0.762730 -0.530272
O68   O     O_R   0.586640 0.851790 0.237270 -0.553627
O69   O     O_R   0.851790 0.413360 0.762730 -0.538875
O70   O     O_R   0.148210 0.586640 0.237270 -0.532631
O71   O     O_R   0.086640 0.351790 0.262730 -0.522579
O72   O     O_3   0.000000 0.500000 0.750000 -0.454377
O73   O     O_R   0.913360 0.648210 0.737270 -0.571299
O74   O     O_R   0.648210 0.086640 0.262730 -0.540128
O75   O     O_R   0.351790 0.913360 0.737270 -0.538180
O76   O     O_R   0.913360 0.648210 0.262730 -0.534021
O77   O     O_R   0.086640 0.351790 0.737270 -0.558372
O78   O     O_R   0.351790 0.913360 0.262730 -0.527500
O79   O     O_R   0.648210 0.086640 0.737270 -0.572190
O80   O     O_R   0.352020 0.086360 0.736540 -0.545996
O81   O     O_R   0.647980 0.913640 0.263460 -0.527285
O82   O     O_R   0.913640 0.352020 0.736540 -0.541738
O83   O     O_3   1.000000 0.500000 0.250000 -0.459346
O84   O     O_R   0.086360 0.647980 0.263460 -0.534950
O85   O     O_R   0.647980 0.913640 0.736540 -0.540079
O86   O     O_R   0.352020 0.086360 0.263460 -0.530660
O87   O     O_R   0.086360 0.647980 0.736540 -0.553745
O88   O     O_R   0.913640 0.352020 0.263460 -0.524383
O89   O     O_R   0.852020 0.586360 0.236540 -0.546124
O90   O     O_R   0.147980 0.413640 0.763460 -0.525675
O91   O     O_R   0.413640 0.852020 0.236540 -0.557392
O92   O     O_R   0.586360 0.147980 0.763460 -0.526123
O93   O     O_R   0.147980 0.413640 0.236540 -0.551521
O94   O     O_R   0.500060 0.061320 0.799570 -0.491900
O95   O     O_R   0.852020 0.586360 0.763460 -0.521306
O96   O     O_R   0.586360 0.147980 0.236540 -0.539051
O97   O     O_R   0.413640 0.852020 0.763460 -0.532138
O98   O     O_2   0.453570 0.116747 0.593714 -0.474657
O99   O     O_2   0.576485 0.891058 0.406425 -0.502549
O100  O     O_2   0.882162 0.471320 0.593551 -0.468160
O101  O     O_2   0.119603 0.572650 0.405855 -0.505316
O102  O     O_2   0.524327 0.866398 0.594159 -0.469436
O103  O     O_2   0.415638 0.095217 0.405875 -0.505453
O104  O     O_2   0.135077 0.533432 0.594149 -0.467882
O105  O     O_R   0.499940 0.938680 0.200430 -0.541253
O106  O     O_2   0.903172 0.428501 0.406318 -0.501417
O107  O     O_2   0.995976 0.634956 0.093708 -0.468595
O108  O     O_2   0.049773 0.382938 0.906326 -0.508393
O109  O     O_2   0.382124 0.941323 0.093980 -0.480234
O110  O     O_2   0.587860 0.093936 0.906153 -0.496415
O111  O     O_2   0.003009 0.374742 0.093823 -0.469833
O112  O     O_2   0.949389 0.622618 0.905866 -0.507360
O113  O     O_2   0.616351 0.055037 0.093900 -0.470706
O114  O     O_2   0.406940 0.907035 0.906114 -0.497440
O115  O     O_3   0.698468 0.376048 0.734140 -0.617983
O116  O     O_R   0.938680 0.500060 0.799570 -0.489546
O117  O     O_3   0.304024 0.615841 0.265549 -0.723718
O118  O     O_3   0.624648 0.699292 0.733479 -0.616468
O119  O     O_3   0.381428 0.309574 0.264642 -0.723801
O120  O     O_3   0.302075 0.623252 0.734604 -0.631009
O121  O     O_3   0.696761 0.381795 0.268547 -0.721708
O122  O     O_3   0.374715 0.302812 0.732463 -0.620180
O123  O     O_3   0.616702 0.695275 0.266383 -0.725492
O124  O     O_3   0.195923 0.878301 0.235987 -0.652724
O125  O     O_3   0.803722 0.117264 0.767160 -0.722983
O126  O     O_3   0.121650 0.192065 0.235852 -0.623158
O127  O     O_R   0.061320 0.499940 0.200430 -0.521223
O128  O     O_3   0.882292 0.803155 0.767833 -0.723259
O129  O     O_3   0.799826 0.125746 0.233101 -0.616326
O130  O     O_3   0.197136 0.883258 0.766885 -0.713513
O131  O     O_3   0.876884 0.803069 0.235004 -0.619709
O132  O     O_3   0.121199 0.194724 0.768547 -0.713885
O133  O     O_3   0.791148 0.262735 0.795080 -0.532633
O134  O     O_3   0.192042 0.733899 0.208966 -0.522815
O135  O     O_3   0.735962 0.789554 0.795195 -0.531086
O136  O     O_3   0.264617 0.189665 0.208845 -0.512380
O137  O     O_3   0.207632 0.737543 0.794942 -0.533650
O138  O     O_R   0.499940 0.938680 0.799570 -0.495976
O139  O     O_3   0.791685 0.272404 0.207858 -0.513640
O140  O     O_3   0.271641 0.206491 0.794064 -0.528817
O141  O     O_3   0.733347 0.802700 0.208549 -0.507352
O142  O     O_3   0.295280 0.760038 0.294680 -0.536396
O143  O     O_3   0.704081 0.232285 0.707843 -0.512618
O144  O     O_3   0.231847 0.306443 0.292549 -0.538596
O145  O     O_3   0.770284 0.706377 0.707762 -0.511292
O146  O     O_3   0.711082 0.235467 0.295430 -0.530413
O147  O     O_3   0.304467 0.767931 0.708671 -0.510775
O148  O     O_3   0.761917 0.706509 0.294906 -0.533937
Zn1   Zn    Zn3+2 0.587970 0.999840 0.730920 0.930209
Zn2   Zn    Zn3+2 0.912030 0.500160 0.769080 0.978566
Zn3   Zn    Zn3+2 0.500160 0.087970 0.230920 0.939008
Zn4   Zn    Zn3+2 0.499840 0.912030 0.769080 0.978007
Zn5   Zn    Zn3+2 0.912030 0.500160 0.230920 0.929513
Zn6   Zn    Zn3+2 0.087970 0.499840 0.769080 0.977512
Zn7   Zn    Zn3+2 0.499840 0.912030 0.230920 0.924423
Zn8   Zn    Zn3+2 0.500160 0.087970 0.769080 0.979680
Zn9   Zn    Zn3+2 0.412030 0.000160 0.269080 0.975111
Zn10  Zn    Zn3+2 0.000160 0.587970 0.730920 0.919451
Zn11  Zn    Zn3+2 0.999840 0.412030 0.269080 0.979237
Zn12  Zn    Zn3+2 0.412030 0.000160 0.730920 0.952390
Zn13  Zn    Zn3+2 0.587970 0.999840 0.269080 0.976698
Zn14  Zn    Zn3+2 0.999840 0.412030 0.730920 0.937900
Zn15  Zn    Zn3+2 0.000160 0.587970 0.269080 0.975305
Zn16  Zn    Zn3+2 0.087970 0.499840 0.230920 0.956234

loop_
_geom_bond_atom_site_label_1
_geom_bond_atom_site_label_2
_ccdc_geom_bond_type
C302  H319  S    
C199  O3    S    
C32   H368  S    
C304  H322  S    
C345  C358  A    
C9    C64   S    
C47   C89   S    
C39   C92   S    
C139  O6    S    
C250  H196  S    
C291  C292  S    
C23   C70   S    
C221  H132  S    
C54   C82   S    
C40   C93   S    
C98   C190  A    
O68   Zn7   S    
C240  H174  S    
C112  C337  S    
C365  O39   S    
O97   Zn4   S    
C184  C185  S    
C150  O133  S    
C102  C224  A    
C141  O17   S    
C172  H397  S    
C180  C181  S    
C175  H7    S    
C152  H352  S    
C226  H141  S    
C75   C93   S    
C329  C368  A    
C342  C369  A    
C261  H222  S    
C159  H365  S    
C169  H388  S    
C294  H299  S    
C266  O42   S    
C187  H34   S    
C5    C353  A    
C243  H182  S    
C211  H108  S    
C147  C336  A    
C209  H103  S    
C128  C145  A    
C247  O36   S    
C57   N7    S    
C181  H18   S    
C2    N2    S    
C4    C314  A    
C126  C143  A    
C201  C316  A    
O72   Zn10  S    
C244  C245  S    
C250  H197  S    
C274  C275  S    
C42   H68   S    
C368  O41   S    
C343  C370  A    
C36   C53   S    
C76   C94   S    
C238  C239  S    
C176  O142  S    
H71   O5    S    
C38   C55   S    
C298  H309  S    
C272  H250  S    
C348  C353  A    
C105  C257  A    
C96   C168  A    
C176  C177  S    
C318  C374  A    
C113  C201  A    
C48   C65   S    
C203  H88   S    
C347  C360  A    
O64   Zn3   S    
H83   O17   S    
C234  H161  S    
C325  H201  S    
C199  C200  S    
C46   N6    S    
C19   O74   A    
C260  O40   S    
C26   C71   S    
O90   Zn6   S    
C155  H360  S    
C223  O116  A    
C288  H287  S    
C178  H12   S    
C259  H218  S    
C322  C334  S    
C333  O46   A    
H340  O128  S    
C228  C229  S    
C289  O50   S    
C32   C85   S    
C295  H303  S    
C79   C212  A    
C28   C45   S    
C268  C323  A    
C217  H121  S    
C67   C85   S    
C340  C367  A    
C40   C58   S    
C228  H145  S    
C191  C192  S    
C251  C252  S    
C282  H272  S    
C186  H31   S    
C106  O108  S    
C47   C64   S    
C206  C207  S    
C91   O145  S    
C116  C133  A    
C108  O110  S    
C213  C214  S    
C249  H193  S    
C21   O89   A    
C213  H110  S    
C78   O133  S    
H72   O6    S    
C328  H235  S    
C51   O123  S    
C279  C324  A    
H73   O7    S    
C68   C131  A    
C183  C184  S    
C275  H258  S    
C232  H155  S    
O76   Zn15  S    
C49   O121  S    
C175  H5    S    
C177  H10   S    
C103  O104  S    
C161  H371  S    
C31   H357  S    
O61   Zn7   S    
C237  H165  S    
H85   O19   S    
C123  C141  A    
C184  H27   S    
C296  H306  S    
C306  C307  S    
C15   C61   S    
C288  H286  S    
O127  Zn16  S    
C332  C333  S    
C80   O134  S    
C352  C361  A    
C41   C59   S    
C154  C155  S    
C350  C376  A    
C195  H53   S    
C215  H117  S    
C369  O42   S    
C6    C354  A    
C302  H317  S    
C10   O87   A    
O105  Zn7   S    
C124  C257  A    
C106  N6    A    
C40   C65   S    
C115  O26   S    
C285  H281  S    
C158  C159  S    
C287  H285  S    
C14   C69   S    
C131  C149  A    
C104  O106  S    
H342  O130  S    
C251  H199  S    
C53   C71   S    
C273  H252  S    
H80   O14   S    
C43   C61   S    
C41   C69   S    
C138  C331  A    
C56   O129  S    
H81   O15   S    
C367  O40   S    
C258  H215  S    
C292  H295  S    
C323  H179  S    
C301  C326  A    
C214  C215  S    
C229  H149  S    
C109  O111  S    
C165  H382  S    
C104  N4    A    
C265  H232  S    
H268  O117  S    
C114  N8    A    
C204  H89   S    
O46   Zn14  S    
C8    O63   A    
O72   Zn14  S    
C303  H321  S    
C306  H328  S    
C8    O85   A    
C194  H49   S    
H82   O16   S    
C34   H390  S    
C156  C158  S    
C53   C78   S    
C217  C218  S    
C29   C82   S    
C146  C360  A    
C220  H129  S    
C189  O146  S    
C236  H163  S    
C327  C365  A    
C300  H315  S    
C270  H244  S    
C238  H169  S    
C188  H38   S    
C163  H377  S    
C34   C87   S    
C189  H39   S    
O78   Zn9   S    
C263  H229  S    
C173  H399  S    
C284  C285  S    
C326  C367  A    
C102  O103  S    
C273  O44   S    
C253  H205  S    
C71   C88   S    
C232  H154  S    
C348  C361  A    
C183  H25   S    
O83   Zn11  S    
C18   O95   A    
C20   C75   S    
C175  H6    S    
C269  H241  S    
C193  C194  S    
C233  O31   S    
C252  H202  S    
C4    O52   S    
C146  C310  A    
C155  H358  S    
O1    Zn1   S    
C51   C69   S    
C186  C187  S    
C81   O135  S    
C158  H363  S    
C41   C94   S    
C271  C272  S    
C85   O140  S    
C156  H361  S    
C36   H2    S    
C284  H276  S    
C291  H293  S    
H86   O20   S    
C30   C75   S    
C197  H56   S    
C99   O101  S    
C177  H11   S    
C98   O100  S    
C257  C321  A    
C227  O29   S    
C340  C343  A    
C111  N7    A    
C33   C86   S    
C341  C347  A    
C237  O32   S    
C167  H387  S    
C167  C169  S    
C215  H118  S    
O91   Zn7   S    
C36   C88   S    
C269  H240  S    
C281  H270  S    
C161  H372  S    
C274  H253  S    
C297  H308  S    
C134  O10   S    
O89   Zn5   S    
C29   C47   S    
C123  O34   S    
C114  C312  A    
C287  H284  S    
C62   C80   S    
C270  H243  S    
O116  Zn2   S    
C275  H256  S    
C25   O79   A    
O1    Zn8   S    
C278  H265  S    
C178  H14   S    
C253  C254  S    
C162  H374  S    
C219  H127  S    
C170  C171  S    
C259  H216  S    
C74   C92   S    
C94   O148  S    
C44   O117  S    
C95   O3    S    
C149  C338  A    
C272  H248  S    
C14   O81   A    
C241  C242  S    
C206  H96   S    
C276  O45   S    
C242  H178  S    
C196  H54   S    
C174  C175  S    
C299  H313  S    
C126  O37   S    
C265  H233  S    
C55   O128  S    
C211  H109  S    
C47   O119  S    
C223  O13   A    
C18   O73   A    
C108  C290  A    
C27   C44   S    
C229  H148  S    
C111  C310  A    
C116  O27   S    
C24   C118  A    
C264  C265  S    
C207  H98   S    
C256  C258  S    
C174  H4    S    
C170  O140  S    
C50   O122  S    
C135  C357  A    
C83   O137  S    
H339  O126  S    
C222  H136  S    
C55   C81   S    
C202  H69   S    
C50   C67   S    
C61   C78   S    
C10   O65   A    
C160  O136  S    
C23   O78   A    
C219  O27   S    
C317  H124  S    
C43   O115  S    
C131  O33   S    
H301  O120  S    
C307  H331  S    
C237  C238  S    
O59   Zn10  S    
O62   Zn12  S    
C103  N3    A    
C280  H267  S    
C350  C356  A    
C230  C231  S    
C260  H219  S    
C2    C116  A    
O73   Zn10  S    
C35   N5    S    
C70   C87   S    
C204  H91   S    
O70   Zn16  S    
C220  C221  S    
C273  C274  S    
C267  H238  S    
C53   O125  S    
C115  C132  A    
C314  H90   S    
C105  N5    A    
C243  O34   S    
O72   Zn6   S    
C49   C66   S    
C244  H184  S    
C107  N7    A    
C327  H224  S    
H341  O129  S    
C57   C130  A    
C286  H283  S    
C239  H171  S    
C280  C281  S    
C27   C80   S    
C7    C356  A    
C235  C319  A    
C191  H41   S    
C2    C120  A    
C31   C74   S    
C308  H333  S    
C222  C225  S    
C277  H262  S    
O65   Zn6   S    
C303  O54   S    
C328  C369  A    
C148  O15   S    
O61   Zn13  S    
C31   C84   S    
C228  H144  S    
C118  C136  A    
C293  H298  S    
C59   O131  S    
C115  C366  A    
C119  C366  A    
O83   Zn15  S    
C293  C294  S    
C324  C373  A    
C13   C121  A    
C193  H47   S    
O81   Zn13  S    
C214  H115  S    
C320  H157  S    
C282  H273  S    
C64   C82   S    
O67   Zn8   S    
C188  H36   S    
C209  C210  S    
C209  O23   S    
C310  C328  A    
C329  H246  S    
C52   C80   S    
O94   Zn8   S    
C19   O96   A    
C355  O57   A    
C33   C51   S    
C255  H209  S    
C218  H126  S    
C200  C202  S    
C225  H138  S    
C29   H334  S    
C349  C352  A    
C104  C246  A    
C184  H26   S    
C135  C268  A    
O13   Zn6   S    
C149  O16   S    
C289  H289  S    
C200  H65   S    
C305  H325  S    
C230  H151  S    
C93   O147  S    
C154  H356  S    
C262  H227  S    
C262  H225  S    
C182  H21   S    
C232  H156  S    
C231  H153  S    
C339  C365  A    
C185  H28   S    
C96   N1    A    
C127  O38   S    
C129  O31   S    
C103  C235  A    
C312  C329  A    
C198  H61   S    
C222  O28   S    
C157  C290  A    
C171  H394  S    
C124  C358  A    
C60   C77   S    
C221  H131  S    
C260  C261  S    
C202  H66   S    
C133  C331  A    
O2    Zn3   S    
C168  C313  A    
C18   C73   S    
H76   O10   S    
C320  C376  A    
C292  H294  S    
C242  H180  S    
C261  H221  S    
C150  H347  S    
C121  C139  A    
C294  H300  S    
C258  C259  S    
C187  H33   S    
C122  C140  A    
O58   Zn11  S    
C243  H181  S    
C211  H107  S    
C58   C83   S    
C285  H280  S    
O93   Zn16  S    
C96   O98   S    
C42   C67   S    
C264  H231  S    
H312  O121  S    
C182  H20   S    
C145  C335  A    
C240  C241  S    
C306  H329  S    
C245  H185  S    
C150  H345  S    
C194  C195  S    
C170  H393  S    
C222  H134  S    
C11   O66   A    
C197  C198  S    
C233  H159  S    
C20   O75   A    
C174  H3    S    
C207  H97   S    
C283  O48   S    
C55   C73   S    
C6    C316  A    
C331  C344  S    
C236  H162  S    
C204  C205  S    
C21   C76   S    
C151  H349  S    
C283  C284  S    
C113  C363  A    
C150  C151  S    
C16   O84   A    
C373  O47   S    
C1    C338  S    
C203  H87   S    
C59   C76   S    
C323  C370  A    
C213  O25   S    
C163  H376  S    
C240  O33   S    
C345  C371  A    
C325  C372  A    
C134  C332  A    
C157  C312  A    
C196  H55   S    
C249  H195  S    
C322  O35   A    
C46   C125  A    
C155  H359  S    
C288  H288  S    
H344  O132  S    
C203  C204  S    
C23   O91   A    
C255  H208  S    
C118  O29   S    
C180  O143  S    
C161  C162  S    
C263  C264  S    
C218  H123  S    
O86   Zn9   S    
C270  O43   S    
C239  H170  S    
C105  O107  S    
C313  H79   S    
C234  C236  S    
C43   C88   S    
C164  C165  S    
C54   O126  S    
C186  H32   S    
C205  H94   S    
C326  H212  S    
C294  C295  S    
C210  H105  S    
C37   H13   S    
C317  C375  A    
C100  N1    A    
C285  H278  S    
C15   O82   A    
C243  C244  S    
C13   N3    S    
C34   C62   S    
C273  H251  S    
C164  H378  S    
C247  H189  S    
C30   C83   S    
C6    O54   S    
C136  O11   S    
C169  H391  S    
C183  O144  S    
H335  O123  S    
O1    Zn12  S    
C32   C77   S    
C343  C357  A    
C278  H264  S    
C3    O51   S    
C153  O134  S    
C165  H383  S    
C226  H139  S    
C241  H175  S    
C160  H369  S    
C151  C152  S    
C58   O130  S    
C305  H327  S    
O63   Zn4   S    
O82   Zn14  S    
C44   C87   S    
C135  C309  A    
C153  H353  S    
C341  C359  A    
C11   C66   S    
C185  H30   S    
C302  H318  S    
C180  H17   S    
C28   C81   S    
O66   Zn5   S    
C107  C279  A    
C245  H187  S    
C299  O53   S    
C296  C297  S    
C344  O60   A    
C321  C371  A    
C140  O7    S    
C31   C49   S    
C339  C345  A    
C117  C134  A    
O79   Zn1   S    
C236  H164  S    
C152  H351  S    
H338  O125  S    
C300  C302  S    
C56   C84   S    
O88   Zn11  S    
C318  H135  S    
C132  O8    S    
C86   O141  S    
C109  C301  A    
C99   N4    A    
C351  C354  A    
C276  H260  S    
C151  H348  S    
C292  H296  S    
C307  C308  S    
C166  H385  S    
C159  H366  S    
C169  H389  S    
C129  C147  A    
C56   C74   S    
C157  C359  A    
O57   Zn1   S    
C101  C190  A    
C342  C346  A    
C219  C220  S    
C110  N6    A    
C209  H104  S    
C267  H239  S    
C284  H277  S    
C375  O49   S    
C250  C251  S    
C181  H19   S    
O96   Zn3   S    
C38   C91   S    
C194  H50   S    
C366  N1    S    
C42   C95   S    
C21   O76   A    
C140  C334  A    
C299  C300  S    
C3    C319  A    
C90   C224  A    
C254  C255  S    
H337  O124  S    
C220  H130  S    
C271  H245  S    
C132  C330  A    
C287  C288  S    
C308  H332  S    
C271  H247  S    
C98   N3    A    
O77   Zn14  S    
C272  H249  S    
C300  H316  S    
C28   H223  S    
C24   C122  A    
C229  H147  S    
C227  H143  S    
C212  C317  A    
C203  O21   S    
H77   O11   S    
C148  C337  A    
C199  H62   S    
C290  C325  A    
C230  H150  S    
C311  O24   A    
C143  O19   S    
C350  C363  A    
O60   Zn13  S    
O72   Zn2   S    
C192  H43   S    
C138  O5    S    
C39   C66   S    
C33   H379  S    
O61   Zn3   S    
C256  H213  S    
O69   Zn2   S    
C355  O62   A    
C208  H102  S    
C36   C61   S    
C309  C327  A    
C158  H364  S    
C183  H23   S    
C252  H200  S    
C37   C64   S    
C248  C249  S    
C156  O135  S    
C38   C63   S    
C88   O143  S    
C156  H362  S    
C295  H304  S    
C217  H122  S    
C276  H259  S    
O61   Zn9   S    
C339  C357  A    
C130  O32   S    
C253  O38   S    
C4    C352  A    
C40   H46   S    
C111  O113  S    
C19   C74   S    
C12   O80   A    
C316  H113  S    
C22   C77   S    
C112  O2    A    
C9    O86   A    
C324  H190  S    
C30   H346  S    
C13   C117  A    
C60   C85   S    
C11   O88   A    
O83   Zn5   S    
C26   H1    S    
C170  H392  S    
C176  H8    S    
O71   Zn11  S    
C274  H254  S    
C34   C52   S    
C213  H111  S    
C37   C89   S    
C192  H44   S    
C122  O25   S    
C254  H206  S    
C208  H99   S    
C171  H395  S    
C275  H255  S    
C187  C188  S    
H279  O118  S    
C160  C161  S    
C16   O70   A    
C162  H375  S    
C267  C269  S    
C261  C262  S    
C256  O39   S    
C45   C63   S    
C125  O36   S    
C133  O9    S    
C237  H166  S    
C35   C123  A    
C296  H305  S    
O75   Zn12  S    
C127  C144  A    
C172  H398  S    
C35   C128  A    
C45   C91   S    
C319  H146  S    
C82   O136  S    
C198  H59   S    
C283  H274  S    
C97   C179  A    
C351  C364  A    
C120  O22   S    
C216  H120  S    
C165  H381  S    
C163  O137  S    
O83   Zn16  S    
C100  O102  S    
C89   O144  S    
C107  O109  S    
C177  C178  S    
C102  N2    A    
C207  C208  S    
C270  C271  S    
H290  O119  S    
C253  H204  S    
C22   O90   A    
C145  O12   S    
C277  H261  S    
C256  H211  S    
C190  C315  A    
C142  O18   S    
C171  C172  S    
C109  N5    A    
C208  H100  S    
C258  H214  S    
C199  H63   S    
C1    O94   A    
C289  H291  S    
C340  C358  A    
C297  C298  S    
C119  O21   S    
C163  C164  S    
C260  H220  S    
C264  H230  S    
C245  H186  S    
C341  C368  A    
C342  C360  A    
C231  H152  S    
C144  C338  A    
C214  H114  S    
C173  C174  S    
C144  O20   S    
C266  H236  S    
C371  O44   S    
C200  H64   S    
C172  H396  S    
C167  H386  S    
C166  O139  S    
C63   C81   S    
C321  H168  S    
H78   O12   S    
C293  H297  S    
C68   N8    S    
C196  O148  S    
C259  H217  S    
C286  C287  S    
C22   O77   A    
C349  C375  A    
C50   C95   S    
C65   C83   S    
C7    C315  A    
C92   O146  S    
C113  C246  A    
C322  O58   A    
C181  C182  S    
C25   O92   A    
C196  C197  S    
C188  H37   S    
C189  C191  S    
C52   O124  S    
C189  H40   S    
C223  C336  S    
C227  C228  S    
C348  C374  A    
C173  H400  S    
C263  H228  S    
H323  O122  S    
C289  C291  S    
C17   O71   A    
C147  O14   S    
C246  C320  A    
C48   O120  S    
C250  O37   S    
C370  O43   S    
C39   C56   S    
C90   C361  A    
C269  H242  S    
C17   O93   A    
C30   C48   S    
H343  O131  S    
C372  O45   S    
C141  C335  A    
C192  H45   S    
C124  C301  A    
C166  H384  S    
C230  O30   S    
C315  H101  S    
H74   O8    S    
C26   C78   S    
H75   O9    S    
C29   C72   S    
C28   C73   S    
C193  O147  S    
C295  H302  S    
C182  H22   S    
O74   Zn13  S    
C225  H137  S    
C112  O105  A    
C143  C337  A    
C303  C304  S    
C179  C314  A    
C114  O114  S    
C117  O28   S    
C216  H119  S    
O138  Zn4   S    
C278  H263  S    
C16   C62   S    
C241  H176  S    
O35   Zn15  S    
O24   Zn5   S    
C248  H191  S    
C296  O52   S    
C58   C75   S    
C139  C332  A    
C266  H237  S    
C195  H51   S    
C1    O138  A    
C180  H16   S    
C12   C67   S    
C176  H9    S    
C356  C364  A    
C216  O26   S    
C215  H116  S    
H84   O18   S    
C130  C148  A    
C119  C137  A    
C27   H112  S    
C108  N8    A    
C234  H160  S    
C216  C217  S    
C73   C91   S    
C202  H67   S    
C137  C330  A    
C42   C60   S    
C57   C126  A    
H70   O4    S    
C162  H373  S    
C219  H128  S    
C303  H320  S    
C60   O132  S    
C44   C62   S    
C281  C282  S    
C152  H350  S    
C77   C95   S    
O87   Zn10  S    
C100  C212  A    
C354  C363  A    
C99   C201  A    
C110  C309  A    
C110  O112  S    
C159  H367  S    
C206  H95   S    
C242  H177  S    
O85   Zn1   S    
C306  O55   S    
C299  H314  S    
C101  C235  A    
C265  H234  S    
C142  C336  A    
C349  C362  A    
C311  C335  S    
C33   C76   S    
C128  O30   S    
C68   C127  A    
C14   O68   A    
C125  C142  A    
C198  H60   S    
C344  O56   A    
C280  H266  S    
C347  C373  A    
C225  C226  S    
C153  H354  S    
O95   Zn2   S    
O56   Zn9   S    
C276  C277  S    
C251  H198  S    
C136  C334  A    
C233  H158  S    
C248  H192  S    
C32   C50   S    
C45   O118  S    
C27   C70   S    
C307  H330  S    
C25   C71   S    
C353  C362  A    
C41   H57   S    
C304  C305  S    
C280  O47   S    
C346  C372  A    
C298  H311  S    
C298  H310  S    
C166  C167  S    
C79   C168  A    
C84   O139  S    
C8    C63   S    
C120  C138  A    
C146  C279  A    
C164  H380  S    
C333  O59   A    
C49   C92   S    
C263  O41   S    
C233  C234  S    
C10   C65   S    
C195  H52   S    
C90   C179  A    
C227  H142  S    
C5    O53   S    
C282  H271  S    
O80   Zn12  S    
C244  H183  S    
C249  H194  S    
C186  O145  S    
C376  O50   S    
C239  H172  S    
C24   N4    S    
O1    Zn4   S    
C191  H42   S    
C247  C248  S    
C87   O142  S    
C304  H324  S    
C330  C355  S    
C308  H336  S    
C5    C313  A    
C97   O99   S    
C254  H207  S    
C37   C54   S    
C137  O4    S    
C38   H24   S    
C48   C93   S    
C15   O69   A    
C106  C268  A    
C101  C364  A    
O92   Zn8   S    
C154  H355  S    
C59   C86   S    
C205  H93   S    
C197  H58   S    
C262  H226  S    
C7    O55   S    
C72   C89   S    
C210  H106  S    
C193  H48   S    
C20   O97   A    
C173  O141  S    
C224  C318  A    
C281  H269  S    
H257  O115  S    
C121  O23   S    
C293  O51   S    
C252  H203  S    
C240  H173  S    
C46   C129  A    
C297  H307  S    
C286  H282  S    
C178  H15   S    
C3    C351  A    
C255  H210  S    
C221  H133  S    
C346  C359  A    
C206  O22   S    
C286  O49   S    
C52   C70   S    
C266  C267  S    
C51   C94   S    
C66   C84   S    
C218  H125  S    
C97   N2    A    
C54   C72   S    
C291  H292  S    
C12   O67   A    
C17   C72   S    
C210  C211  S    
C247  H188  S    
C226  H140  S    
C231  C232  S    
C160  H370  S    
C305  H326  S    
C238  H167  S    
C205  H92   S    
C153  C154  S    
C277  C278  S    
O84   Zn15  S    
C374  O48   S    
C26   C43   S    
C9    O64   A    
C283  H275  S    
C69   C86   S    
C79   C362  A    
C39   H35   S    
C311  O127  A    
C185  H29   S    
