data_mof_unit_29107.cif
_audit_creation_date              2013-03-05T15:49:59-0500
_audit_creation_method            fapswitch 2.2
_symmetry_space_group_name_H-M    P1
_symmetry_Int_Tables_number       1
_space_group_crystal_system       triclinic
_cell_length_a                    17.169908
_cell_length_b                    17.149005
_cell_length_c                    17.29541
_cell_angle_alpha                 90.060766
_cell_angle_beta                  89.745593
_cell_angle_gamma                 89.996816
_cell_volume                      5092.5257137

loop_
_atom_site_label
_atom_site_type_symbol
_atom_site_description
_atom_site_fract_x
_atom_site_fract_y
_atom_site_fract_z
_atom_type_partial_charge
C1    C     C_R   0.395673 0.696083 0.612164 -0.073057
C2    C     C_R   0.580776 0.327503 0.355961 -0.022069
C3    C     C_R   0.671729 0.580338 0.644375 -0.016845
C4    C     C_R   0.306028 0.397774 0.383514 -0.060585
C5    C     C_R   0.601690 0.304490 0.614168 -0.036807
C6    C     C_R   0.420665 0.673201 0.356714 -0.054399
C7    C     C_R   0.326479 0.420279 0.643238 -0.056161
C8    C     C_R   0.695374 0.602096 0.385560 -0.053078
C9    C     C_R   0.398679 0.305867 0.382892 -0.098668
C10   C     C_R   0.579665 0.673258 0.643379 -0.098780
C11   C     C_R   0.673654 0.419415 0.356765 -0.110901
C12   C     C_R   0.303759 0.603759 0.611922 -0.094121
C13   C     C_R   0.604115 0.695199 0.386269 -0.086631
C14   C     C_R   0.418242 0.327007 0.643650 -0.106399
C15   C     C_R   0.327517 0.581405 0.356073 -0.097532
C16   C     C_R   0.694854 0.395970 0.613820 -0.109101
C17   C     C_R   0.890849 0.200059 0.096799 -0.019251
C18   C     C_R   0.074053 0.834179 0.852113 -0.118972
C19   C     C_R   0.165427 0.074669 0.148137 -0.108014
C20   C     C_R   0.800462 0.891254 0.901254 -0.028356
C21   C     C_R   0.107013 0.800150 0.099894 -0.053326
C22   C     C_R   0.925967 0.168584 0.854014 -0.092854
C23   C     C_R   0.832391 0.925546 0.146982 -0.086930
C24   C     C_R   0.200091 0.107092 0.901157 -0.031452
C25   C     C_R   0.892585 0.800180 0.900263 -0.088244
C26   C     C_R   0.074211 0.167908 0.146782 -0.089244
C27   C     C_R   0.166976 0.925491 0.852533 -0.094240
C28   C     C_R   0.799999 0.107993 0.098358 -0.101887
C29   C     C_R   0.109462 0.199591 0.901960 -0.088824
C30   C     C_R   0.925906 0.834647 0.148116 -0.113656
C31   C     C_R   0.833742 0.076356 0.852148 -0.112080
C32   C     C_R   0.199426 0.890954 0.098729 -0.072543
H1    H     H_    0.422085 0.753332 0.611434 0.130390
H2    H     H_    0.545685 0.278017 0.340103 0.154706
H3    H     H_    0.721209 0.545157 0.660260 0.148732
H4    H     H_    0.248734 0.423979 0.383191 0.124814
H5    H     H_    0.574492 0.247695 0.613020 0.138667
H6    H     H_    0.457822 0.721181 0.341580 0.168138
H7    H     H_    0.278686 0.457609 0.658855 0.168343
H8    H     H_    0.752304 0.575371 0.387138 0.139197
H9    H     H_    0.424903 0.248601 0.383405 0.151780
H10   H     H_    0.543374 0.722199 0.658188 0.123094
H11   H     H_    0.723079 0.454929 0.341835 0.130041
H12   H     H_    0.246694 0.577269 0.609779 0.148195
H13   H     H_    0.578281 0.752725 0.386413 0.137028
H14   H     H_    0.452172 0.276474 0.659121 0.143304
H15   H     H_    0.276860 0.547693 0.340633 0.144238
H16   H     H_    0.752181 0.422100 0.614058 0.143879
H17   H     H_    0.919378 0.256295 0.096336 0.136549
H18   H     H_    0.039758 0.783737 0.837507 0.167407
H19   H     H_    0.215426 0.040029 0.164054 0.163177
H20   H     H_    0.744198 0.919656 0.901563 0.131457
H21   H     H_    0.077374 0.744620 0.099426 0.143418
H22   H     H_    0.962541 0.217476 0.840374 0.172920
H23   H     H_    0.781755 0.960008 0.161404 0.155333
H24   H     H_    0.255551 0.077343 0.901603 0.138611
H25   H     H_    0.921863 0.744402 0.900484 0.110813
H26   H     H_    0.039649 0.218631 0.160918 0.165684
H27   H     H_    0.217896 0.959439 0.837960 0.157744
H28   H     H_    0.744237 0.078712 0.098433 0.117353
H29   H     H_    0.081592 0.256171 0.902300 0.132193
H30   H     H_    0.960460 0.784525 0.163933 0.150232
H31   H     H_    0.783565 0.042119 0.835828 0.155913
H32   H     H_    0.255882 0.918971 0.098089 0.126477
N1    N     N_R   0.424590 0.632770 0.578330 -0.054649
N2    N     N_R   0.575410 0.367230 0.421670 -0.065476
N3    N     N_R   0.632770 0.575410 0.578330 -0.064718
N4    N     N_R   0.367230 0.424590 0.421670 -0.055249
N5    N     N_R   0.575410 0.367230 0.578330 -0.058111
N6    N     N_R   0.424590 0.632770 0.421670 -0.068660
N7    N     N_R   0.367230 0.424590 0.578330 -0.067565
N8    N     N_R   0.632770 0.575410 0.421670 -0.058419
N9    N     N_R   0.424590 0.367230 0.421670 -0.060776
N10   N     N_R   0.575410 0.632770 0.578330 -0.064907
N11   N     N_R   0.632770 0.424590 0.421670 -0.064370
N12   N     N_R   0.367230 0.575410 0.578330 -0.057771
N13   N     N_R   0.575410 0.632770 0.421670 -0.057045
N14   N     N_R   0.424590 0.367230 0.578330 -0.065696
N15   N     N_R   0.367230 0.575410 0.421670 -0.066887
N16   N     N_R   0.632770 0.424590 0.578330 -0.056366
N17   N     N_R   0.924590 0.132770 0.078330 -0.051987
N18   N     N_R   0.075410 0.867230 0.921670 -0.067824
N19   N     N_R   0.132770 0.075410 0.078330 -0.071900
N20   N     N_R   0.867230 0.924590 0.921670 -0.051402
N21   N     N_R   0.075410 0.867230 0.078330 -0.050514
N22   N     N_R   0.924590 0.132770 0.921670 -0.068892
N23   N     N_R   0.867230 0.924590 0.078330 -0.066914
N24   N     N_R   0.132770 0.075410 0.921670 -0.051143
N25   N     N_R   0.924590 0.867230 0.921670 -0.048215
N26   N     N_R   0.075410 0.132770 0.078330 -0.072754
N27   N     N_R   0.132770 0.924590 0.921670 -0.072368
N28   N     N_R   0.867230 0.075410 0.078330 -0.047576
N29   N     N_R   0.075410 0.132770 0.921670 -0.047037
N30   N     N_R   0.924590 0.867230 0.078330 -0.071127
N31   N     N_R   0.867230 0.075410 0.921670 -0.070223
N32   N     N_R   0.132770 0.924590 0.078330 -0.046022
C33   C     C_3   0.274491 0.273596 0.316726 -0.227827
C34   C     C_3   0.679900 0.683224 0.746202 -0.225891
C35   C     C_3   0.320978 0.683742 0.253636 -0.229432
C36   C     C_3   0.726331 0.269779 0.677146 -0.226615
C37   C     C_3   0.729718 0.726661 0.321242 -0.222463
C38   C     C_3   0.315175 0.319393 0.745186 -0.230409
C39   C     C_3   0.683410 0.318388 0.254157 -0.224029
C40   C     C_3   0.268302 0.730312 0.672931 -0.224561
C41   C     C_3   0.764112 0.761748 0.848599 -0.214149
C42   C     C_3   0.175263 0.179208 0.245390 -0.212473
C43   C     C_3   0.826474 0.181931 0.754314 -0.232378
C44   C     C_3   0.235727 0.761222 0.151327 -0.217446
C45   C     C_3   0.238789 0.234674 0.848882 -0.213216
C46   C     C_3   0.823154 0.824379 0.246368 -0.210914
C47   C     C_3   0.174185 0.826050 0.750002 -0.223456
C48   C     C_3   0.762180 0.236361 0.149864 -0.214478
Ni1   Ni    Ni4+2 0.500000 0.631570 0.500000 0.248675
Ni2   Ni    Ni4+2 0.500000 0.368430 0.500000 0.258547
Ni3   Ni    Ni4+2 0.631570 0.500000 0.500000 0.259042
Ni4   Ni    Ni4+2 0.368430 0.500000 0.500000 0.247223
Ni5   Ni    Ni4+2 0.000000 0.131570 0.000000 0.252090
Ni6   Ni    Ni4+2 0.000000 0.868430 0.000000 0.242407
Ni7   Ni    Ni4+2 0.131570 0.000000 0.000000 0.243601
Ni8   Ni    Ni4+2 0.868430 0.000000 0.000000 0.247341
C49   C     C_R   0.321681 0.677581 0.635762 0.166692
C50   C     C_R   0.642297 0.358880 0.315155 0.197130
C51   C     C_R   0.639857 0.641875 0.685217 0.196884
C52   C     C_R   0.326604 0.325726 0.355689 0.189505
C53   C     C_R   0.674834 0.322561 0.638673 0.165670
C54   C     C_R   0.360019 0.642681 0.315272 0.197697
C55   C     C_R   0.356623 0.359103 0.684211 0.194879
C56   C     C_R   0.677052 0.675170 0.360405 0.175846
C57   C     C_R   0.813135 0.185894 0.107249 0.118242
C58   C     C_R   0.130807 0.869759 0.807461 0.226825
C59   C     C_R   0.130383 0.133035 0.191616 0.233156
C60   C     C_R   0.815040 0.813596 0.889679 0.123498
C61   C     C_R   0.184452 0.813390 0.110937 0.114883
C62   C     C_R   0.869269 0.135268 0.809341 0.221284
C63   C     C_R   0.867864 0.869497 0.191685 0.230726
C64   C     C_R   0.187140 0.184596 0.890933 0.111462
C65   C     C_3   0.769608 0.690335 0.745508 0.239329
C66   C     C_3   0.219536 0.298005 0.251140 0.272171
C67   C     C_3   0.704804 0.195803 0.722354 0.248305
C68   C     C_3   0.335415 0.768716 0.227683 0.241790
C69   C     C_3   0.228932 0.331041 0.768549 0.237665
C70   C     C_3   0.804615 0.703146 0.278069 0.241388
C71   C     C_3   0.294254 0.788268 0.735285 0.254098
C72   C     C_3   0.685526 0.228464 0.249170 0.237377
C73   C     C_3   0.671592 0.322428 0.165992 0.269699
C74   C     C_3   0.199612 0.704574 0.724112 0.249103
C75   C     C_3   0.705426 0.778194 0.252847 0.282699
C76   C     C_3   0.337209 0.311107 0.831010 0.276452
C77   C     C_3   0.308929 0.659940 0.168571 0.288235
C78   C     C_3   0.776739 0.298064 0.744500 0.275474
C79   C     C_3   0.297417 0.199520 0.271962 0.244075
C80   C     C_3   0.682298 0.666953 0.833758 0.269872
C81   C     C_3   0.230375 0.154916 0.310908 0.268364
C82   C     C_3   0.675016 0.755221 0.849753 0.265930
C83   C     C_3   0.221230 0.676572 0.177039 0.258771
C84   C     C_3   0.847745 0.256929 0.709129 0.245086
C85   C     C_3   0.747959 0.847467 0.289491 0.211348
C86   C     C_3   0.324365 0.222501 0.825531 0.266775
C87   C     C_3   0.760625 0.325616 0.154456 0.270561
C88   C     C_3   0.148006 0.767524 0.687503 0.251451
C89   C     C_3   0.243382 0.851429 0.698530 0.265921
C90   C     C_3   0.773532 0.232737 0.238177 0.247530
C91   C     C_3   0.217375 0.243045 0.762825 0.257064
C92   C     C_3   0.847636 0.772411 0.314451 0.286171
C93   C     C_3   0.775516 0.154038 0.686752 0.270786
C94   C     C_3   0.248465 0.784361 0.236438 0.254261
C95   C     C_3   0.761288 0.777360 0.760918 0.247787
C96   C     C_3   0.152632 0.253546 0.290172 0.247765
C97   C     C_3   0.207198 0.228969 0.356528 -0.278414
C98   C     C_3   0.672316 0.771961 0.762337 -0.291310
C99   C     C_3   0.232558 0.700558 0.261874 -0.289702
C100  C     C_3   0.797357 0.228371 0.640844 -0.283283
C101  C     C_3   0.772721 0.796285 0.358538 -0.288848
C102  C     C_3   0.302384 0.229979 0.739892 -0.291561
C103  C     C_3   0.773054 0.321839 0.242451 -0.297465
C104  C     C_3   0.216989 0.793526 0.635281 -0.275892
C105  C     C_3   0.772173 0.673349 0.832797 -0.287420
C106  C     C_3   0.243400 0.224812 0.206290 -0.286476
C107  C     C_3   0.754556 0.224786 0.789832 -0.286717
C108  C     C_3   0.323761 0.745208 0.142404 -0.283593
C109  C     C_3   0.250877 0.323510 0.854678 -0.289651
C110  C     C_3   0.779511 0.753881 0.209789 -0.296018
C111  C     C_3   0.226576 0.761633 0.786481 -0.270925
C112  C     C_3   0.673012 0.232365 0.161125 -0.284204
C113  C     C_1   0.189247 0.232112 0.439620 0.321320
N33   N     N_1   0.175263 0.234649 0.505084 0.007959
C114  C     C_1   0.622411 0.830710 0.725526 0.356086
N34   N     N_1   0.583363 0.877186 0.696584 0.033113
C115  C     C_1   0.180465 0.680872 0.326740 0.323977
N35   N     N_1   0.139476 0.665458 0.377763 0.006467
C116  C     C_1   0.816544 0.230234 0.557986 0.372432
N36   N     N_1   0.831508 0.231790 0.492710 0.016030
C117  C     C_1   0.767888 0.818295 0.440509 0.370722
N37   N     N_1   0.763996 0.835570 0.505101 0.026650
C118  C     C_1   0.325541 0.176733 0.677140 0.346340
N38   N     N_1   0.343692 0.134922 0.627700 0.020774
C119  C     C_1   0.832025 0.365879 0.285687 0.369661
N39   N     N_1   0.878481 0.400478 0.319749 0.035100
C120  C     C_1   0.215212 0.809836 0.551943 0.352557
N40   N     N_1   0.213965 0.822648 0.486286 0.011451
C121  C     C_1   0.823968 0.618718 0.872840 0.372046
N41   N     N_1   0.864720 0.575616 0.904436 0.026803
C122  C     C_1   0.265656 0.225959 0.123990 0.311232
N42   N     N_1   0.283009 0.227034 0.059307 -0.022821
C123  C     C_1   0.729196 0.225669 0.871284 0.350246
N43   N     N_1   0.709266 0.226270 0.935271 -0.030708
C124  C     C_1   0.371727 0.768141 0.075755 0.365343
N44   N     N_1   0.409528 0.786211 0.023200 0.036836
C125  C     C_1   0.224686 0.372543 0.919378 0.363735
N45   N     N_1   0.204083 0.411149 0.970418 0.047565
C126  C     C_1   0.781021 0.727619 0.128668 0.354226
N46   N     N_1   0.782439 0.706919 0.064984 -0.027779
C127  C     C_1   0.234366 0.741387 0.868838 0.307184
N47   N     N_1   0.240329 0.725457 0.933526 -0.035699
C128  C     C_1   0.618545 0.185879 0.114881 0.364171
N48   N     N_1   0.575597 0.149287 0.078413 0.020321
N49   N     N_R   0.822405 0.658041 0.687271 0.265642
O1    O     O_R   0.876031 0.608389 0.706827 -0.275350
O2    O     O_R   0.816035 0.678870 0.615274 -0.339994
N50   N     N_R   0.213039 0.374027 0.213661 0.267727
O3    O     O_R   0.161326 0.384053 0.159871 -0.314096
O4    O     O_R   0.267004 0.426321 0.222767 -0.338419
N51   N     N_R   0.626469 0.164455 0.732869 0.243055
O5    O     O_R   0.611044 0.092568 0.714632 -0.305421
O6    O     O_R   0.573381 0.206415 0.767028 -0.341385
N52   N     N_R   0.394809 0.822505 0.255934 0.260067
O7    O     O_R   0.446914 0.850573 0.208851 -0.276670
O8    O     O_R   0.391269 0.848626 0.326520 -0.325322
N53   N     N_R   0.173292 0.387359 0.737754 0.270645
O9    O     O_R   0.135097 0.433044 0.784437 -0.267167
O10   O     O_R   0.154604 0.385675 0.664958 -0.317606
N54   N     N_R   0.834669 0.624118 0.268543 0.238813
O11   O     O_R   0.904357 0.606448 0.291812 -0.307707
O12   O     O_R   0.793396 0.572048 0.232464 -0.359532
N55   N     N_R   0.373676 0.797583 0.763605 0.238119
O13   O     O_R   0.406298 0.865967 0.764855 -0.317177
O14   O     O_R   0.410191 0.738196 0.792941 -0.346166
N56   N     N_R   0.647082 0.173740 0.301621 0.263396
O15   O     O_R   0.596915 0.123621 0.275320 -0.272585
O16   O     O_R   0.662406 0.175127 0.375209 -0.335551
N57   N     N_R   0.615990 0.372384 0.126270 0.276172
O17   O     O_R   0.610322 0.369395 0.051382 -0.248386
O18   O     O_R   0.571056 0.419235 0.165308 -0.288086
N58   N     N_R   0.178162 0.623931 0.740263 0.246595
O19   O     O_R   0.112168 0.595941 0.716317 -0.261442
O20   O     O_R   0.226267 0.578972 0.777250 -0.347250
N59   N     N_R   0.629955 0.781410 0.214381 0.276191
O21   O     O_R   0.619141 0.832360 0.159837 -0.276538
O22   O     O_R   0.581220 0.723783 0.221169 -0.343655
N60   N     N_R   0.403429 0.348264 0.868518 0.277020
O23   O     O_R   0.414524 0.338751 0.942226 -0.266003
O24   O     O_R   0.450958 0.391989 0.829033 -0.284510
N61   N     N_R   0.342472 0.591439 0.131194 0.281304
O25   O     O_R   0.328819 0.577900 0.058525 -0.283626
O26   O     O_R   0.389193 0.545758 0.169013 -0.271078
N62   N     N_R   0.772868 0.376839 0.776584 0.246595
O27   O     O_R   0.830432 0.425216 0.767428 -0.312925
O28   O     O_R   0.708680 0.401211 0.808685 -0.300573
N63   N     N_R   0.376565 0.171511 0.258483 0.244542
O29   O     O_R   0.396032 0.100782 0.277215 -0.262882
O30   O     O_R   0.426646 0.215659 0.222708 -0.361862
N64   N     N_R   0.638104 0.606690 0.873950 0.279138
O31   O     O_R   0.646325 0.597419 0.948069 -0.262626
O32   O     O_R   0.591149 0.561281 0.835999 -0.273115
N65   N     N_R   0.232480 0.078176 0.346677 0.279354
O33   O     O_R   0.287573 0.061930 0.395421 -0.283912
O34   O     O_R   0.169582 0.035940 0.346973 -0.268999
N66   N     N_R   0.624934 0.789083 0.909226 0.256985
O35   O     O_R   0.569531 0.837140 0.890662 -0.315119
O36   O     O_R   0.635808 0.771562 0.981483 -0.314750
N67   N     N_R   0.160980 0.625062 0.146899 0.256026
O37   O     O_R   0.109682 0.594128 0.193103 -0.305160
O38   O     O_R   0.158750 0.609248 0.073395 -0.329286
N68   N     N_R   0.924547 0.292342 0.699536 0.280110
O39   O     O_R   0.955112 0.298441 0.630889 -0.287740
O40   O     O_R   0.957302 0.328436 0.756975 -0.296262
N69   N     N_R   0.718593 0.926581 0.298915 0.245146
O41   O     O_R   0.648186 0.944391 0.277998 -0.269897
O42   O     O_R   0.761044 0.978286 0.333947 -0.281190
N70   N     N_R   0.376936 0.164845 0.858674 0.254697
O43   O     O_R   0.391413 0.165646 0.932382 -0.338601
O44   O     O_R   0.409684 0.112420 0.814969 -0.300385
N71   N     N_R   0.800117 0.377064 0.099876 0.256842
O45   O     O_R   0.850891 0.427695 0.123979 -0.305312
O46   O     O_R   0.785722 0.371421 0.026341 -0.323848
N72   N     N_R   0.068150 0.756790 0.660802 0.282321
O47   O     O_R   0.049897 0.771912 0.589495 -0.276923
O48   O     O_R   0.015048 0.730022 0.707492 -0.298068
N73   N     N_R   0.267517 0.930747 0.680354 0.260300
O49   O     O_R   0.329983 0.942040 0.639081 -0.317181
O50   O     O_R   0.218853 0.987907 0.690028 -0.326393
N74   N     N_R   0.831028 0.184170 0.277496 0.256070
O51   O     O_R   0.809582 0.132816 0.328413 -0.253113
O52   O     O_R   0.904780 0.194347 0.263958 -0.352004
N75   N     N_R   0.152306 0.202931 0.725744 0.247867
O53   O     O_R   0.095868 0.242023 0.694638 -0.269976
O54   O     O_R   0.149373 0.127249 0.725610 -0.324369
N76   N     N_R   0.924453 0.769937 0.349801 0.269255
O55   O     O_R   0.936440 0.725926 0.409761 -0.279954
O56   O     O_R   0.979619 0.815632 0.325248 -0.307134
N77   N     N_R   0.778726 0.076536 0.652419 0.273712
O57   O     O_R   0.724818 0.055504 0.604135 -0.289679
O58   O     O_R   0.844850 0.039569 0.651559 -0.276939
N78   N     N_R   0.215401 0.853505 0.273294 0.259723
O59   O     O_R   0.253985 0.918672 0.271746 -0.301154
O60   O     O_R   0.142064 0.854522 0.292219 -0.299874
N79   N     N_R   0.804379 0.839103 0.721372 0.257740
O61   O     O_R   0.866520 0.823170 0.681169 -0.247314
O62   O     O_R   0.782874 0.911266 0.729767 -0.362106
N80   N     N_R   0.073673 0.281365 0.304183 0.248616
O63   O     O_R   0.051538 0.348906 0.278274 -0.322340
O64   O     O_R   0.028276 0.242809 0.350764 -0.301087

loop_
_geom_bond_atom_site_label_1
_geom_bond_atom_site_label_2
_geom_bond_distance
_ccdc_geom_bond_type
C4    H4    1.081525 S    
C5    H5    1.080374 S    
N55   O14   1.300592 A    
N51   O5    1.299737 A    
C47   C89   1.544344 S    
C72   C112  1.540336 S    
C48   C112  1.544029 S    
C34   C80   1.540819 S    
N77   O57   1.300188 A    
C35   C77   1.541213 S    
C73   C112  1.546893 S    
N29   Ni5   1.869950 S    
C74   C111  1.528936 S    
C33   C52   1.434604 S    
C32   C61   1.371178 A    
N21   N32   1.392002 A    
N60   O24   1.300313 A    
N67   O37   1.300190 A    
N23   N30   1.391925 A    
N17   Ni5   1.869918 S    
C37   C56   1.432532 S    
N58   O19   1.299862 A    
C82   C98   1.540106 S    
N68   O39   1.300281 A    
N19   Ni7   1.872080 S    
N56   O15   1.300125 A    
C86   C102  1.535610 S    
C98   C114  1.469932 S    
C38   C69   1.546083 S    
C48   C57   1.431966 S    
C84   N68   1.460694 S    
C2    H2    1.076770 S    
C120  N40   1.157135 T    
C20   C60   1.369410 A    
N13   Ni1   1.869950 S    
C21   C61   1.363114 A    
C3    C51   1.380940 A    
N56   O16   1.300971 A    
C116  N36   1.157079 T    
N26   Ni5   1.878230 S    
C45   C91   1.541563 S    
C46   C92   1.537558 S    
C112  C128  1.468036 S    
C36   C78   1.532706 S    
N9    Ni2   1.878231 S    
C16   N16   1.326796 A    
C47   C88   1.542691 S    
N53   O9    1.299866 A    
C31   H31   1.080969 S    
C47   C58   1.447740 S    
C70   N54   1.459038 S    
C42   C81   1.537361 S    
N54   O12   1.300670 A    
C72   N56   1.461480 S    
C92   C101  1.547299 S    
N3    N10   1.391925 A    
N24   Ni7   1.873932 S    
C46   C85   1.539700 S    
N4    Ni4   1.872081 S    
C96   C97   1.543728 S    
C70   C110  1.531040 S    
N66   O36   1.299913 A    
C18   C58   1.382982 A    
N11   Ni3   1.871947 S    
N76   O55   1.300371 A    
N18   Ni6   1.869917 S    
C104  C120  1.468998 S    
C67   N51   1.459196 S    
C44   C94   1.540718 S    
C43   C107  1.560269 S    
N6    N15   1.392002 A    
N1    Ni1   1.869918 S    
C41   C105  1.546198 S    
N63   O30   1.300685 A    
C23   H23   1.079388 S    
C26   N26   1.327951 A    
C9    H9    1.080400 S    
N74   O52   1.298578 A    
C77   C83   1.538866 S    
C44   C61   1.438796 S    
C30   N30   1.330854 A    
C13   H13   1.081622 S    
C44   C83   1.538654 S    
C68   C108  1.542529 S    
N22   Ni5   1.878261 S    
C69   C109  1.543718 S    
C79   C81   1.535642 S    
C67   C107  1.531818 S    
N22   N31   1.392002 A    
C85   N69   1.456103 S    
C118  N38   1.157036 T    
C12   H12   1.080772 S    
C117  N37   1.157089 T    
C74   N58   1.458142 S    
C7    H7    1.074136 S    
C8    H8    1.080041 S    
N79   O62   1.299213 A    
C69   N53   1.461031 S    
C71   C89   1.531850 S    
C78   C107  1.529196 S    
C111  C127  1.473130 S    
N59   O22   1.300030 A    
N72   O48   1.299386 A    
C107  C123  1.472723 S    
C36   C100  1.542026 S    
C37   C101  1.545799 S    
C79   N63   1.459011 S    
C40   C104  1.543355 S    
N12   Ni4   1.871946 S    
N27   Ni7   1.871947 S    
N8    Ni3   1.873932 S    
C43   C62   1.446989 S    
N61   O25   1.300195 A    
C73   C87   1.541742 S    
C74   C88   1.535497 S    
C77   N61   1.457594 S    
C4    C52   1.371200 A    
C66   C96   1.533264 S    
N57   O17   1.300245 A    
C67   C93   1.535746 S    
N54   O11   1.300004 A    
C18   N18   1.329609 A    
N17   N28   1.392002 A    
C78   N62   1.461295 S    
C8    C56   1.364160 A    
C15   N15   1.330320 A    
C12   C49   1.366554 A    
C76   C109  1.550624 S    
N62   O28   1.300615 A    
C1    N1    1.328092 A    
C6    H6    1.073112 S    
C27   N27   1.329962 A    
C16   C53   1.373893 A    
C17   N17   1.329188 A    
C24   C64   1.359439 A    
N78   O60   1.299740 A    
N69   O41   1.299863 A    
C115  N35   1.157117 T    
C25   H25   1.080599 S    
C31   C62   1.392306 A    
C19   N19   1.333519 A    
N50   O3    1.300435 A    
N73   O49   1.300360 A    
C35   C54   1.445495 S    
C28   H28   1.081140 S    
N6    Ni1   1.878261 S    
C29   H29   1.081849 S    
C40   C74   1.536559 S    
N70   O43   1.299966 A    
C32   H32   1.081919 S    
C17   H17   1.081704 S    
C4    N4    1.325447 A    
C89   C104  1.546022 S    
C90   C103  1.529729 S    
N49   O1    1.300197 A    
C84   C100  1.546294 S    
C89   N73   1.456210 S    
C36   C67   1.535225 S    
C37   C70   1.537763 S    
C86   N70   1.458296 S    
C3    H3    1.078711 S    
C47   C111  1.560118 S    
C125  N45   1.157023 T    
C40   C71   1.533458 S    
N65   O34   1.300379 A    
C20   N20   1.330032 A    
C105  C121  1.467991 S    
C11   C50   1.373834 A    
C65   N49   1.460697 S    
C39   C73   1.540810 S    
C80   N64   1.457376 S    
C37   C75   1.536499 S    
C2    N2    1.327258 A    
C91   N75   1.462278 S    
N51   O6    1.300747 A    
N64   O31   1.300209 A    
N28   Ni8   1.871946 S    
C11   N11   1.324228 A    
N30   Ni6   1.869951 S    
N58   O20   1.300595 A    
N7    Ni4   1.873933 S    
C96   N80   1.456380 S    
C119  N39   1.157078 T    
C1    C49   1.370018 A    
C34   C98   1.552193 S    
N52   O7    1.299846 A    
C5    C53   1.362845 A    
N71   O45   1.300097 A    
C27   C58   1.381887 A    
C7    C55   1.369468 A    
C25   C60   1.364323 A    
C42   C106  1.559422 S    
C26   C59   1.377200 A    
C75   C85   1.532593 S    
C10   H10   1.075336 S    
N32   Ni7   1.874064 S    
C43   C93   1.538746 S    
C14   H14   1.078799 S    
C127  N47   1.156927 T    
N1    N12   1.392002 A    
C90   N74   1.462132 S    
C70   C92   1.534650 S    
C45   C109  1.540759 S    
C80   C105  1.547069 S    
C103  C119  1.469837 S    
C5    N5    1.322594 A    
C87   N71   1.457882 S    
N55   O13   1.299842 A    
C108  C124  1.467740 S    
C2    C50   1.377549 A    
C102  C118  1.470984 S    
N14   Ni2   1.869951 S    
N76   O56   1.299535 A    
C41   C60   1.436750 S    
N80   O64   1.299774 A    
N77   O58   1.300336 A    
C68   C94   1.523673 S    
C42   C59   1.445905 S    
C21   N21   1.326466 A    
C8    N8    1.322722 A    
C34   C65   1.545102 S    
C124  N44   1.157095 T    
C6    C54   1.370346 A    
C22   H22   1.073392 S    
C10   C51   1.374324 A    
N75   O53   1.297389 A    
N60   O23   1.300231 A    
N10   Ni1   1.878230 S    
C77   C108  1.551880 S    
C14   C55   1.380926 A    
N79   O61   1.299794 A    
C71   C111  1.527991 S    
C81   N65   1.455278 S    
C126  N46   1.157019 T    
N16   Ni3   1.874064 S    
N20   Ni8   1.872081 S    
C39   C103  1.552679 S    
C33   C79   1.537296 S    
C26   H26   1.080159 S    
C75   C110  1.528850 S    
C30   H30   1.080521 S    
C101  C117  1.468716 S    
C38   C102  1.551701 S    
C65   C95   1.522333 S    
C18   H18   1.076916 S    
C6    N6    1.322764 A    
N80   O63   1.299743 A    
N2    Ni2   1.869917 S    
C83   N67   1.458128 S    
N31   Ni8   1.874062 S    
C25   N25   1.327460 A    
C23   C63   1.377794 A    
C114  N34   1.157182 T    
N53   O10   1.300958 A    
C29   N29   1.330527 A    
C113  N33   1.157129 T    
C31   N31   1.335238 A    
N2    N11   1.392002 A    
C110  C126  1.473196 S    
C88   N72   1.460350 S    
C22   N22   1.322227 A    
N21   Ni6   1.878260 S    
C68   N52   1.460541 S    
N18   N27   1.392002 A    
C29   C64   1.370731 A    
N66   O35   1.300141 A    
C46   C110  1.557584 S    
C30   C63   1.382199 A    
C81   C97   1.545533 S    
C39   C50   1.444049 S    
C85   C101  1.543999 S    
C122  N42   1.156597 T    
C48   C87   1.532845 S    
N71   O46   1.300203 A    
C121  N41   1.157047 T    
C15   H15   1.078818 S    
C24   H24   1.080330 S    
C128  N48   1.157032 T    
C39   C72   1.544838 S    
C16   H16   1.081548 S    
N50   O4    1.299482 A    
C1    H1    1.081519 S    
C123  N43   1.156958 T    
C44   C108  1.543302 S    
C22   C62   1.370001 A    
N74   O51   1.298262 A    
N70   O44   1.300200 A    
C82   N66   1.457914 S    
C7    N7    1.322304 A    
N72   O47   1.300203 A    
C35   C99   1.551201 S    
C9    C52   1.369041 A    
C33   C97   1.545547 S    
C99   C115  1.471227 S    
C109  C125  1.467979 S    
C28   C57   1.363480 A    
C71   N55   1.459717 S    
N3    Ni3   1.872080 S    
C38   C76   1.540150 S    
C13   C56   1.371510 A    
C94   N78   1.459357 S    
C15   C54   1.382671 A    
C11   H11   1.075260 S    
N65   O33   1.300265 A    
N68   O40   1.300012 A    
C43   C84   1.548519 S    
C93   C100  1.547769 S    
C41   C82   1.533902 S    
C66   N50   1.461057 S    
C94   C99   1.527697 S    
C87   C103  1.539170 S    
N15   Ni4   1.874062 S    
C45   C64   1.431286 S    
C88   C104  1.552056 S    
C46   C63   1.441395 S    
C9    N9    1.325252 A    
C45   C86   1.536279 S    
C95   C98   1.530531 S    
C100  C116  1.469392 S    
C19   C59   1.386972 A    
C34   C51   1.446703 S    
C13   N13   1.327682 A    
N5    Ni2   1.878260 S    
C17   C57   1.367523 A    
C36   C53   1.431895 S    
C38   C55   1.441275 S    
N61   O26   1.300279 A    
C79   C106  1.532567 S    
N64   O32   1.300344 A    
C40   C49   1.436805 S    
N4    N9    1.391925 A    
C93   N77   1.456056 S    
C41   C95   1.541181 S    
N57   O18   1.300311 A    
C42   C96   1.539876 S    
N8    N13   1.391925 A    
C83   C99   1.536593 S    
C24   N24   1.324387 A    
C95   N79   1.460654 S    
N62   O27   1.299671 A    
C73   N57   1.457504 S    
C28   N28   1.326911 A    
C76   C86   1.538315 S    
N78   O59   1.299414 A    
C32   N32   1.330789 A    
C80   C82   1.543456 S    
C69   C91   1.525211 S    
N52   O8    1.301122 A    
N69   O42   1.299013 A    
C35   C68   1.544943 S    
N20   N25   1.391925 A    
N63   O29   1.299858 A    
C66   C106  1.529755 S    
C33   C66   1.537097 S    
N75   O54   1.298840 A    
N67   O38   1.300342 A    
N19   N26   1.391925 A    
N24   N29   1.391925 A    
C72   C90   1.523904 S    
C92   N76   1.456845 S    
C3    N3    1.328895 A    
N59   O21   1.300430 A    
N49   O2    1.300865 A    
C48   C90   1.541968 S    
C76   N60   1.457878 S    
C12   N12   1.324862 A    
C97   C113  1.469391 S    
N23   Ni8   1.873933 S    
C20   H20   1.081856 S    
C27   H27   1.079455 S    
C21   H21   1.079790 S    
C10   N10   1.323729 A    
N73   O50   1.298210 A    
C14   N14   1.328361 A    
C78   C84   1.533166 S    
C75   N59   1.460325 S    
C19   H19   1.080766 S    
C65   C105  1.538666 S    
N25   Ni6   1.878231 S    
N5    N16   1.392002 A    
C23   N23   1.327239 A    
C106  C122  1.472326 S    
C91   C102  1.527279 S    
N7    N14   1.391925 A    
