data_mof_unit_39625.cif
_audit_creation_date              2012-12-10T17:50:42-0500
_audit_creation_method            fapswitch 2.2
_symmetry_space_group_name_H-M    P1
_symmetry_Int_Tables_number       1
_space_group_crystal_system       triclinic
_cell_length_a                    14.758634
_cell_length_b                    14.769492
_cell_length_c                    15.8535
_cell_angle_alpha                 76.169328
_cell_angle_beta                  103.382507
_cell_angle_gamma                 115.406419
_cell_volume                      2998.08841509

loop_
_atom_site_label
_atom_site_type_symbol
_atom_type_description
_atom_site_fract_x
_atom_site_fract_y
_atom_site_fract_z
_atom_type_partial_charge
C1    C     C_R   0.879873 0.312096 0.516039 0.822810
C2    C     C_R   0.119866 0.687419 0.490800 0.826770
C3    C     C_R   0.785058 0.036681 0.619401 -0.207445
C4    C     C_R   0.221134 0.972584 0.457894 -0.205613
C5    C     C_R   0.850364 0.134522 0.589369 -0.273133
C6    C     C_R   0.155763 0.872047 0.455067 -0.283439
C7    C     C_R   0.705818 0.174765 0.514303 0.416166
C8    C     C_R   0.285018 0.818047 0.548080 0.416263
C9    C     C_R   0.638877 0.080509 0.555081 -0.024130
C10   C     C_R   0.358502 0.920151 0.539945 -0.026459
C11   C     C_R   0.679986 0.009382 0.602962 0.115376
C12   C     C_R   0.322369 0.997323 0.496825 0.106610
C13   C     C_R   0.532274 0.052983 0.545959 0.064230
C14   C     C_R   0.466010 0.949317 0.567774 0.070554
C15   C     C_R   0.511340 0.880372 0.612947 -0.210694
C16   C     C_R   0.490452 0.126728 0.518339 -0.162627
C17   C     C_R   0.615817 0.910928 0.632591 -0.240969
C18   C     C_R   0.387411 0.099247 0.492527 -0.231537
C19   C     C_R   0.710682 0.661337 0.347953 -0.338443
C20   C     C_R   0.299755 0.355202 0.661222 -0.347837
C21   C     C_R   0.793965 0.634488 0.372602 0.463488
C22   C     C_R   0.211762 0.373745 0.632333 0.464374
C23   C     C_R   0.000106 0.499893 0.660117 0.819202
C24   C     C_R   0.999932 0.500210 0.339833 0.822955
C25   C     C_R   0.716729 0.513474 0.490974 0.015924
C26   C     C_R   0.281656 0.485437 0.507329 -0.003138
C27   C     C_R   0.634413 0.545066 0.473631 -0.024598
C28   C     C_R   0.377013 0.476607 0.537589 -0.021021
C29   C     C_R   0.632171 0.618108 0.398332 0.068543
C30   C     C_R   0.382852 0.408133 0.615950 0.075642
C31   C     C_R   0.553343 0.505316 0.525576 -0.000330
C32   C     C_R   0.465255 0.530238 0.493329 -0.002115
C33   C     C_R   0.471521 0.610058 0.420233 0.232590
C34   C     C_R   0.558348 0.445242 0.610160 0.234785
C35   C     C_R   0.552897 0.650163 0.373598 -0.241522
C36   C     C_R   0.472381 0.394679 0.651444 -0.246328
C37   C     C_3   0.937777 0.408328 0.034913 -0.158641
C38   C     C_3   0.061907 0.592493 0.964546 -0.163082
C39   C     C_3   0.905323 0.478455 0.955902 -0.161705
C40   C     C_3   0.094361 0.522372 0.043543 -0.158653
C41   C     C_1   0.000489 0.499976 0.749962 -0.193763
C42   C     C_1   0.999587 0.500434 0.249839 -0.188610
C43   C     C_3   0.032618 0.430189 0.994636 -0.158271
C44   C     C_3   0.967068 0.570638 0.004832 -0.159105
C45   C     C_3   0.000173 0.500308 0.917184 0.198357
C46   C     C_3   0.999531 0.500512 0.082316 0.196462
C47   C     C_1   0.000488 0.500122 0.825548 -0.096491
C48   C     C_1   0.999444 0.500532 0.174117 -0.084641
C49   C     C_R   0.811610 0.204844 0.537977 -0.144458
C50   C     C_R   0.187953 0.794278 0.496970 -0.142903
Cu1   Cu    Cu3+1 0.081740 0.475690 0.522610 0.973502
Cu2   Cu    Cu3+1 0.918260 0.524310 0.477390 0.972017
H1    H     H_    0.827760 0.460462 0.918482 0.126301
H2    H     H_    0.171975 0.540434 0.080838 0.126059
H3    H     H_    0.265216 0.526972 0.444748 0.189194
H4    H     H_    0.718812 0.449704 0.539875 0.189547
H5    H     H_    0.707302 0.716473 0.289642 0.148710
H6    H     H_    0.304078 0.301322 0.720349 0.143372
H7    H     H_    0.886802 0.332718 0.065117 0.124343
H8    H     H_    0.112874 0.668073 0.934280 0.123155
H9    H     H_    0.940140 0.628284 0.010333 0.125616
H10   H     H_    0.059545 0.372578 0.989032 0.125142
H11   H     H_    0.646637 0.855589 0.668581 0.143400
H12   H     H_    0.358857 0.158440 0.466300 0.145593
H13   H     H_    0.079829 0.855180 0.420433 0.186461
H14   H     H_    0.931182 0.155053 0.606638 0.170553
H15   H     H_    0.816871 0.982805 0.657185 0.143723
H16   H     H_    0.193775 0.031496 0.425536 0.145520
H17   H     H_    0.470441 0.801933 0.635893 0.215448
H18   H     H_    0.536510 0.206826 0.516598 0.196968
H19   H     H_    0.555392 0.710166 0.317951 0.135837
H20   H     H_    0.477142 0.347106 0.714717 0.136444
N1    N     N_R   0.795440 0.560790 0.443380 -0.209754
N2    N     N_R   0.204560 0.439210 0.556620 -0.202331
O1    O     O_R   0.977900 0.338120 0.529810 -0.581628
O2    O     O_R   0.022100 0.661880 0.470190 -0.563975
O3    O     O_R   0.839850 0.379180 0.491620 -0.538985
O4    O     O_R   0.160150 0.620820 0.508380 -0.530511
O5    O     O_R   0.069010 0.479460 0.640020 -0.542042
O6    O     O_R   0.930990 0.520540 0.359980 -0.572621
O7    O     O_R   0.930960 0.520530 0.601820 -0.585190
O8    O     O_R   0.069040 0.479470 0.398180 -0.591937
N3    N     N_2   0.128425 0.321267 0.679956 -0.377895
H21   H     H_    0.094985 0.244930 0.675889 0.215426
C51   C     C_3   0.148637 0.338674 0.769891 -0.689485
H22   H     H_    0.196755 0.299368 0.811783 0.194299
H23   H     H_    0.075820 0.308261 0.796108 0.225079
H24   H     H_    0.187103 0.421232 0.773350 0.243317
N4    N     N_2   0.873870 0.678981 0.320750 -0.371333
H25   H     H_    0.859068 0.641146 0.269060 0.247640
C52   C     C_3   0.910880 0.787909 0.293152 -0.762534
H26   H     H_    0.860062 0.807386 0.234982 0.210129
H27   H     H_    0.987350 0.815776 0.274250 0.233996
H28   H     H_    0.916057 0.826736 0.347165 0.232062
N5    N     N_2   0.403134 0.659514 0.397158 -0.473120
H29   H     H_    0.390856 0.686413 0.330995 0.243276
C53   C     C_3   0.424626 0.734606 0.451026 -0.637215
H30   H     H_    0.365956 0.766797 0.430617 0.229569
H31   H     H_    0.500068 0.797159 0.443070 0.220263
H32   H     H_    0.423315 0.699154 0.521095 0.262487
N6    N     N_2   0.651402 0.442973 0.659552 -0.458001
H33   H     H_    0.644018 0.377259 0.703809 0.246091
C54   C     C_3   0.716320 0.533310 0.698123 -0.689741
H34   H     H_    0.789124 0.527324 0.730871 0.233454
H35   H     H_    0.679276 0.541531 0.747782 0.219279
H36   H     H_    0.733268 0.601922 0.646802 0.240027
O9    O     O_3   0.304897 0.740327 0.605738 -0.595978
C55   C     C_3   0.275181 0.731790 0.686670 -0.331474
H37   H     H_    0.192399 0.712497 0.679589 0.153060
H38   H     H_    0.319377 0.802563 0.715912 0.155824
H39   H     H_    0.290880 0.669131 0.733051 0.188226
O10   O     O_3   0.669173 0.235853 0.447912 -0.586399
C56   C     C_3   0.658562 0.205212 0.367256 -0.314325
H40   H     H_    0.603189 0.125209 0.365964 0.160309
H41   H     H_    0.732981 0.215095 0.353044 0.148444
H42   H     H_    0.628990 0.253990 0.314030 0.187912

loop_
_geom_bond_atom_site_label_1
_geom_bond_atom_site_label_2
_ccdc_geom_bond_type
N6    H33   S    
C27   C29   A    
C1    O3    A    
N5    H29   S    
Cu1   N2    S    
C26   H3    S    
C53   H30   S    
C20   C30   A    
C51   H22   S    
C19   H5    S    
C40   C46   S    
C19   C21   A    
Cu1   O1    S    
C56   H40   S    
C21   N1    A    
C24   C42   S    
C55   H37   S    
C15   C17   A    
C9    C13   A    
C38   C45   S    
C24   O8    A    
C2    C50   S    
C33   C35   A    
C24   O6    A    
C6    H13   S    
N3    H21   S    
O9    C55   S    
C25   H4    S    
N4    C52   S    
C25   N1    A    
C39   C45   S    
C56   H42   S    
C51   H23   S    
C35   H19   S    
N6    C54   S    
C13   C14   A    
C5    C49   A    
C33   N5    S    
O10   C56   S    
C53   H31   S    
C44   C46   S    
C45   C47   S    
C15   H17   S    
C46   C48   S    
C34   N6    S    
C27   C31   A    
Cu1   Cu2   S    
C1    O1    A    
C28   C32   A    
C16   H18   S    
C7    C49   A    
C4    C6    A    
Cu2   N1    S    
C10   C14   A    
C52   H26   S    
C4    H16   S    
C21   N4    S    
C3    C5    A    
C37   C43   S    
C38   C44   S    
C2    O4    A    
C52   H27   S    
C9    C11   A    
C31   C32   A    
C40   C43   S    
C41   C47   T    
C31   C34   A    
C54   H35   S    
C42   C48   T    
C6    C50   A    
C43   C45   S    
Cu1   O8    S    
C37   H7    S    
C10   C12   A    
C38   H8    S    
C16   C18   A    
N3    C51   S    
C20   C22   A    
C40   H2    S    
C4    C12   A    
C22   N2    A    
C20   H6    S    
Cu2   O3    S    
C19   C29   A    
C8    O9    S    
C8    C50   A    
C53   H32   S    
C2    O2    A    
C7    O10   S    
C51   H24   S    
C7    C9    A    
C11   C17   A    
C23   O7    A    
C3    H15   S    
C5    H14   S    
Cu2   O2    S    
N5    C53   S    
C39   C44   S    
C44   H9    S    
C25   C27   A    
C29   C35   A    
C26   C28   A    
C23   C41   S    
C55   H39   S    
C30   C36   A    
C32   C33   A    
C28   C30   A    
C37   C46   S    
Cu1   O4    S    
C37   C39   S    
C22   N3    S    
C52   H28   S    
C38   C40   S    
C18   H12   S    
C39   H1    S    
C26   N2    A    
C55   H38   S    
C54   H36   S    
C34   C36   A    
Cu2   O7    S    
Cu1   O5    S    
C3    C11   A    
C8    C10   A    
C13   C16   A    
C12   C18   A    
C54   H34   S    
C14   C15   A    
C23   O5    A    
N4    H25   S    
Cu2   O6    S    
C1    C49   S    
C17   H11   S    
C36   H20   S    
C43   H10   S    
C56   H41   S    
