data_mof_unit_18840.cif
_audit_creation_date              2012-12-10T17:44:36-0500
_audit_creation_method            fapswitch 2.2
_symmetry_space_group_name_H-M    P1
_symmetry_Int_Tables_number       1
_space_group_crystal_system       triclinic
_cell_length_a                    9.932325
_cell_length_b                    10.61992
_cell_length_c                    15.360242
_cell_angle_alpha                 91.519039
_cell_angle_beta                  67.552976
_cell_angle_gamma                 89.958159
_cell_volume                      1496.81824999

loop_
_atom_site_label
_atom_site_type_symbol
_atom_type_description
_atom_site_fract_x
_atom_site_fract_y
_atom_site_fract_z
_atom_type_partial_charge
C1    C     C_R   0.501355 0.739254 0.497565 0.854515
C2    C     C_R   0.748474 0.470687 0.024676 0.089382
C3    C     C_R   0.604671 0.433203 0.079496 0.094401
C4    C     C_R   0.408571 0.498846 0.676332 0.847773
C5    C     C_R   0.844065 0.506385 0.068404 -0.186008
C6    C     C_R   0.795347 0.512597 0.166360 -0.192697
C7    C     C_R   0.558065 0.441052 0.177614 -0.252469
C8    C     C_R   0.468775 0.862922 0.340101 -0.174166
C9    C     C_R   0.451408 0.925939 0.266480 -0.130428
C10   C     C_R   0.451607 0.056964 0.266451 -0.144427
C11   C     C_R   0.469140 0.125407 0.340059 -0.190440
C12   C     C_R   0.434451 0.431397 0.903453 0.098673
C13   C     C_R   0.485132 0.062937 0.415915 0.096470
C14   C     C_R   0.484937 0.930956 0.415957 0.096133
C15   C     C_R   0.505379 0.871368 0.491105 -0.089601
C16   C     C_R   0.501597 0.260624 0.497423 0.873315
C17   C     C_R   0.531577 0.938152 0.562037 -0.219314
C18   C     C_R   0.531824 0.066756 0.561966 -0.206807
C19   C     C_R   0.505780 0.128114 0.490987 -0.101874
C20   C     C_R   0.789552 0.668049 0.622229 -0.114538
C21   C     C_R   0.824159 0.747812 0.683780 -0.168689
C22   C     C_R   0.962443 0.744395 0.685442 -0.166075
C23   C     C_R   0.298729 0.374344 0.953034 0.179468
C24   C     C_R   0.067441 0.662057 0.624880 -0.151153
C25   C     C_R   0.036642 0.580767 0.561078 0.155040
C26   C     C_R   0.892607 0.582103 0.560383 0.193391
C27   C     C_R   0.962742 0.421516 0.442263 -0.137260
C28   C     C_R   0.591660 0.497166 0.323617 0.837002
C29   C     C_R   0.105826 0.421826 0.442066 -0.105820
C30   C     C_R   0.354304 0.475624 0.776971 -0.081296
C31   C     C_R   0.650590 0.483607 0.221000 -0.064036
C32   C     C_R   0.193754 0.365480 0.912497 -0.235069
C33   C     C_R   0.223567 0.412640 0.823092 -0.207322
C34   C     C_R   0.546379 0.429440 0.939375 -0.081837
C35   C     C_R   0.451564 0.493843 0.821425 -0.237611
C36   C     C_3   0.764119 0.334830 0.745679 0.089305
C37   C     C_3   0.919192 0.284128 0.720553 -0.372483
C38   C     C_3   0.945443 0.161589 0.661980 -0.925322
C39   C     C_R   0.507251 0.400965 0.035297 0.014370
C40   C     C_R   0.370903 0.344189 0.084109 -0.205758
C41   C     C_R   0.270130 0.327746 0.042145 -0.240112
C42   C     C_R   0.695958 0.453400 0.883556 0.463821
C43   C     C_R   0.793937 0.475083 0.927178 -0.322823
H1    H     H_    0.167489 0.282715 0.080944 0.146091
H2    H     H_    0.680975 0.676845 0.625762 0.182741
H3    H     H_    0.742764 0.812459 0.730720 0.130231
H4    H     H_    0.446780 0.421182 0.221810 0.149040
H5    H     H_    0.988789 0.806188 0.733747 0.141679
H6    H     H_    0.171337 0.664332 0.630033 0.198823
H7    H     H_    0.187417 0.357872 0.394649 0.141395
H8    H     H_    0.869010 0.543958 0.199163 0.158084
H9    H     H_    0.905189 0.499385 0.884378 0.169616
H10   H     H_    0.091229 0.318737 0.948482 0.144938
H11   H     H_    0.147542 0.396616 0.789037 0.152912
H12   H     H_    0.954669 0.533912 0.026975 0.149821
H13   H     H_    0.542899 0.554975 0.789258 0.200349
H14   H     H_    0.341448 0.307934 0.153877 0.132186
H15   H     H_    0.743309 0.341555 0.679828 0.192429
H16   H     H_    0.683124 0.267007 0.790683 0.119904
H17   H     H_    0.998927 0.355122 0.679783 0.244345
H18   H     H_    0.937126 0.266732 0.786340 0.207954
H19   H     H_    0.867943 0.088465 0.701624 0.255472
H20   H     H_    0.058289 0.127044 0.645643 0.272025
H21   H     H_    0.931809 0.177491 0.594590 0.268596
H22   H     H_    0.548733 0.890454 0.618601 0.133718
H23   H     H_    0.471718 0.761173 0.335994 0.152966
H24   H     H_    0.439333 0.872888 0.208786 0.140243
H25   H     H_    0.439769 0.105716 0.208728 0.133532
H26   H     H_    0.472384 0.226868 0.335945 0.138015
H27   H     H_    0.549205 0.118832 0.618452 0.146953
H28   H     H_    0.937101 0.357359 0.395047 0.147429
N1    N     N_R   0.856800 0.501200 0.500850 -0.124366
N2    N     N_R   0.142390 0.501280 0.500880 -0.121623
O1    O     O_R   0.385310 0.683220 0.500000 -0.631865
O2    O     O_R   0.614640 0.683250 0.500010 -0.627135
O3    O     O_R   0.319840 0.499980 0.632240 -0.630656
O4    O     O_R   0.549160 0.500000 0.632250 -0.628999
O5    O     O_R   0.385360 0.316750 0.499990 -0.612962
O6    O     O_R   0.614690 0.316780 0.500000 -0.613516
O7    O     O_R   0.450840 0.500000 0.367750 -0.622302
O8    O     O_R   0.680160 0.500020 0.367760 -0.605013
O9    O     O_3   0.750148 0.457849 0.786217 -0.656609
Zn1   Zn    Zn3+2 0.346880 0.499980 0.499990 0.919006
Zn2   Zn    Zn3+2 0.653120 0.500020 0.500010 0.926928

loop_
_geom_bond_atom_site_label_1
_geom_bond_atom_site_label_2
_ccdc_geom_bond_type
C18   H27   S    
C22   H5    S    
C8    H23   S    
C27   C29   A    
C26   N1    A    
C34   C42   A    
O1    Zn1   S    
C36   H16   S    
C12   C23   A    
C30   C35   A    
C1    O1    A    
C36   C37   S    
C38   H20   S    
C3    C7    A    
O6    Zn2   S    
C43   H9    S    
C29   N2    A    
C33   H11   S    
C18   C19   A    
O5    Zn1   S    
C36   O9    S    
C8    C9    A    
C42   O9    S    
C1    C15   S    
C6    H8    S    
C9    C10   A    
C25   N2    A    
C20   H2    S    
C6    C31   A    
C35   H13   S    
C3    C39   A    
C13   C14   A    
O7    Zn1   S    
C28   O7    A    
O3    Zn1   S    
C38   H21   S    
C29   H7    S    
C7    C31   A    
C13   C19   A    
C34   C39   A    
C1    O2    A    
C24   C25   A    
C39   C40   A    
O4    Zn2   S    
C25   C26   A    
C7    H4    S    
C9    H24   S    
C37   C38   S    
C2    C43   A    
C17   C18   A    
C12   C35   A    
N1    Zn2   S    
C40   C41   A    
C41   H1    S    
C22   C24   A    
C2    C5    A    
C42   C43   A    
C12   C34   A    
C32   H10   S    
O8    Zn2   S    
C27   H28   S    
C21   H3    S    
C24   H6    S    
C15   C17   A    
C8    C14   A    
C40   H14   S    
C30   C33   A    
C28   O8    A    
C17   H22   S    
C5    H12   S    
C28   C31   S    
C37   H18   S    
C11   H26   S    
C10   H25   S    
C36   H15   S    
C23   C41   A    
C16   O6    A    
C23   C32   A    
C2    C3    A    
C4    O4    A    
C32   C33   A    
C11   C13   A    
C5    C6    A    
C20   C26   A    
C16   C19   S    
C16   O5    A    
O2    Zn2   S    
C4    O3    A    
C37   H17   S    
C10   C11   A    
C20   C21   A    
C14   C15   A    
C21   C22   A    
N2    Zn1   S    
C4    C30   S    
C27   N1    A    
C38   H19   S    
