data_mof_unit_32287.cif
_audit_creation_date              2012-12-10T20:51:44-0500
_audit_creation_method            fapswitch 2.2
_symmetry_space_group_name_H-M    P1
_symmetry_Int_Tables_number       1
_space_group_crystal_system       triclinic
_cell_length_a                    8.106305
_cell_length_b                    8.928867
_cell_length_c                    16.873656
_cell_angle_alpha                 89.542188
_cell_angle_beta                  94.918999
_cell_angle_gamma                 90.011382
_cell_volume                      1216.78003174

loop_
_atom_site_label
_atom_site_type_symbol
_atom_type_description
_atom_site_fract_x
_atom_site_fract_y
_atom_site_fract_z
_atom_type_partial_charge
C1    C     C_R   0.499964 0.217991 0.499998 0.941401
C2    C     C_R   0.553730 0.587265 0.134552 -0.202687
C3    C     C_R   0.557615 0.483319 0.903964 0.288766
C4    C     C_R   0.440200 0.487539 0.095998 0.289602
C5    C     C_R   0.662543 0.397132 0.861864 -0.189998
C6    C     C_R   0.331015 0.406516 0.138877 -0.191242
C7    C     C_R   0.651507 0.406716 0.779585 -0.265538
C8    C     C_R   0.343000 0.416086 0.221061 -0.265724
C9    C     C_1   0.499959 0.065184 0.499928 -0.197188
C10   C     C_1   0.500010 0.934797 0.499886 -0.202420
C11   C     C_3   0.683524 0.716983 0.254895 -0.410906
C12   C     C_R   0.500017 0.781994 0.499904 0.924105
C13   C     C_3   0.589112 0.849244 0.285874 -0.833309
C14   C     C_3   0.327997 0.722372 0.742820 -0.412867
C15   C     C_3   0.430293 0.851140 0.712616 -0.837394
C16   C     C_R   0.521855 0.502035 0.653467 0.873024
C17   C     C_R   0.478150 0.505670 0.346474 0.872478
C18   C     C_R   0.537312 0.504774 0.739387 -0.043722
C19   C     C_R   0.462496 0.509126 0.260451 -0.044896
C20   C     C_R   0.438617 0.600847 0.782009 0.133032
C21   C     C_R   0.565869 0.600540 0.216902 0.132910
C22   C     C_R   0.449607 0.587684 0.864440 -0.201158
H1    H     H_    0.630779 0.656383 0.099643 0.145461
H2    H     H_    0.767835 0.667204 0.303156 0.234735
H3    H     H_    0.765767 0.761760 0.210851 0.199688
H4    H     H_    0.504105 0.904657 0.763217 0.256628
H5    H     H_    0.515700 0.810753 0.669529 0.245815
H6    H     H_    0.346566 0.936515 0.682611 0.252223
H7    H     H_    0.243425 0.676809 0.693837 0.234931
H8    H     H_    0.246008 0.769579 0.785941 0.200625
H9    H     H_    0.376234 0.660588 0.898621 0.145736
H10   H     H_    0.749274 0.319838 0.892708 0.149505
H11   H     H_    0.240183 0.332951 0.108738 0.149815
H12   H     H_    0.729217 0.334851 0.747060 0.165185
H13   H     H_    0.261739 0.347824 0.254157 0.166957
H14   H     H_    0.515018 0.905859 0.235888 0.255981
H15   H     H_    0.504805 0.811880 0.330445 0.244829
H16   H     H_    0.678125 0.931182 0.314370 0.252054
N1    N     N_1   0.073640 0.500030 0.499990 -0.039173
N2    N     N_1   0.926360 0.499970 0.500010 -0.038980
N3    N     N_2   0.568089 0.471486 0.987060 -0.197033
N4    N     N_2   0.428981 0.475307 0.013027 -0.197077
O1    O     O_R   0.636850 0.285340 0.500000 -0.613641
O2    O     O_R   0.363150 0.714660 0.500000 -0.612043
O3    O     O_R   0.363100 0.285350 0.500000 -0.613811
O4    O     O_R   0.636900 0.714650 0.500000 -0.612468
O5    O     O_R   0.652140 0.498630 0.616140 -0.620748
O6    O     O_R   0.347860 0.501370 0.383860 -0.621730
O7    O     O_R   0.378390 0.498650 0.616130 -0.623401
O8    O     O_R   0.621610 0.501350 0.383870 -0.622898
Zn1   Zn    Zn3+2 0.682780 0.499990 0.500010 0.978468
Zn2   Zn    Zn3+2 0.317220 0.500010 0.499990 0.978097

loop_
_geom_bond_atom_site_label_1
_geom_bond_atom_site_label_2
_ccdc_geom_bond_type
C17   O8    A    
C2    C4    A    
C17   O6    A    
O2    Zn2   S    
N2    Zn1   S    
C1    O1    A    
C9    C10   T    
C13   H15   S    
C6    H11   S    
C3    C5    A    
C7    C18   A    
O1    Zn1   S    
O7    Zn2   S    
C2    C21   A    
N1    Zn2   S    
C13   H16   S    
C12   O2    A    
C11   C13   S    
C1    O3    A    
C15   H6    S    
C4    N4    S    
C14   H8    S    
C10   C12   S    
C16   O5    A    
C12   O4    A    
C17   C19   S    
C20   C22   A    
O8    Zn1   S    
C18   C20   A    
C7    H12   S    
C8    C19   A    
C22   H9    S    
C11   H3    S    
C14   H7    S    
N1    N2    T    
C14   C20   S    
C11   H2    S    
O6    Zn2   S    
C1    C9    S    
C16   O7    A    
C13   H14   S    
C16   C18   S    
C4    C6    A    
N3    N4    D    
C2    H1    S    
C5    C7    A    
C14   C15   S    
C3    N3    S    
C3    C22   A    
C6    C8    A    
O3    Zn2   S    
C19   C21   A    
C15   H5    S    
O4    Zn1   S    
C11   C21   S    
C5    H10   S    
O5    Zn1   S    
C15   H4    S    
C8    H13   S    
