data_mof_unit_64686.cif
_audit_creation_date              2012-12-10T20:07:06-0500
_audit_creation_method            fapswitch 2.2
_symmetry_space_group_name_H-M    P1
_symmetry_Int_Tables_number       1
_space_group_crystal_system       triclinic
_cell_length_a                    19.281482
_cell_length_b                    18.433391
_cell_length_c                    10.692239
_cell_angle_alpha                 86.674004
_cell_angle_beta                  90.830651
_cell_angle_gamma                 89.566227
_cell_volume                      3793.33412554

loop_
_atom_site_label
_atom_site_type_symbol
_atom_type_description
_atom_site_fract_x
_atom_site_fract_y
_atom_site_fract_z
_atom_type_partial_charge
C1    C     C_R   0.365950 0.500220 0.500371 0.932107
C2    C     C_R   0.928015 0.499025 0.496160 0.131572
C3    C     C_R   0.544766 0.723016 0.576993 0.055807
C4    C     C_R   0.455231 0.276985 0.423011 0.055727
C5    C     C_R   0.455078 0.728810 0.423182 0.008500
C6    C     C_R   0.544928 0.271188 0.576799 0.008523
C7    C     C_R   0.545591 0.799000 0.578452 -0.274177
C8    C     C_R   0.454409 0.201001 0.421543 -0.274191
C9    C     C_R   0.454187 0.804921 0.421591 -0.270814
C10   C     C_R   0.545819 0.195077 0.578385 -0.270760
C11   C     C_R   0.499907 0.841343 0.499947 0.116768
C12   C     C_R   0.634052 0.499780 0.499611 0.931951
C13   C     C_R   0.500096 0.158657 0.500035 0.116742
C14   C     C_R   0.437651 0.962923 0.486660 -0.180105
C15   C     C_R   0.562352 0.037076 0.513315 -0.180092
C16   C     C_R   0.562302 0.960965 0.513215 -0.175345
C17   C     C_R   0.437701 0.039034 0.486760 -0.175359
C18   C     C_R   0.500053 0.077317 0.500080 0.121053
C19   C     C_R   0.499950 0.922683 0.499897 0.121050
C20   C     C_R   0.505008 0.502703 0.259339 0.924039
C21   C     C_R   0.495026 0.497297 0.740673 0.923839
C22   C     C_R   0.465951 0.635957 0.095345 -0.106075
C23   C     C_R   0.708710 0.499289 0.498004 -0.128459
C24   C     C_R   0.534305 0.364104 0.904644 -0.106220
C25   C     C_R   0.411395 0.600654 0.865663 -0.094557
C26   C     C_R   0.588735 0.399388 0.134427 -0.094845
C27   C     C_R   0.423310 0.685515 0.026547 -0.142092
C28   C     C_R   0.576954 0.314567 0.973467 -0.141905
C29   C     C_R   0.393847 0.666709 0.913903 -0.111391
C30   C     C_R   0.606349 0.333362 0.086170 -0.111414
C31   C     C_R   0.458573 0.552033 0.930670 0.071302
C32   C     C_R   0.541565 0.447994 0.069376 0.071269
C33   C     C_R   0.479747 0.565794 0.052425 0.099030
C34   C     C_R   0.291289 0.500702 0.501658 -0.128356
C35   C     C_R   0.520429 0.434242 0.947590 0.098901
C36   C     C_R   0.485948 0.490908 0.874939 -0.202635
C37   C     C_R   0.514169 0.509107 0.125096 -0.202620
C38   C     C_R   0.743336 0.533464 0.396104 0.110160
C39   C     C_R   0.253938 0.534892 0.400668 0.122579
C40   C     C_R   0.256539 0.466688 0.603527 0.110004
C41   C     C_R   0.746185 0.464814 0.598585 0.122685
C42   C     C_R   0.815290 0.532802 0.395566 -0.177808
C43   C     C_R   0.182109 0.535006 0.402039 -0.181242
C44   C     C_R   0.184579 0.467217 0.603621 -0.177696
C45   C     C_R   0.962984 0.564142 0.468379 -0.173071
C46   C     C_R   0.818005 0.464581 0.596779 -0.181296
C47   C     C_R   0.852628 0.498490 0.495694 0.027447
C48   C     C_R   0.147367 0.501245 0.503083 0.027298
C49   C     C_R   0.037027 0.435540 0.529989 -0.173074
C50   C     C_R   0.034830 0.564955 0.471431 -0.176621
C51   C     C_R   0.965179 0.434715 0.526884 -0.176672
C52   C     C_R   0.071988 0.500658 0.502251 0.131464
H1    H     H_    0.641139 0.295929 0.138050 0.141223
H2    H     H_    0.153329 0.560165 0.323027 0.165390
H3    H     H_    0.157665 0.441756 0.682613 0.165531
H4    H     H_    0.846873 0.439225 0.675512 0.165330
H5    H     H_    0.934700 0.614367 0.446267 0.143507
H6    H     H_    0.065322 0.385334 0.552198 0.143555
H7    H     H_    0.061426 0.615734 0.451039 0.142278
H8    H     H_    0.938589 0.383925 0.547282 0.142214
H9    H     H_    0.579835 0.690725 0.637788 0.139722
H10   H     H_    0.420159 0.309277 0.362225 0.139758
H11   H     H_    0.419903 0.701081 0.362736 0.145030
H12   H     H_    0.359057 0.704154 0.862050 0.141206
H13   H     H_    0.580110 0.298915 0.637232 0.145080
H14   H     H_    0.581055 0.824249 0.641848 0.140288
H15   H     H_    0.418942 0.175754 0.358149 0.140290
H16   H     H_    0.418647 0.834929 0.358241 0.138887
H17   H     H_    0.581363 0.165068 0.641723 0.138914
H18   H     H_    0.388486 0.935508 0.478354 0.135412
H19   H     H_    0.611518 0.064491 0.521621 0.135426
H20   H     H_    0.611436 0.932151 0.521466 0.137138
H21   H     H_    0.388567 0.067848 0.478510 0.137119
H22   H     H_    0.587674 0.261745 0.938484 0.139910
H23   H     H_    0.412642 0.738356 0.061512 0.139850
H24   H     H_    0.489932 0.655697 0.178118 0.173597
H25   H     H_    0.510378 0.344350 0.821841 0.173499
H26   H     H_    0.388209 0.587902 0.776807 0.152776
H27   H     H_    0.611870 0.412135 0.223328 0.152680
H28   H     H_    0.842096 0.558392 0.316540 0.165478
I1    I     I_    0.690630 0.584505 0.238266 -0.390929
I2    I     I_    0.301983 0.583205 0.239714 -0.400460
I3    I     I_    0.309070 0.416069 0.761903 -0.390768
I4    I     I_    0.698350 0.416247 0.759586 -0.400868
N1    N     N_R   0.500000 0.689440 0.500000 -0.097945
N2    N     N_R   0.500000 0.310560 0.500000 -0.097977
O1    O     O_R   0.398180 0.560840 0.499970 -0.617861
O2    O     O_R   0.601820 0.439160 0.500030 -0.617858
O3    O     O_R   0.601820 0.560840 0.500030 -0.599917
O4    O     O_R   0.398180 0.439160 0.499970 -0.599946
O5    O     O_R   0.499990 0.560810 0.316770 -0.620960
O6    O     O_R   0.500010 0.439190 0.683230 -0.621015
O7    O     O_R   0.500010 0.560810 0.683230 -0.627144
O8    O     O_R   0.499990 0.439190 0.316770 -0.627084
Zn1   Zn    Zn3+2 0.500000 0.581210 0.500000 0.969358
Zn2   Zn    Zn3+2 0.500000 0.418790 0.500000 0.969359

loop_
_geom_bond_atom_site_label_1
_geom_bond_atom_site_label_2
_ccdc_geom_bond_type
C1    O1    A    
C15   C18   A    
O2    Zn2   S    
C26   C32   A    
C1    O4    A    
C27   C29   A    
C35   C36   A    
C40   I3    S    
C22   H24   S    
C4    C8    A    
C28   H22   S    
C16   H20   S    
C21   C36   S    
C7    C11   A    
C12   C23   S    
C45   H5    S    
C8    C13   A    
C13   C18   S    
C34   C40   A    
C50   H7    S    
C38   C42   A    
C3    C7    A    
C42   H28   S    
C3    N1    A    
C15   C16   A    
C4    H10   S    
O6    Zn2   S    
C5    H11   S    
C6    H13   S    
C49   C51   A    
O1    Zn1   S    
C50   C52   A    
C41   C46   A    
C31   C33   A    
C43   C48   A    
C5    N1    A    
C29   H12   S    
O7    Zn1   S    
C17   H21   S    
C14   H18   S    
C14   C17   A    
C27   H23   S    
C30   H1    S    
C1    C34   S    
C3    H9    S    
C2    C45   A    
C25   C29   A    
C20   O5    A    
C24   C35   A    
C12   O2    A    
C25   H26   S    
C32   C35   A    
C12   O3    A    
C39   C43   A    
C41   I4    S    
C33   C37   A    
C49   H6    S    
C34   C39   A    
O3    Zn1   S    
C5    C9    A    
C43   H2    S    
C40   C44   A    
C49   C52   A    
C11   C19   S    
C17   C18   A    
C32   C37   A    
O8    Zn2   S    
C9    C11   A    
N2    Zn2   S    
C26   C30   A    
C22   C27   A    
C38   I1    S    
C25   C31   A    
C22   C33   A    
C20   O8    A    
C46   C47   A    
C14   C19   A    
C24   C28   A    
C39   I2    S    
C10   C13   A    
C23   C41   A    
C6    C10   A    
O4    Zn2   S    
C2    C47   S    
C23   C38   A    
C15   H19   S    
C26   H27   S    
C6    N2    A    
C28   C30   A    
C9    H16   S    
C7    H14   S    
C20   C37   S    
N1    Zn1   S    
C44   H3    S    
C21   O7    A    
C45   C50   A    
C16   C19   A    
C42   C47   A    
C2    C51   A    
O5    Zn1   S    
C10   H17   S    
C24   H25   S    
C48   C52   S    
C4    N2    A    
C8    H15   S    
C46   H4    S    
C31   C36   A    
C51   H8    S    
C44   C48   A    
C21   O6    A    
