data_mof_unit_63064.cif
_audit_creation_date              2012-12-10T18:37:08-0500
_audit_creation_method            fapswitch 2.2
_symmetry_space_group_name_H-M    P1
_symmetry_Int_Tables_number       1
_space_group_crystal_system       triclinic
_cell_length_a                    25.555495
_cell_length_b                    25.550515
_cell_length_c                    25.552428
_cell_angle_alpha                 119.980965
_cell_angle_beta                  90.016678
_cell_angle_gamma                 120.001279
_cell_volume                      11799.2511662

loop_
_atom_site_label
_atom_site_type_symbol
_atom_type_description
_atom_site_fract_x
_atom_site_fract_y
_atom_site_fract_z
_atom_type_partial_charge
C1    C     C_R   0.599627 0.699281 0.599709 0.510259
C2    C     C_1   0.827363 0.500144 0.827097 0.006285
C3    C     C_3   0.293441 0.042359 0.323744 0.119999
C4    C     C_R   0.400364 0.300692 0.400301 0.508780
C5    C     C_3   0.305542 0.043156 0.226480 -0.261134
C6    C     C_3   0.262686 0.957242 0.183480 -0.204715
C7    C     C_1   0.139286 0.778505 0.139035 0.008001
C8    C     C_3   0.286110 0.073107 0.286759 0.028548
C9    C     C_3   0.249363 0.956076 0.280478 -0.234593
C10   C     C_3   0.212691 0.926781 0.213181 0.048627
C11   C     C_3   0.171153 0.957183 0.221651 0.130376
C12   C     C_1   0.860496 0.499963 0.860420 0.033826
C13   C     C_3   0.214864 0.043276 0.263362 -0.147216
C14   C     C_1   0.172376 0.845204 0.172371 -0.054655
C15   C     C_1   0.327126 0.154657 0.327353 -0.017257
C16   C     C_R   0.400280 0.499901 0.599591 0.507326
C17   C     C_1   0.360604 0.221355 0.360634 0.029448
C18   C     C_3   0.766833 0.579731 0.310055 -0.271685
C19   C     C_3   0.671266 0.458723 0.215456 0.130662
C20   C     C_3   0.714135 0.458688 0.171669 0.126146
C21   C     C_1   0.860698 0.500440 0.139272 0.065059
C22   C     C_3   0.712120 0.499274 0.285324 0.033957
C23   C     C_3   0.787488 0.547529 0.735039 -0.148887
C24   C     C_3   0.811130 0.580206 0.268614 -0.201198
C25   C     C_3   0.785137 0.499977 0.211988 0.053979
C26   C     C_3   0.784140 0.458144 0.240680 0.085374
C27   C     C_3   0.742782 0.460096 0.285446 -0.176457
C28   C     C_R   0.599710 0.500091 0.400407 0.509884
C29   C     C_1   0.826806 0.500383 0.172051 0.043486
C30   C     C_1   0.672238 0.499919 0.326976 -0.012856
C31   C     C_1   0.639285 0.500148 0.360690 0.028067
C32   C     C_3   0.784793 0.956556 0.734621 -0.188212
C33   C     C_3   0.693479 0.957733 0.771196 -0.251224
C34   C     C_3   0.713561 0.500938 0.714067 0.040915
C35   C     C_3   0.734953 0.043532 0.811963 -0.321000
C36   C     C_1   0.860521 0.221312 0.860167 0.057389
C37   C     C_3   0.713502 0.926722 0.711733 -0.013119
C38   C     C_3   0.827551 0.042483 0.781896 0.147181
C39   C     C_3   0.787414 0.073070 0.783731 0.080718
C40   C     C_R   0.400119 0.499961 0.400141 0.506837
C41   C     C_3   0.751570 0.041720 0.714329 0.184866
C42   C     C_3   0.707213 0.955475 0.672875 -0.184354
C43   C     C_1   0.827532 0.154643 0.825823 0.033158
C44   C     C_1   0.672636 0.845260 0.671851 -0.059077
C45   C     C_3   0.790188 0.569501 0.804341 -0.146789
C46   C     C_1   0.639269 0.778584 0.639003 0.013476
C47   C     C_3   0.271787 0.552854 0.324076 -0.282164
C48   C     C_3   0.228625 0.421959 0.235501 -0.206593
C49   C     C_3   0.190282 0.421953 0.188460 -0.221050
C50   C     C_1   0.140620 0.500918 0.139132 0.060126
C51   C     C_3   0.291243 0.500381 0.282376 0.011716
C52   C     C_R   0.599846 0.499942 0.599854 0.510347
C53   C     C_3   0.223304 0.546907 0.281342 -0.283737
C54   C     C_3   0.218755 0.502308 0.210353 0.015007
C55   C     C_3   0.289010 0.539713 0.208073 0.178791
C56   C     C_3   0.787238 0.500516 0.786600 0.042444
C57   C     C_3   0.329002 0.527299 0.242515 0.132934
C58   C     C_1   0.175724 0.501823 0.171497 0.014375
C59   C     C_1   0.329866 0.500643 0.325360 -0.017018
C60   C     C_1   0.361654 0.500692 0.360188 0.028887
C61   C     C_3   0.307742 0.580593 0.765039 0.128666
C62   C     C_3   0.292351 0.467715 0.748880 -0.201759
C63   C     C_3   0.249135 0.467020 0.791801 0.087686
C64   C     C_3   0.785245 0.478541 0.717812 -0.125845
C65   C     C_1   0.139127 0.499581 0.860540 0.011687
C66   C     C_3   0.286576 0.500150 0.713381 -0.003150
C67   C     C_3   0.715618 0.523015 0.782888 -0.123205
C68   C     C_3   0.263966 0.580206 0.807503 -0.144682
C69   C     C_3   0.213436 0.499978 0.786569 0.065505
C70   C     C_3   0.171991 0.452098 0.714877 0.088267
C71   C     C_3   0.215159 0.451178 0.672002 -0.165126
C72   C     C_1   0.172526 0.499700 0.827271 -0.051228
C73   C     C_1   0.327312 0.499948 0.672595 -0.023434
C74   C     C_1   0.360634 0.499885 0.639244 0.027997
C75   C     C_R   0.900417 0.500143 0.099716 0.512711
C76   C     C_3   0.711580 0.433469 0.697504 0.272619
C77   C     C_R   0.099442 0.499571 0.900143 0.518831
C78   C     C_3   0.714074 0.455018 0.765328 0.276501
C79   C     C_R   0.099777 0.699170 0.099420 0.513602
C80   C     C_R   0.900129 0.300591 0.900499 0.513055
C81   C     C_R   0.099702 0.499760 0.099752 0.517935
C82   C     C_R   0.900079 0.499907 0.900073 0.515329
C83   C     C_1   0.639492 0.500127 0.639687 0.024347
C84   C     C_1   0.672883 0.500426 0.673235 -0.000455
H1    H     H_    0.356693 0.063796 0.240947 0.118917
H2    H     H_    0.746289 0.608722 0.308764 0.150909
H3    H     H_    0.650604 0.488788 0.216982 0.191506
H4    H     H_    0.696335 0.400369 0.134178 0.143642
H5    H     H_    0.772777 0.489628 0.335299 0.145644
H6    H     H_    0.704848 0.402570 0.269242 0.147746
H7    H     H_    0.795669 0.611041 0.360835 0.138821
H8    H     H_    0.860247 0.608224 0.299092 0.176438
H9    H     H_    0.762333 0.399263 0.200375 0.114246
H10   H     H_    0.844406 0.057936 0.830953 0.100149
H11   H     H_    0.790128 0.932699 0.758961 0.091478
H12   H     H_    0.293341 0.936875 0.177973 0.115698
H13   H     H_    0.641989 0.935627 0.755920 0.144831
H14   H     H_    0.699342 0.939544 0.800944 0.139200
H15   H     H_    0.757342 0.066206 0.862281 0.123542
H16   H     H_    0.703631 0.062295 0.813269 0.129155
H17   H     H_    0.718528 0.930944 0.628403 0.182170
H18   H     H_    0.656597 0.936065 0.657154 0.107525
H19   H     H_    0.686610 0.540511 0.809174 0.129646
H20   H     H_    0.800924 0.938595 0.692390 0.176688
H21   H     H_    0.720365 0.061279 0.718872 0.110865
H22   H     H_    0.175379 0.519160 0.286297 0.143275
H23   H     H_    0.237959 0.936677 0.134777 0.181821
H24   H     H_    0.249892 0.538889 0.356834 0.145115
H25   H     H_    0.238871 0.380057 0.208356 0.198582
H26   H     H_    0.198799 0.405064 0.263089 0.118208
H27   H     H_    0.139295 0.393750 0.186173 0.109904
H28   H     H_    0.190845 0.389361 0.139452 0.214620
H29   H     H_    0.374787 0.582297 0.277227 0.086267
H30   H     H_    0.823502 0.626001 0.848870 0.135900
H31   H     H_    0.311838 0.600447 0.238978 0.092437
H32   H     H_    0.315183 0.611000 0.354580 0.125530
H33   H     H_    0.238624 0.603448 0.298115 0.132240
H34   H     H_    0.198939 0.065534 0.304692 0.094490
H35   H     H_    0.294024 0.615483 0.858612 0.144390
H36   H     H_    0.357512 0.612577 0.796724 0.171969
H37   H     H_    0.277901 0.410269 0.713486 0.105652
H38   H     H_    0.343295 0.500770 0.778393 0.176703
H39   H     H_    0.817525 0.586260 0.722414 0.133712
H40   H     H_    0.213009 0.408244 0.774226 0.116898
H41   H     H_    0.208812 0.469701 0.642800 0.180384
H42   H     H_    0.199763 0.393224 0.637142 0.089297
H43   H     H_    0.239595 0.605050 0.804640 0.171443
H44   H     H_    0.136384 0.393886 0.699028 0.113365
H45   H     H_    0.209902 0.063543 0.235192 0.172291
H46   H     H_    0.279205 0.934843 0.275858 0.118074
H47   H     H_    0.343977 0.060248 0.335623 0.171865
H48   H     H_    0.300798 0.063700 0.198517 0.147646
H49   H     H_    0.679759 0.331086 0.644338 0.340837
H50   H     H_    0.235546 0.049518 0.372951 0.326995
H51   H     H_    0.095277 0.881069 0.145175 0.331926
H52   H     H_    0.589792 0.366925 0.152604 0.363731
H53   H     H_    0.624205 0.457526 0.059026 0.390702
H54   H     H_    0.844557 0.453921 0.281625 0.326919
H55   H     H_    0.631534 0.385494 0.760900 0.342290
H56   H     H_    0.138154 0.939521 0.247048 0.104709
H57   H     H_    0.784740 0.072467 0.589271 0.375607
H58   H     H_    0.909371 0.060471 0.773818 0.322957
H59   H     H_    0.419775 0.480172 0.256001 0.350645
H60   H     H_    0.250042 0.430762 0.031414 0.378247
H61   H     H_    0.258979 0.487947 0.876998 0.344613
H62   H     H_    0.099663 0.459412 0.717172 0.336141
H63   H     H_    0.264859 0.594880 0.714873 0.355675
H64   H     H_    0.214638 0.934529 0.302739 0.135330
H65   H     H_    0.815834 0.613696 0.251013 0.180265
H66   H     H_    0.813337 0.459668 0.691065 0.126399
O1    O     O_3   0.500000 0.500000 0.500000 -0.448009
O2    O     O_R   0.960830 0.335840 0.918110 -0.523700
O3    O     O_R   0.082190 0.542890 0.125100 -0.541915
O4    O     O_R   0.625020 0.663960 0.582080 -0.535911
O5    O     O_R   0.874750 0.456980 0.917820 -0.512989
O6    O     O_R   0.082060 0.456790 0.039130 -0.521042
O7    O     O_R   0.960740 0.542810 0.917680 -0.540384
O8    O     O_R   0.081970 0.663760 0.038700 -0.531262
O9    O     O_R   0.874800 0.335990 0.918070 -0.538273
O10   O     O_R   0.961140 0.543090 0.125040 -0.539525
O11   O     O_R   0.081820 0.456620 0.917920 -0.523304
O12   O     O_R   0.418020 0.456930 0.581980 -0.537271
O13   O     O_R   0.418070 0.336020 0.461010 -0.523413
O14   O     O_R   0.417900 0.542920 0.581890 -0.526591
O15   O     O_R   0.539010 0.457110 0.375020 -0.520910
O16   O     O_R   0.417800 0.543010 0.460800 -0.540287
O17   O     O_R   0.625170 0.542960 0.582200 -0.538444
O18   O     O_R   0.417840 0.457080 0.374840 -0.519625
O19   O     O_R   0.539180 0.456950 0.582160 -0.525685
O20   O     O_3   0.669176 0.362261 0.641650 -0.672922
O21   O     O_3   0.282068 0.071620 0.382352 -0.680727
O22   O     O_3   0.135041 0.930399 0.161800 -0.697280
O23   O     O_R   0.625070 0.543050 0.461120 -0.539701
O24   O     O_3   0.620542 0.385673 0.191594 -0.713095
O25   O     O_2   0.720743 0.569705 0.173498 -0.296148
O26   O     O_2   0.745715 0.494140 0.086411 -0.263685
O27   O     O_3   0.627173 0.436123 0.081301 -0.507913
O28   O     O_3   0.846866 0.489926 0.274812 -0.706038
O29   O     O_3   0.676365 0.405796 0.780836 -0.661134
O30   O     O_2   0.852611 0.155586 0.716118 -0.246579
O31   O     O_2   0.833502 0.033855 0.646976 -0.232111
O32   O     O_3   0.755345 0.055044 0.610942 -0.526568
O33   O     O_3   0.881640 0.073842 0.765142 -0.609994
O34   O     O_R   0.538910 0.663940 0.581950 -0.531972
O35   O     O_2   0.299615 0.400848 0.129608 -0.188459
O36   O     O_2   0.409922 0.510516 0.176510 -0.204584
O37   O     O_3   0.374878 0.438796 0.227486 -0.508145
O38   O     O_2   0.272786 0.563276 0.119267 -0.299027
O39   O     O_2   0.361775 0.554712 0.131316 -0.186316
O40   O     O_3   0.246060 0.433080 0.070955 -0.482331
O41   O     O_3   0.287230 0.507703 0.855627 -0.688179
O42   O     O_3   0.139417 0.479910 0.706726 -0.708079
O43   O     O_3   0.309542 0.617189 0.737527 -0.689010
O44   O     O_R   0.418000 0.336080 0.374960 -0.533815
O45   O     O_3   0.999930 0.499860 0.999930 -0.452750
O46   O     O_R   0.874990 0.457140 0.039030 -0.519001
O47   O     O_R   0.081780 0.542610 0.917740 -0.533699
O48   O     O_R   0.082140 0.663870 0.124840 -0.532533
S1    S     S_3+6 0.704336 0.493143 0.128163 -0.019441
S2    S     S_3+6 0.802039 0.073608 0.672739 0.038874
S3    S     S_3+6 0.353203 0.468124 0.191327 0.066324
S4    S     S_3+6 0.293952 0.523647 0.131035 0.062419
Zn1   Zn    Zn3+2 0.469350 0.438540 0.530750 0.968204
Zn2   Zn    Zn3+2 0.469190 0.561400 0.530630 0.958634
Zn3   Zn    Zn3+2 0.469250 0.438630 0.407810 0.975465
Zn4   Zn    Zn3+2 0.592210 0.561430 0.530810 0.952704
Zn5   Zn    Zn3+2 0.030570 0.561190 0.969050 0.965290
Zn6   Zn    Zn3+2 0.030810 0.561360 0.092130 0.959551
Zn7   Zn    Zn3+2 0.030630 0.438350 0.969310 0.984096
Zn8   Zn    Zn3+2 0.907720 0.438560 0.969250 0.985209

loop_
_geom_bond_atom_site_label_1
_geom_bond_atom_site_label_2
_ccdc_geom_bond_type
C75   O10   A    
C48   H26   S    
O2    Zn7   S    
C21   C29   T    
C8    C13   S    
C23   C45   S    
C69   C72   S    
C77   O47   A    
C41   C42   S    
C19   C20   S    
O7    Zn5   S    
O1    Zn2   S    
C11   H56   S    
C2    C12   T    
C79   O8    A    
C13   H34   S    
C67   H19   S    
C39   C41   S    
C53   C54   S    
C16   O14   A    
C4    O44   A    
O13   Zn1   S    
C26   C27   S    
C18   H2    S    
C81   O6    A    
C41   H21   S    
O34   Zn2   S    
C18   H7    S    
C76   C78   S    
C33   H14   S    
C81   O3    A    
C19   H3    S    
C52   O17   A    
C30   C31   T    
C53   H33   S    
C1    C46   S    
O10   Zn6   S    
C20   C25   S    
C61   C66   S    
C49   C54   S    
C42   H18   S    
C56   C78   S    
C27   H6    S    
C15   C17   T    
H57   O32   S    
C73   C74   T    
O35   S3    D    
C37   C42   S    
O14   Zn2   S    
C82   O5    A    
C53   H22   S    
C7    C14   T    
O45   Zn6   S    
C63   C69   S    
C45   C56   S    
C48   H25   S    
C68   C69   S    
C45   C67   S    
C6    H23   S    
C56   C64   S    
C71   H42   S    
C27   H5    S    
O23   Zn4   S    
C51   C57   S    
C32   C38   S    
C9    C10   S    
C40   O16   A    
C47   C53   S    
O46   Zn8   S    
C75   O46   A    
C26   H9    S    
H58   O33   S    
C59   C60   T    
C79   O48   A    
H61   O41   S    
C61   H36   S    
C25   C29   S    
H62   O42   S    
C1    O4    A    
C67   C78   S    
C34   C84   S    
C41   S2    S    
C35   H15   S    
H60   O40   S    
C24   H8    S    
C1    O34   A    
C44   C46   T    
C63   H40   S    
C26   O28   S    
C77   O11   A    
C47   H32   S    
H52   O24   S    
C48   C51   S    
C65   C77   S    
C62   C66   S    
C70   O42   S    
C78   O29   S    
C50   C58   T    
O17   Zn4   S    
C18   C24   S    
C19   C22   S    
O32   S2    S    
C24   C25   S    
O45   Zn8   S    
C3    C8    S    
C36   C80   S    
C82   O7    A    
O40   S4    S    
C80   O9    A    
C47   C51   S    
C5    H48   S    
C16   O12   A    
C25   C26   S    
C45   H30   S    
C66   C73   S    
O48   Zn6   S    
C33   C37   S    
C38   O33   S    
O36   S3    D    
C64   H66   S    
C38   C39   S    
C34   C67   S    
C52   C83   S    
C35   C39   S    
H49   O20   S    
C28   C31   S    
C20   S1    S    
C62   C63   S    
C3    C9    S    
O19   Zn1   S    
O3    Zn6   S    
C83   C84   T    
C55   S4    S    
C23   C34   S    
C38   H10   S    
C32   H20   S    
C64   C76   S    
C4    O13   A    
C12   C82   S    
O16   Zn2   S    
C32   C37   S    
O1    Zn3   S    
C76   O20   S    
O9    Zn8   S    
C68   H43   S    
O25   S1    D    
O4    Zn4   S    
C28   O15   A    
C49   H28   S    
C4    C17   S    
C48   C49   S    
C8    C15   S    
C6    H12   S    
H50   O21   S    
C55   C57   S    
C10   C14   S    
O11   Zn7   S    
C3    H47   S    
O47   Zn5   S    
C51   C59   S    
O8    Zn5   S    
O26   S1    D    
C35   H16   S    
H54   O28   S    
C42   H17   S    
C61   O43   S    
C62   H38   S    
C70   C71   S    
C7    C79   S    
C54   C58   S    
C70   H44   S    
C80   O2    A    
O44   Zn3   S    
C23   H39   S    
C54   C55   S    
C23   C64   S    
C22   C30   S    
O6    Zn7   S    
C18   C22   S    
H59   O37   S    
O5    Zn8   S    
O1    Zn1   S    
H51   O22   S    
C52   O19   A    
C6    C10   S    
C5    C8    S    
C57   H29   S    
O45   Zn7   S    
C16   C74   S    
O39   S4    D    
C65   C72   T    
C21   C75   S    
C9    H64   S    
C49   H27   S    
O12   Zn1   S    
C22   C27   S    
C37   C44   S    
C19   O24   S    
C5    H1    S    
C24   H65   S    
C68   H35   S    
C2    C56   S    
C11   C13   S    
C61   C68   S    
C3    O21   S    
O37   S3    S    
C5    C6    S    
C55   H31   S    
C63   O41   S    
C20   H4    S    
O38   S4    D    
C33   C35   S    
H63   O43   S    
C33   H13   S    
C66   C71   S    
O1    Zn4   S    
C69   C70   S    
C28   O23   A    
C40   O18   A    
H55   O29   S    
C10   C11   S    
C9    H46   S    
C11   O22   S    
C32   H11   S    
H53   O27   S    
C39   C43   S    
O45   Zn5   S    
C47   H24   S    
O27   S1    S    
C57   S3    S    
C40   C60   S    
C13   H45   S    
O18   Zn3   S    
C71   H41   S    
C36   C43   T    
O30   S2    D    
O31   S2    D    
O15   Zn3   S    
C62   H37   S    
C50   C81   S    
C34   C76   S    
