data_mof_unit_53765.cif
_audit_creation_date              2012-10-26T21:02:36-0400
_audit_creation_method            fapswitch 2.2
_symmetry_space_group_name_H-M    P1
_symmetry_Int_Tables_number       1
_space_group_crystal_system       triclinic
_cell_length_a                    12.397328
_cell_length_b                    13.23851
_cell_length_c                    15.025556
_cell_angle_alpha                 76.471734
_cell_angle_beta                  101.515936
_cell_angle_gamma                 116.988789
_cell_volume                      2124.02192187

loop_
_atom_site_label
_atom_site_type_symbol
_atom_type_description
_atom_site_fract_x
_atom_site_fract_y
_atom_site_fract_z
_atom_type_partial_charge
C1    C     C_R   0.854755 0.287037 0.504596 0.528594
C2    C     C_R   0.916419 0.397140 0.822891 -0.013336
C3    C     C_R   0.997658 0.494546 0.768353 0.026934
C4    C     C_R   0.999036 0.498152 0.671030 0.540180
C5    C     C_R   0.082298 0.590554 0.806925 -0.130335
C6    C     C_R   0.268787 0.021378 0.374153 0.044605
C7    C     C_R   0.227905 0.836168 0.471496 -0.001818
C8    C     C_R   0.816134 0.081233 0.529556 -0.141311
C9    C     C_R   0.738459 0.965316 0.531007 -0.144185
C10   C     C_R   0.613921 0.930823 0.507207 -0.123178
C11   C     C_R   0.565052 0.012340 0.480490 0.043909
C12   C     C_R   0.098253 0.600478 0.088194 -0.011290
C13   C     C_R   0.646869 0.129723 0.461940 0.047688
C14   C     C_R   0.437453 0.980009 0.464571 0.041998
C15   C     C_R   0.394850 0.057710 0.403440 0.018727
C16   C     C_R   0.145091 0.713480 0.488182 0.558858
C17   C     C_R   0.479287 0.170214 0.374532 -0.110671
C18   C     C_R   0.602220 0.205850 0.404066 -0.114228
C19   C     C_R   0.350713 0.875578 0.509722 -0.005947
C20   C     C_R   0.187852 0.909848 0.406596 -0.125581
C21   C     C_R   0.771697 0.165154 0.497599 -0.003011
C22   C     C_R   0.338552 0.313396 0.632848 -0.110791
C23   C     C_R   0.824517 0.323302 0.059983 -0.114241
C24   C     C_R   0.762388 0.649358 0.377104 0.062256
C25   C     C_R   0.669408 0.685598 0.352325 -0.141522
C26   C     C_R   0.566244 0.631216 0.399571 -0.122595
C27   C     C_R   0.554825 0.539177 0.472401 -0.005802
C28   C     C_R   0.002442 0.503710 0.329229 0.565245
C29   C     C_R   0.653264 0.505756 0.495348 0.151448
C30   C     C_R   0.449449 0.477857 0.522352 -0.037973
C31   C     C_R   0.444591 0.382386 0.590921 -0.013764
C32   C     C_R   0.543887 0.353837 0.614700 0.031558
C33   C     C_R   0.645816 0.415851 0.567891 -0.090722
C34   C     C_R   0.821900 0.318434 0.968477 -0.115620
C35   C     C_R   0.347017 0.504830 0.506512 0.022412
C36   C     C_R   0.240350 0.340631 0.613689 0.199956
C37   C     C_R   0.093214 0.604223 0.181267 0.055959
C38   C     C_R   0.006321 0.508611 0.232646 -0.021713
C39   C     C_R   0.919023 0.416107 0.192276 -0.145762
C40   C     C_R   0.916072 0.415143 0.099940 0.017827
C41   C     C_R   0.005257 0.506190 0.047284 0.022604
C42   C     C_2   0.164297 0.711194 0.221891 0.585210
C43   C     C_2   0.217321 0.092763 0.304886 0.563440
C44   C     C_3   0.380745 0.813935 0.604957 -0.241229
C45   C     C_R   0.912210 0.404881 0.914561 0.036776
C46   C     C_3   0.447480 0.894620 0.676207 -0.313441
C47   C     C_3   0.468687 0.828421 0.770731 -0.453371
C48   C     C_2   0.132197 0.256137 0.659977 0.590086
C49   C     C_2   0.544882 0.258409 0.688765 0.526318
C50   C     C_3   0.840970 0.284549 0.785775 -0.246150
C51   C     C_3   0.881362 0.189939 0.836824 -0.275694
C52   C     C_3   0.820549 0.084378 0.789206 -0.427766
C53   C     C_2   0.309150 0.769521 0.073207 0.603931
C54   C     C_R   0.001409 0.501611 0.953757 0.049207
C55   C     C_R   0.087439 0.593068 0.899807 -0.011965
C56   C     C_R   0.180246 0.684451 0.939635 -0.128677
C57   C     C_R   0.191349 0.686126 0.033862 0.075474
Cu1   Cu    Cu3+1 0.098270 0.475420 0.521130 1.019114
Cu2   Cu    Cu3+1 0.901730 0.524580 0.478870 0.932976
H1    H     H_    0.451730 0.233631 0.330770 0.168961
H2    H     H_    0.496657 0.662070 0.377366 0.135424
H3    H     H_    0.677411 0.756184 0.296343 0.122616
H4    H     H_    0.718825 0.391534 0.591307 0.193396
H5    H     H_    0.754629 0.254404 0.099854 0.130527
H6    H     H_    0.747592 0.246144 0.941202 0.139253
H7    H     H_    0.146337 0.662647 0.764454 0.096208
H8    H     H_    0.249385 0.751488 0.898075 0.134106
H9    H     H_    0.093024 0.878726 0.378155 0.159086
H10   H     H_    0.210402 0.880420 0.209729 0.352708
H11   H     H_    0.080886 0.142460 0.265466 0.346344
H12   H     H_    0.911559 0.105263 0.551687 0.180842
H13   H     H_    0.381327 0.759017 0.793432 0.156884
H14   H     H_    0.530927 0.789964 0.768129 0.165436
H15   H     H_    0.510672 0.887748 0.821977 0.159865
H16   H     H_    0.537431 0.959876 0.655609 0.196709
H17   H     H_    0.392035 0.939013 0.681651 0.197914
H18   H     H_    0.295443 0.749477 0.634326 0.155681
H19   H     H_    0.430290 0.763838 0.601287 0.146945
H20   H     H_    0.028862 0.088478 0.704821 0.326385
H21   H     H_    0.568733 0.113836 0.726087 0.322698
H22   H     H_    0.720710 0.044359 0.791849 0.146236
H23   H     H_    0.557711 0.840987 0.504226 0.115403
H24   H     H_    0.839640 0.108335 0.716293 0.179813
H25   H     H_    0.856115 0.020325 0.824796 0.153618
H26   H     H_    0.981621 0.223122 0.840914 0.227940
H27   H     H_    0.857769 0.162146 0.908645 0.157120
H28   H     H_    0.744463 0.256139 0.793238 0.177148
H29   H     H_    0.846107 0.295206 0.711100 0.178945
H30   H     H_    0.452704 0.796456 0.170849 0.339123
H31   H     H_    0.774718 0.901748 0.551733 0.139306
H32   H     H_    0.661507 0.291714 0.374717 0.154798
H33   H     H_    0.329939 0.235668 0.680639 0.184839
H34   H     H_    0.851931 0.344936 0.233242 0.109933
H35   H     H_    0.345206 0.577364 0.456617 0.153505
H36   H     H_    0.842382 0.692778 0.340436 0.139983
N1    N     N_R   0.246280 0.438190 0.553160 -0.261455
N2    N     N_R   0.754320 0.561190 0.447410 -0.242831
O1    O     O_R   0.972510 0.318130 0.526570 -0.478534
O2    O     O_R   0.158147 0.813453 0.175567 -0.675902
O3    O     O_2   0.266270 0.147446 0.234994 -0.510023
O4    O     O_R   0.108339 0.092193 0.317635 -0.693644
O5    O     O_2   0.078948 0.286831 0.699786 -0.515501
O6    O     O_R   0.098904 0.138742 0.666330 -0.732512
O7    O     O_2   0.525845 0.255001 0.766484 -0.523016
O8    O     O_R   0.570215 0.173655 0.669695 -0.734334
O9    O     O_2   0.352895 0.869761 0.035281 -0.492227
O10   O     O_R   0.373061 0.732051 0.151015 -0.683151
O11   O     O_R   0.806530 0.359650 0.490890 -0.535882
O12   O     O_R   0.082980 0.479210 0.647590 -0.449668
O13   O     O_R   0.917000 0.520730 0.611900 -0.527961
O14   O     O_R   0.193470 0.640350 0.509110 -0.501361
O15   O     O_R   0.027490 0.681870 0.473430 -0.509617
O16   O     O_R   0.083000 0.479270 0.388100 -0.469544
O17   O     O_R   0.917020 0.520790 0.352410 -0.515477
O18   O     O_2   0.227139 0.709744 0.295677 -0.512663

loop_
_geom_bond_atom_site_label_1
_geom_bond_atom_site_label_2
_ccdc_geom_bond_type
C4    O12   A    
C1    C21   S    
C27   C29   A    
Cu1   O12   S    
Cu1   O1    S    
C55   C56   A    
C51   H26   S    
C49   O7    D    
C46   H17   S    
H11   O4    S    
C35   N1    A    
C26   C27   A    
C37   C38   A    
C13   C18   A    
C18   H32   S    
C44   H18   S    
C26   H2    S    
C30   C31   A    
C11   C14   A    
C23   C40   A    
C29   C33   A    
C12   C37   A    
Cu2   O13   S    
C56   C57   A    
C34   H6    S    
C37   C42   S    
C52   H25   S    
C53   O10   S    
C39   H34   S    
Cu1   N1    S    
C2    C50   S    
C6    C15   A    
C46   C47   S    
C53   O9    D    
C8    C9    A    
Cu1   O16   S    
C9    C10   A    
C50   H29   S    
C27   C30   A    
H20   O6    S    
C5    C55   A    
C51   H27   S    
C46   H16   S    
C44   C46   S    
Cu2   O15   S    
C2    C45   A    
C41   C54   A    
C22   C31   A    
C51   C52   S    
C24   C25   A    
C47   H14   S    
C28   O16   A    
C24   H36   S    
C39   C40   A    
C53   C57   S    
C49   O8    S    
C1    O11   A    
C50   C51   S    
Cu1   Cu2   S    
C48   O6    S    
H21   O8    S    
C10   H23   S    
C24   N2    A    
C1    O1    A    
C52   H24   S    
C43   O4    S    
C12   C41   A    
C36   N1    A    
C31   C32   A    
C28   C38   S    
C33   H4    S    
C23   C34   A    
C48   O5    D    
H30   O10   S    
C17   C18   A    
C13   C21   A    
C34   C45   A    
C43   O3    D    
C28   O17   A    
C50   H28   S    
C12   C57   A    
H10   O2    S    
C40   C41   A    
C45   C54   A    
C7    C19   A    
C6    C43   S    
Cu2   N2    S    
C3    C4    S    
C22   C36   A    
C19   C44   S    
C16   O15   A    
C35   H35   S    
C15   C17   A    
C4    O13   A    
C54   C55   A    
C23   H5    S    
C8    H12   S    
C14   C19   A    
C20   H9    S    
C7    C16   S    
C47   H15   S    
C5    H7    S    
C3    C5    A    
C8    C21   A    
C9    H31   S    
Cu1   O14   S    
C56   H8    S    
C30   C35   A    
Cu2   O11   S    
C29   N2    A    
C32   C33   A    
C44   H19   S    
C2    C3    A    
C25   C26   A    
C42   O2    S    
C11   C13   A    
C38   C39   A    
C6    C20   A    
Cu2   O17   S    
C36   C48   S    
C25   H3    S    
C52   H22   S    
C32   C49   S    
C10   C11   A    
C17   H1    S    
C42   O18   D    
C47   H13   S    
C7    C20   A    
C22   H33   S    
C14   C15   A    
C16   O14   A    
