data_mof_unit_66307.cif
_audit_creation_date              2012-12-10T18:10:54-0500
_audit_creation_method            fapswitch 2.2
_symmetry_space_group_name_H-M    P1
_symmetry_Int_Tables_number       1
_space_group_crystal_system       triclinic
_cell_length_a                    21.716643
_cell_length_b                    21.716642
_cell_length_c                    35.52325
_cell_angle_alpha                 90.000048
_cell_angle_beta                  90.000068
_cell_angle_gamma                 90.0
_cell_volume                      16753.2109243

loop_
_atom_site_label
_atom_site_type_symbol
_atom_type_description
_atom_site_fract_x
_atom_site_fract_y
_atom_site_fract_z
_atom_type_partial_charge
C1    C     C_R   0.500000 0.880082 0.000000 0.960984
C2    C     C_1   0.000000 0.500000 0.733211 0.212039
C3    C     C_R   0.969282 0.452839 0.633770 0.411990
C4    C     C_R   0.547161 0.030718 0.366230 0.411990
C5    C     C_R   0.030718 0.452840 0.366230 0.411990
C6    C     C_R   0.452840 0.969282 0.366230 0.411990
C7    C     C_R   0.969282 0.547160 0.366230 0.411990
C8    C     C_R   0.050940 0.475907 0.133882 0.397494
C9    C     C_R   0.524093 0.050940 0.133882 0.397494
C10   C     C_R   0.949060 0.524093 0.133882 0.397495
C11   C     C_R   0.475907 0.949059 0.133882 0.397496
C12   C     C_R   0.050941 0.524093 0.866118 0.397495
C13   C     C_1   0.500000 1.000000 0.266789 0.212040
C14   C     C_R   0.524093 0.949060 0.866118 0.397495
C15   C     C_R   0.949060 0.475907 0.866118 0.397495
C16   C     C_R   0.475906 0.050940 0.866118 0.397494
C17   C     C_R   0.500000 1.000000 0.614311 -0.265130
C18   C     C_R   0.000000 0.500000 0.614311 -0.265130
C19   C     C_R   0.500000 1.000000 0.385689 -0.265131
C20   C     C_R   1.000000 0.500000 0.385689 -0.265130
C21   C     C_R   1.000000 0.500000 0.114348 -0.264100
C22   C     C_R   0.500000 1.000000 0.114348 -0.264100
C23   C     C_R   0.000000 0.500000 0.885652 -0.264101
C24   C     C_1   1.000000 0.500000 0.266789 0.212040
C25   C     C_R   0.500000 0.000000 0.885652 -0.264100
C26   C     C_R   0.500000 0.000000 0.692940 -0.178016
C27   C     C_R   0.000000 0.500000 0.692940 -0.178016
C28   C     C_R   0.500000 1.000000 0.307060 -0.178016
C29   C     C_R   1.000000 0.500000 0.307060 -0.178016
C30   C     C_R   1.000000 0.500000 0.192830 -0.181759
C31   C     C_R   0.500000 1.000000 0.192830 -0.181760
C32   C     C_R   0.000000 0.500000 0.807170 -0.181760
C33   C     C_R   0.500000 0.000000 0.807170 -0.181759
C34   C     C_2   0.581637 0.684308 0.050987 0.994215
C35   C     C_1   1.000000 0.500000 0.233118 0.202234
C36   C     C_2   0.315692 0.581637 0.050987 0.994215
C37   C     C_2   0.418363 0.315692 0.050987 0.994216
C38   C     C_2   0.684308 0.418363 0.050987 0.994216
C39   C     C_2   0.581637 0.315692 0.949013 0.994216
C40   C     C_2   0.315692 0.418363 0.949013 0.994216
C41   C     C_2   0.418363 0.684308 0.949013 0.994216
C42   C     C_2   0.684308 0.581637 0.949013 0.994215
C43   C     C_2   0.080578 0.184512 0.551592 0.995524
C44   C     C_2   0.815488 0.080578 0.551592 0.995523
C45   C     C_2   0.919422 0.815488 0.551592 0.995523
C46   C     C_1   0.500000 1.000000 0.233118 0.202234
C47   C     C_2   0.184512 0.919422 0.551592 0.995523
C48   C     C_2   0.080578 0.815488 0.448408 0.995524
C49   C     C_2   0.815488 0.919422 0.448408 0.995524
C50   C     C_2   0.919422 0.184512 0.448408 0.995524
C51   C     C_2   0.184512 0.080578 0.448408 0.995524
C52   C     C_2   0.604392 0.947537 0.693488 0.954690
C53   C     C_2   0.052464 0.604392 0.693488 0.954689
C54   C     C_2   0.395608 0.052464 0.693488 0.954690
C55   C     C_2   0.947537 0.395608 0.693488 0.954691
C56   C     C_2   0.604392 0.052463 0.306512 0.954690
C57   C     C_1   0.000000 0.500000 0.766881 0.202234
C58   C     C_2   0.052463 0.395608 0.306512 0.954691
C59   C     C_2   0.395608 0.947536 0.306512 0.954690
C60   C     C_2   0.947536 0.604392 0.306512 0.954691
C61   C     C_2   0.114305 0.475620 0.193381 1.031361
C62   C     C_2   0.524381 0.114305 0.193381 1.031360
C63   C     C_2   0.885695 0.524381 0.193381 1.031360
C64   C     C_2   0.475620 0.885695 0.193381 1.031360
C65   C     C_2   0.114305 0.524380 0.806619 1.031362
C66   C     C_2   0.524381 0.885695 0.806619 1.031362
C67   C     C_2   0.885695 0.475619 0.806618 1.031360
C68   C     C_1   0.500000 0.000000 0.766881 0.202235
C69   C     C_2   0.475619 0.114305 0.806619 1.031361
C70   C     C_3   0.582163 0.876130 0.613692 -0.181895
C71   C     C_3   0.123870 0.582163 0.613692 -0.181895
C72   C     C_3   0.417837 0.123870 0.613692 -0.181895
C73   C     C_3   0.876130 0.417836 0.613692 -0.181895
C74   C     C_3   0.582164 0.123869 0.386308 -0.181897
C75   C     C_3   0.123870 0.417837 0.386308 -0.181894
C76   C     C_3   0.417836 0.876130 0.386308 -0.181896
C77   C     C_3   0.876130 0.582163 0.386308 -0.181895
C78   C     C_3   0.094533 0.387773 0.112108 -0.151468
C79   C     C_R   0.539777 0.718090 0.024890 -0.084979
C80   C     C_3   0.612227 0.094533 0.112108 -0.151468
C81   C     C_3   0.905467 0.612227 0.112107 -0.151468
C82   C     C_3   0.387773 0.905467 0.112107 -0.151469
C83   C     C_3   0.094533 0.612227 0.887892 -0.151469
C84   C     C_3   0.612228 0.905467 0.887892 -0.151468
C85   C     C_3   0.905467 0.387773 0.887892 -0.151470
C86   C     C_3   0.387772 0.094533 0.887892 -0.151470
C87   C     C_2   0.580177 0.816237 0.051747 0.987743
C88   C     C_2   0.183763 0.580176 0.051747 0.987742
C89   C     C_2   0.419824 0.183763 0.051747 0.987742
C90   C     C_R   0.281910 0.539777 0.024889 -0.084979
C91   C     C_2   0.816237 0.419824 0.051747 0.987742
C92   C     C_2   0.580176 0.183763 0.948253 0.987741
C93   C     C_2   0.183763 0.419823 0.948253 0.987742
C94   C     C_2   0.419824 0.816237 0.948253 0.987742
C95   C     C_2   0.816237 0.580176 0.948253 0.987742
C96   C     C_2   0.076137 0.316659 0.553828 0.987259
C97   C     C_2   0.683341 0.076137 0.553828 0.987259
C98   C     C_2   0.923863 0.683341 0.553828 0.987259
C99   C     C_2   0.316659 0.923863 0.553828 0.987259
C100  C     C_2   0.076137 0.683341 0.446172 0.987258
C101  C     C_R   0.460223 0.281910 0.024889 -0.084979
C102  C     C_2   0.683341 0.923863 0.446172 0.987259
C103  C     C_2   0.923863 0.316659 0.446172 0.987260
C104  C     C_2   0.316659 0.076137 0.446172 0.987259
C105  C     C_R   0.119918 0.500000 1.000000 0.960984
C106  C     C_R   0.718090 0.460223 0.024890 -0.084979
C107  C     C_R   0.539777 0.281910 0.975110 -0.084979
C108  C     C_R   0.281910 0.460223 0.975110 -0.084979
C109  C     C_R   0.460223 0.718090 0.975110 -0.084978
C110  C     C_R   0.718090 0.539777 0.975110 -0.084978
C111  C     C_R   0.038890 0.218270 0.525411 -0.084777
C112  C     C_R   0.781730 0.038890 0.525411 -0.084777
C113  C     C_R   0.961110 0.781730 0.525411 -0.084777
C114  C     C_R   0.218270 0.961110 0.525411 -0.084777
C115  C     C_R   0.038890 0.781730 0.474589 -0.084777
C116  C     C_R   0.500000 0.119918 0.000000 0.960983
C117  C     C_R   0.781730 0.961110 0.474589 -0.084777
C118  C     C_R   0.961110 0.218270 0.474589 -0.084777
C119  C     C_R   0.218270 0.038890 0.474589 -0.084777
C120  C     C_R   0.379723 0.500000 1.000000 0.983325
C121  C     C_R   0.500000 0.379723 1.000000 0.983325
C122  C     C_R   0.620277 0.500000 0.000000 0.983325
C123  C     C_R   0.500000 0.620277 0.000000 0.983325
C124  C     C_R   0.879680 1.000000 0.500000 0.978893
C125  C     C_R   1.000000 0.879680 0.500000 0.978893
C126  C     C_R   0.120320 1.000000 0.500000 0.978893
C127  C     C_R   0.880082 0.500000 0.000000 0.960984
C128  C     C_R   1.000000 0.120320 0.500000 0.978892
C129  C     C_R   0.539244 0.782327 0.025185 -0.091468
C130  C     C_R   0.217673 0.539244 0.025185 -0.091468
C131  C     C_R   0.460756 0.217673 0.025185 -0.091468
C132  C     C_R   0.782327 0.460756 0.025185 -0.091468
C133  C     C_R   0.539244 0.217673 0.974815 -0.091468
C134  C     C_R   0.217673 0.460756 0.974815 -0.091468
C135  C     C_R   0.460756 0.782327 0.974815 -0.091469
C136  C     C_R   0.782327 0.539244 0.974815 -0.091469
C137  C     C_R   0.037719 0.282504 0.526020 -0.090876
C138  C     C_R   1.000000 0.380125 0.500000 0.958095
C139  C     C_R   0.717496 0.037719 0.526020 -0.090876
C140  C     C_R   0.962281 0.717496 0.526020 -0.090876
C141  C     C_R   0.282504 0.962281 0.526020 -0.090876
C142  C     C_R   0.037719 0.717496 0.473980 -0.090876
C143  C     C_R   0.717496 0.962281 0.473980 -0.090876
C144  C     C_R   0.962281 0.282504 0.473980 -0.090876
C145  C     C_R   0.282504 0.037719 0.473980 -0.090876
C146  C     C_R   0.500000 0.000000 0.926714 1.077275
C147  C     C_R   1.000000 0.500000 0.926714 1.077274
C148  C     C_R   0.500000 0.000000 0.073286 1.077276
C149  C     C_R   0.619875 0.000000 0.500000 0.958094
C150  C     C_R   1.000000 0.500000 0.073286 1.077276
C151  C     C_R   1.000000 0.500000 0.426727 1.084443
C152  C     C_R   0.500000 1.000000 0.426727 1.084442
C153  C     C_R   1.000000 0.500000 0.573273 1.084444
C154  C     C_R   0.500000 1.000000 0.573273 1.084444
C155  C     C_R   0.500000 0.686533 0.000000 -0.163242
C156  C     C_R   0.313466 0.500000 1.000000 -0.163242
C157  C     C_R   0.500000 0.313466 1.000000 -0.163242
C158  C     C_R   0.686533 0.500000 0.000000 -0.163242
C159  C     C_R   1.000000 0.186660 0.500000 -0.162154
C160  C     C_R   0.000000 0.619875 0.500000 0.958094
C161  C     C_R   0.813340 1.000000 0.500000 -0.162154
C162  C     C_R   1.000000 0.813340 0.500000 -0.162154
C163  C     C_R   0.186660 1.000000 0.500000 -0.162154
C164  C     C_R   0.500000 0.813845 0.000000 -0.188853
C165  C     C_R   0.186154 0.500000 1.000000 -0.188853
C166  C     C_R   0.500000 0.186154 1.000000 -0.188853
C167  C     C_R   0.813846 0.500000 0.000000 -0.188853
C168  C     C_R   1.000000 0.313948 0.500000 -0.182051
C169  C     C_R   0.686052 0.000000 0.500000 -0.182051
C170  C     C_R   1.000000 0.686052 0.500000 -0.182051
C171  C     C_R   0.380125 1.000000 0.500000 0.958095
C172  C     C_R   0.313948 1.000000 0.500000 -0.182051
C173  C     C_R   0.549541 0.972430 0.673323 -0.128535
C174  C     C_R   0.027570 0.549541 0.673323 -0.128535
C175  C     C_R   0.450459 0.027570 0.673323 -0.128536
C176  C     C_R   0.972430 0.450459 0.673323 -0.128536
C177  C     C_R   0.549541 0.027570 0.326677 -0.128535
C178  C     C_R   0.027570 0.450459 0.326677 -0.128536
C179  C     C_R   0.450459 0.972430 0.326677 -0.128536
C180  C     C_R   0.972429 0.549541 0.326677 -0.128536
C181  C     C_R   0.054172 0.483062 0.173251 -0.150910
C182  C     C_1   0.500000 0.000000 0.733211 0.212040
C183  C     C_R   0.516938 0.054172 0.173251 -0.150911
C184  C     C_R   0.945828 0.516938 0.173251 -0.150910
C185  C     C_R   0.483062 0.945828 0.173251 -0.150910
C186  C     C_R   0.054172 0.516938 0.826749 -0.150910
C187  C     C_R   0.516938 0.945828 0.826749 -0.150911
C188  C     C_R   0.945828 0.483062 0.826749 -0.150911
C189  C     C_R   0.483061 0.054172 0.826749 -0.150910
C190  C     C_R   0.547160 0.969282 0.633770 0.411989
C191  C     C_R   0.030718 0.547160 0.633770 0.411990
C192  C     C_R   0.452840 0.030718 0.633770 0.411991
H1    H     H_    0.609885 0.670629 0.104425 0.357674
H2    H     H_    0.830129 0.107693 0.605151 0.359297
H3    H     H_    0.892307 0.830129 0.605151 0.359298
H4    H     H_    0.169872 0.892307 0.605151 0.359298
H5    H     H_    0.107693 0.830128 0.394849 0.359297
H6    H     H_    0.830128 0.892307 0.394849 0.359297
H7    H     H_    0.892307 0.169871 0.394849 0.359297
H8    H     H_    0.169871 0.107693 0.394849 0.359297
H9    H     H_    0.638126 0.900671 0.738015 0.352394
H10   H     H_    0.099329 0.638126 0.738015 0.352393
H11   H     H_    0.361873 0.099329 0.738015 0.352394
H12   H     H_    0.329372 0.609885 0.104425 0.357674
H13   H     H_    0.900671 0.361874 0.738015 0.352393
H14   H     H_    0.638127 0.099329 0.261985 0.352394
H15   H     H_    0.099329 0.361874 0.261985 0.352393
H16   H     H_    0.361874 0.900671 0.261985 0.352393
H17   H     H_    0.900671 0.638126 0.261985 0.352393
H18   H     H_    0.169362 0.502607 0.236149 0.361587
H19   H     H_    0.497394 0.169362 0.236149 0.361587
H20   H     H_    0.830637 0.497394 0.236149 0.361586
H21   H     H_    0.502607 0.830637 0.236149 0.361586
H22   H     H_    0.169363 0.497393 0.763851 0.361586
H23   H     H_    0.390115 0.329372 0.104425 0.357673
H24   H     H_    0.497394 0.830637 0.763850 0.361586
H25   H     H_    0.830637 0.502606 0.763850 0.361586
H26   H     H_    0.502605 0.169363 0.763851 0.361586
H27   H     H_    0.590304 0.855939 0.641991 0.154917
H28   H     H_    0.614782 0.853918 0.593868 0.199056
H29   H     H_    0.534702 0.864799 0.604064 0.148585
H30   H     H_    0.144061 0.590304 0.641991 0.154918
H31   H     H_    0.146082 0.614782 0.593868 0.199056
H32   H     H_    0.135201 0.534702 0.604064 0.148585
H33   H     H_    0.409695 0.144061 0.641990 0.154918
H34   H     H_    0.670629 0.390116 0.104425 0.357674
H35   H     H_    0.385218 0.146082 0.593868 0.199056
H36   H     H_    0.465298 0.135201 0.604064 0.148585
H37   H     H_    0.855939 0.409695 0.641990 0.154917
H38   H     H_    0.853918 0.385218 0.593868 0.199056
H39   H     H_    0.864799 0.465298 0.604064 0.148585
H40   H     H_    0.590305 0.144060 0.358010 0.154918
H41   H     H_    0.614782 0.146082 0.406132 0.199056
H42   H     H_    0.534702 0.135201 0.395936 0.148586
H43   H     H_    0.144061 0.409696 0.358009 0.154918
H44   H     H_    0.146082 0.385218 0.406132 0.199056
H45   H     H_    0.609884 0.329371 0.895575 0.357674
H46   H     H_    0.135201 0.465299 0.395936 0.148585
H47   H     H_    0.409695 0.855939 0.358009 0.154918
H48   H     H_    0.385218 0.853918 0.406132 0.199056
H49   H     H_    0.465298 0.864799 0.395936 0.148585
H50   H     H_    0.855939 0.590304 0.358009 0.154918
H51   H     H_    0.853918 0.614781 0.406132 0.199056
H52   H     H_    0.864799 0.534702 0.395936 0.148585
H53   H     H_    0.095149 0.366355 0.140532 0.168964
H54   H     H_    0.134142 0.369051 0.096054 0.199076
H55   H     H_    0.051809 0.373540 0.097307 0.147677
H56   H     H_    0.329371 0.390115 0.895575 0.357674
H57   H     H_    0.633645 0.095150 0.140532 0.168965
H58   H     H_    0.630949 0.134142 0.096053 0.199075
H59   H     H_    0.626459 0.051809 0.097307 0.147676
H60   H     H_    0.904850 0.633645 0.140532 0.168965
H61   H     H_    0.865859 0.630950 0.096053 0.199076
H62   H     H_    0.948191 0.626460 0.097307 0.147676
H63   H     H_    0.366355 0.904850 0.140532 0.168965
H64   H     H_    0.369051 0.865859 0.096053 0.199076
H65   H     H_    0.373541 0.948191 0.097307 0.147676
H66   H     H_    0.095150 0.633645 0.859468 0.168966
H67   H     H_    0.390115 0.670628 0.895575 0.357674
H68   H     H_    0.134142 0.630949 0.903947 0.199076
H69   H     H_    0.051809 0.626459 0.902693 0.147676
H70   H     H_    0.633645 0.904851 0.859468 0.168965
H71   H     H_    0.630950 0.865859 0.903946 0.199075
H72   H     H_    0.626460 0.948191 0.902693 0.147676
H73   H     H_    0.904850 0.366355 0.859468 0.168965
H74   H     H_    0.865858 0.369051 0.903946 0.199076
H75   H     H_    0.948191 0.373541 0.902693 0.147677
H76   H     H_    0.366354 0.095149 0.859468 0.168965
H77   H     H_    0.369050 0.134141 0.903946 0.199076
H78   H     H_    0.670628 0.609885 0.895575 0.357674
H79   H     H_    0.373540 0.051809 0.902693 0.147677
H80   H     H_    0.666260 0.829772 0.071389 0.348539
H81   H     H_    0.170228 0.666260 0.071389 0.348539
H82   H     H_    0.333740 0.170228 0.071388 0.348539
H83   H     H_    0.829772 0.333740 0.071389 0.348539
H84   H     H_    0.666259 0.170228 0.928611 0.348539
H85   H     H_    0.170228 0.333740 0.928611 0.348539
H86   H     H_    0.333740 0.829772 0.928611 0.348539
H87   H     H_    0.829772 0.666260 0.928611 0.348539
H88   H     H_    0.160458 0.331391 0.575849 0.348607
H89   H     H_    0.107693 0.169872 0.605151 0.359297
H90   H     H_    0.668609 0.160458 0.575849 0.348608
H91   H     H_    0.839542 0.668609 0.575848 0.348608
H92   H     H_    0.331391 0.839542 0.575849 0.348607
H93   H     H_    0.160458 0.668609 0.424151 0.348608
H94   H     H_    0.668609 0.839542 0.424151 0.348608
H95   H     H_    0.839542 0.331391 0.424151 0.348607
H96   H     H_    0.331391 0.160458 0.424151 0.348607
O1    O     O_R   0.448380 0.908480 0.999900 -0.620460
O2    O     O_R   0.591520 0.948380 0.499900 -0.619666
O3    O     O_R   0.488533 0.127210 0.225138 -0.785539
O4    O     O_2   0.846595 0.560068 0.181708 -0.580799
O5    O     O_R   0.872790 0.488533 0.225137 -0.785538
O6    O     O_2   0.439933 0.846595 0.181708 -0.580799
O7    O     O_R   0.511467 0.872790 0.225137 -0.785539
O8    O     O_2   0.153405 0.560067 0.818292 -0.580799
O9    O     O_R   0.127210 0.488533 0.774863 -0.785539
O10   O     O_2   0.560068 0.846596 0.818292 -0.580800
O11   O     O_R   0.488533 0.872790 0.774862 -0.785538
O12   O     O_2   0.846595 0.439933 0.818292 -0.580799
O13   O     O_R   0.051620 0.591520 0.499900 -0.619666
O14   O     O_R   0.872791 0.511467 0.774862 -0.785539
O15   O     O_2   0.439932 0.153404 0.818292 -0.580800
O16   O     O_R   0.511466 0.127210 0.774863 -0.785538
O17   O     O_3   0.593389 0.940173 0.613604 -0.542562
O18   O     O_3   0.059827 0.593389 0.613604 -0.542562
O19   O     O_3   0.406611 0.059827 0.613604 -0.542562
O20   O     O_3   0.940173 0.406611 0.613604 -0.542562
O21   O     O_3   0.593389 0.059827 0.386396 -0.542562
O22   O     O_3   0.059827 0.406611 0.386395 -0.542562
O23   O     O_3   0.406611 0.940173 0.386395 -0.542562
O24   O     O_R   0.408480 0.051620 0.499900 -0.619666
O25   O     O_3   0.940173 0.593389 0.386396 -0.542562
O26   O     O_3   0.100430 0.452514 0.113916 -0.546715
O27   O     O_3   0.547486 0.100430 0.113915 -0.546715
O28   O     O_3   0.899570 0.547486 0.113915 -0.546715
O29   O     O_3   0.452514 0.899570 0.113915 -0.546715
O30   O     O_3   0.100430 0.547486 0.886085 -0.546715
O31   O     O_3   0.547487 0.899570 0.886085 -0.546715
O32   O     O_3   0.899570 0.452514 0.886085 -0.546714
O33   O     O_3   0.452513 0.100430 0.886085 -0.546715
O34   O     O_2   0.558519 0.854453 0.073253 -0.584168
O35   O     O_R   0.948380 0.591520 0.500100 -0.619665
O36   O     O_R   0.643393 0.804038 0.052112 -0.778965
O37   O     O_2   0.145547 0.558519 0.073253 -0.584168
O38   O     O_R   0.195962 0.643393 0.052112 -0.778966
O39   O     O_2   0.441481 0.145547 0.073253 -0.584168
O40   O     O_R   0.356607 0.195962 0.052112 -0.778965
O41   O     O_2   0.854453 0.441481 0.073253 -0.584168
O42   O     O_R   0.804038 0.356607 0.052112 -0.778965
O43   O     O_2   0.558519 0.145547 0.926747 -0.584169
O44   O     O_R   0.643393 0.195962 0.947888 -0.778965
O45   O     O_2   0.145546 0.441481 0.926747 -0.584168
O46   O     O_R   0.591520 0.051620 0.500100 -0.619666
O47   O     O_R   0.195962 0.356607 0.947888 -0.778965
O48   O     O_2   0.441481 0.854453 0.926747 -0.584168
O49   O     O_R   0.356607 0.804038 0.947887 -0.778965
O50   O     O_2   0.854453 0.558519 0.926747 -0.584168
O51   O     O_R   0.804038 0.643393 0.947888 -0.778965
O52   O     O_2   0.052264 0.354260 0.574875 -0.585939
O53   O     O_R   0.139462 0.305520 0.555858 -0.778025
O54   O     O_2   0.645740 0.052264 0.574875 -0.585939
O55   O     O_R   0.694480 0.139462 0.555858 -0.778025
O56   O     O_2   0.947736 0.645740 0.574875 -0.585940
O57   O     O_R   0.051620 0.408480 0.500100 -0.619666
O58   O     O_R   0.860538 0.694480 0.555858 -0.778025
O59   O     O_2   0.354260 0.947736 0.574875 -0.585940
O60   O     O_R   0.305520 0.860538 0.555858 -0.778025
O61   O     O_2   0.052264 0.645740 0.425125 -0.585940
O62   O     O_R   0.139462 0.694480 0.444142 -0.778025
O63   O     O_2   0.645740 0.947736 0.425125 -0.585940
O64   O     O_R   0.694480 0.860538 0.444142 -0.778025
O65   O     O_2   0.947736 0.354260 0.425125 -0.585940
O66   O     O_R   0.860538 0.305520 0.444142 -0.778025
O67   O     O_2   0.354260 0.052264 0.425125 -0.585939
O68   O     O_R   0.408480 0.948380 0.500100 -0.619666
O69   O     O_R   0.305520 0.139462 0.444142 -0.778025
O70   O     O_R   0.448380 0.000100 0.944450 -0.625175
O71   O     O_R   0.999900 0.448380 0.944450 -0.625175
O72   O     O_R   0.551620 0.999900 0.944450 -0.625175
O73   O     O_R   0.091520 0.448380 0.999900 -0.620459
O74   O     O_R   0.000100 0.551620 0.944450 -0.625175
O75   O     O_R   0.448380 0.999900 0.055550 -0.625176
O76   O     O_R   0.999900 0.551620 0.055550 -0.625176
O77   O     O_R   0.551620 0.000100 0.055550 -0.625176
O78   O     O_R   0.000100 0.448380 0.055550 -0.625175
O79   O     O_R   0.948380 0.500100 0.444450 -0.620498
O80   O     O_R   0.499900 0.948380 0.444450 -0.620499
O81   O     O_R   0.051620 0.499900 0.444450 -0.620499
O82   O     O_R   0.500100 0.051620 0.444450 -0.620499
O83   O     O_R   0.948380 0.499900 0.555550 -0.620499
O84   O     O_R   0.551620 0.091520 0.999900 -0.620460
O85   O     O_R   0.499900 0.051620 0.555550 -0.620499
O86   O     O_R   0.051620 0.500100 0.555550 -0.620499
O87   O     O_R   0.500100 0.948380 0.555550 -0.620499
O88   O     O_R   0.408370 0.500100 0.031180 -0.611058
O89   O     O_R   0.499900 0.408370 0.031180 -0.611058
O90   O     O_R   0.591630 0.499900 0.031180 -0.611058
O91   O     O_R   0.500100 0.591630 0.031180 -0.611058
O92   O     O_R   0.408370 0.499900 0.968820 -0.611058
O93   O     O_R   0.499900 0.591630 0.968820 -0.611058
O94   O     O_R   0.591630 0.500100 0.968820 -0.611058
O95   O     O_R   0.908480 0.551620 0.999900 -0.620460
O96   O     O_R   0.500100 0.408370 0.968820 -0.611058
O97   O     O_R   0.908370 0.000100 0.531180 -0.610677
O98   O     O_R   0.999900 0.908370 0.531180 -0.610677
O99   O     O_R   0.091630 0.999900 0.531180 -0.610678
O100  O     O_R   0.000100 0.091630 0.531180 -0.610678
O101  O     O_R   0.908370 0.999900 0.468820 -0.610678
O102  O     O_R   0.999900 0.091630 0.468820 -0.610678
O103  O     O_R   0.091630 0.000100 0.468820 -0.610677
O104  O     O_R   0.000100 0.908370 0.468820 -0.610677
O105  O     O_2   0.618190 0.646564 0.038639 -0.584129
O106  O     O_R   0.448380 0.091520 0.000100 -0.620459
O107  O     O_R   0.579194 0.696179 0.089644 -0.768054
O108  O     O_2   0.353436 0.618190 0.038639 -0.584128
O109  O     O_R   0.303821 0.579194 0.089644 -0.768054
O110  O     O_2   0.381810 0.353436 0.038639 -0.584129
O111  O     O_R   0.420806 0.303821 0.089644 -0.768054
O112  O     O_2   0.646564 0.381810 0.038639 -0.584129
O113  O     O_R   0.696179 0.420807 0.089644 -0.768053
O114  O     O_2   0.618190 0.353436 0.961361 -0.584129
O115  O     O_R   0.579193 0.303821 0.910356 -0.768054
O116  O     O_2   0.353436 0.381810 0.961361 -0.584129
O117  O     O_R   0.091520 0.551620 0.000100 -0.620460
O118  O     O_R   0.303821 0.420806 0.910356 -0.768054
O119  O     O_2   0.381810 0.646564 0.961361 -0.584129
O120  O     O_R   0.420806 0.696179 0.910356 -0.768054
O121  O     O_2   0.646564 0.618190 0.961361 -0.584129
O122  O     O_R   0.696179 0.579194 0.910356 -0.768054
O123  O     O_2   0.117931 0.147567 0.539222 -0.583664
O124  O     O_R   0.077009 0.195364 0.590328 -0.761636
O125  O     O_2   0.852433 0.117931 0.539221 -0.583665
O126  O     O_R   0.804636 0.077009 0.590328 -0.761635
O127  O     O_2   0.882069 0.852433 0.539221 -0.583664
O128  O     O_R   0.551620 0.908480 0.000100 -0.620459
O129  O     O_R   0.922991 0.804636 0.590328 -0.761636
O130  O     O_2   0.147567 0.882069 0.539222 -0.583665
O131  O     O_R   0.195364 0.922992 0.590328 -0.761636
O132  O     O_2   0.117931 0.852433 0.460778 -0.583665
O133  O     O_R   0.077008 0.804636 0.409672 -0.761635
O134  O     O_2   0.852433 0.882069 0.460778 -0.583665
O135  O     O_R   0.804636 0.922991 0.409672 -0.761636
O136  O     O_2   0.882069 0.147567 0.460778 -0.583665
O137  O     O_R   0.922991 0.195364 0.409672 -0.761636
O138  O     O_2   0.147567 0.117931 0.460779 -0.583665
O139  O     O_R   0.908480 0.448380 0.000100 -0.620460
O140  O     O_R   0.195364 0.077009 0.409672 -0.761636
O141  O     O_2   0.655852 0.954767 0.680201 -0.537460
O142  O     O_R   0.597412 0.915173 0.727228 -0.819168
O143  O     O_2   0.045234 0.655852 0.680201 -0.537460
O144  O     O_R   0.084828 0.597412 0.727228 -0.819168
O145  O     O_2   0.344148 0.045233 0.680200 -0.537460
O146  O     O_R   0.402588 0.084828 0.727228 -0.819168
O147  O     O_2   0.954767 0.344148 0.680200 -0.537460
O148  O     O_R   0.915173 0.402588 0.727228 -0.819168
O149  O     O_2   0.655852 0.045233 0.319800 -0.537461
O150  O     O_R   0.948380 0.408480 0.499900 -0.619665
O151  O     O_R   0.597412 0.084827 0.272772 -0.819168
O152  O     O_2   0.045233 0.344148 0.319799 -0.537461
O153  O     O_R   0.084827 0.402588 0.272772 -0.819168
O154  O     O_2   0.344148 0.954767 0.319799 -0.537461
O155  O     O_R   0.402588 0.915172 0.272772 -0.819168
O156  O     O_2   0.954766 0.655852 0.319800 -0.537461
O157  O     O_R   0.915172 0.597412 0.272772 -0.819168
O158  O     O_2   0.153404 0.439933 0.181708 -0.580800
O159  O     O_R   0.127209 0.511467 0.225137 -0.785539
O160  O     O_2   0.560067 0.153405 0.181708 -0.580799
Zn1   Zn    Zn3+2 0.431030 0.000000 0.000000 1.017875
Zn2   Zn    Zn3+2 0.500000 0.500000 0.958310 1.090680
Zn3   Zn    Zn3+2 1.000000 1.000000 0.541690 1.094818
Zn4   Zn    Zn3+2 0.000000 0.000000 0.458310 1.094818
Zn5   Zn    Zn3+2 0.000000 0.431030 0.000000 1.017875
Zn6   Zn    Zn3+2 0.568970 0.000000 0.000000 1.017875
Zn7   Zn    Zn3+2 0.000000 0.568970 0.000000 1.017875
Zn8   Zn    Zn3+2 0.931030 0.500000 0.500000 1.022630
Zn9   Zn    Zn3+2 0.500000 0.931030 0.500000 1.022630
Zn10  Zn    Zn3+2 0.068970 0.500000 0.500000 1.022630
Zn11  Zn    Zn3+2 0.500000 0.068970 0.500000 1.022630
Zn12  Zn    Zn3+2 0.500000 0.500000 0.041690 1.090680

loop_
_geom_bond_atom_site_label_1
_geom_bond_atom_site_label_2
_ccdc_geom_bond_type
C36   O109  S    
C69   O16   S    
C6    C179  A    
C77   H52   S    
C10   C184  A    
C85   H75   S    
C92   C133  S    
C86   H76   S    
C4    C177  A    
H12   O109  S    
C171  O68   A    
C106  C132  A    
C12   C23   A    
C68   C182  T    
H67   O120  S    
O91   Zn12  S    
C125  O104  A    
C126  O103  A    
C61   O158  D    
C67   O12   D    
C147  O74   A    
C171  O24   A    
C78   H53   S    
H84   O44   S    
C33   C189  A    
C67   C188  S    
C62   C183  S    
C75   O22   S    
C55   O147  D    
C51   O138  D    
C131  C166  A    
C65   O9    S    
O13   Zn10  S    
C80   H59   S    
O100  Zn3   S    
C74   H42   S    
C160  O13   A    
H3    O129  S    
C154  O85   A    
C174  C191  A    
C142  C170  A    
O1    Zn1   S    
C116  C166  S    
O77   Zn6   S    
C32   C57   S    
C107  C157  A    
C99   O59   D    
C10   C21   A    
H82   O40   S    
O150  Zn8   S    
C84   O31   S    
H4    O131  S    
C71   O18   S    
H15   O153  S    
C26   C173  A    
C138  O57   A    
H34   O113  S    
C4    O21   S    
C76   O23   S    
O94   Zn2   S    
H56   O118  S    
C92   O44   S    
C6    O23   S    
C104  O69   S    
C134  C165  A    
C1    O1    A    
C83   H68   S    
C44   C112  S    
H16   O155  S    
C22   C148  S    
C72   H33   S    
C82   H63   S    
C123  O93   A    
C119  C145  A    
C56   O149  D    
C119  C163  A    
O70   Zn1   S    
C34   O107  S    
O75   Zn1   S    
C111  C137  A    
C94   O49   S    
C124  C161  S    
C16   C25   A    
C27   C174  A    
H23   O111  S    
C61   C181  S    
C125  O98   A    
C99   C141  S    
H83   O42   S    
O89   Zn12  S    
C60   O157  S    
C27   C176  A    
C15   O32   S    
C122  O90   A    
O83   Zn8   S    
C89   C131  S    
C20   C151  S    
C100  O62   S    
C47   O131  S    
C76   H49   S    
C102  O64   S    
O139  Zn5   S    
C146  O72   A    
C133  C166  A    
C14   C187  A    
C130  C165  A    
O93   Zn2   S    
H8    O140  S    
C139  C169  A    
C86   O33   S    
C16   C189  A    
C40   O116  D    
C79   C155  A    
C3    C176  A    
C42   O121  D    
H14   O151  S    
H9    O142  S    
H11   O146  S    
O82   Zn11  S    
C84   H72   S    
C75   H46   S    
C81   H61   S    
C137  C168  A    
O74   Zn7   S    
C8    C181  A    
C47   C114  S    
C78   O26   S    
C109  C135  A    
C110  C136  A    
C125  C162  S    
O87   Zn9   S    
C73   H37   S    
C2    C57   T    
C5    C20   A    
C6    C19   A    
C36   O108  D    
C76   H47   S    
C149  C169  S    
O96   Zn2   S    
C86   H79   S    
O71   Zn5   S    
C128  O100  A    
C63   O5    S    
C70   H29   S    
C94   O48   D    
C83   H66   S    
C138  C168  S    
H94   O64   S    
C37   O111  S    
C38   O112  D    
C49   C117  S    
C1    C164  S    
C72   H35   S    
C51   C119  S    
C152  O82   A    
H80   O36   S    
C56   O151  S    
C34   O105  D    
C152  O80   A    
C54   O145  D    
C93   O45   D    
O102  Zn4   S    
C145  C172  A    
H81   O38   S    
H24   O11   S    
C80   H58   S    
H17   O157  S    
C91   O41   D    
C43   C111  S    
C126  O99   A    
C14   O31   S    
C39   O114  D    
O97   Zn3   S    
C124  O97   A    
C19   C152  S    
C1    O128  A    
C114  C141  A    
C58   C178  S    
C146  O70   A    
C88   O38   S    
C175  C192  A    
C98   O56   D    
C21   C150  S    
C95   O50   D    
C52   O141  D    
C66   O10   D    
C120  O92   A    
C53   O144  S    
C149  O46   A    
C34   C79   S    
C103  O65   D    
C81   O28   S    
C31   C185  A    
C94   C135  S    
C75   H44   S    
H92   O60   S    
C41   O120  S    
C2    C27   S    
C49   O135  S    
C63   O4    D    
C89   O39   D    
C83   H69   S    
C90   C156  A    
C126  C163  S    
C73   H39   S    
C59   O154  D    
C28   C177  A    
C36   C90   S    
C192  O19   S    
C45   O129  S    
C65   C186  S    
C71   H32   S    
C69   O15   D    
C77   H51   S    
O72   Zn6   S    
C85   H74   S    
C96   O53   S    
C86   H77   S    
C136  C167  A    
C17   C190  A    
C15   C188  A    
C70   H27   S    
C87   C129  S    
C42   C110  S    
C60   O156  D    
C74   O21   S    
C37   C101  S    
C44   O125  D    
C160  O35   A    
C127  O95   A    
C95   C136  S    
C78   H54   S    
C7    C180  A    
C116  O106  A    
C5    C178  A    
C93   O47   S    
C31   C46   S    
C104  O67   D    
O92   Zn2   S    
C62   O160  D    
O85   Zn11  S    
C97   C139  S    
C128  C159  S    
C9    O27   S    
C122  O94   A    
C10   O28   S    
C38   O113  S    
H26   O16   S    
C151  O79   A    
C132  C167  A    
C84   H70   S    
C190  O17   S    
C123  C155  S    
C112  C161  A    
C191  O18   S    
H25   O14   S    
H93   O62   S    
C151  O81   A    
H13   O148  S    
O2    Zn9   S    
C43   O124  S    
C79   C129  A    
C173  C190  A    
C120  C156  S    
H91   O58   S    
C97   O55   S    
H95   O66   S    
C111  C159  A    
C24   C29   S    
O103  Zn4   S    
C3    O20   S    
C13   C28   S    
C25   C146  S    
C149  O2    A    
C105  O117  A    
H88   O53   S    
C110  C158  A    
C40   C108  S    
C31   C183  A    
C153  O86   A    
O57   Zn10  S    
C115  C142  A    
C101  C157  A    
C71   H30   S    
C50   C118  S    
C66   C187  S    
H78   O122  S    
O78   Zn5   S    
C82   H64   S    
C118  C159  A    
C17   C154  S    
C87   O36   S    
C50   O137  S    
C98   O58   S    
C17   C192  A    
C138  O150  A    
C18   C191  A    
H2    O126  S    
C74   H40   S    
O35   Zn8   S    
C39   O115  S    
C61   O159  S    
C16   O33   S    
C58   O153  S    
C147  O71   A    
O84   Zn6   S    
O95   Zn7   S    
C150  O78   A    
C54   C175  S    
C70   O17   S    
C108  C134  A    
C9    C183  A    
H22   O9    S    
O68   Zn9   S    
C108  C156  A    
C148  O75   A    
C12   C186  A    
H6    O135  S    
C74   H41   S    
C124  O101  A    
O117  Zn7   S    
C101  C131  A    
C42   O122  S    
O98   Zn3   S    
C29   C178  A    
C30   C181  A    
C81   H60   S    
C127  O139  A    
C99   O60   S    
O106  Zn1   S    
C140  C170  A    
C63   C184  S    
C120  O88   A    
O99   Zn3   S    
C116  O84   A    
C59   O155  S    
C91   C132  S    
C60   C180  S    
C83   O30   S    
C121  O89   A    
C32   C186  A    
C76   H48   S    
O76   Zn7   S    
C59   C179  S    
C107  C133  A    
C65   O8    D    
C92   O43   D    
C23   C147  S    
O101  Zn4   S    
C105  C165  S    
C64   O7    S    
C14   C25   A    
C109  C155  A    
C28   C179  A    
C37   O110  D    
C123  O91   A    
C90   C130  A    
C45   C113  S    
H85   O47   S    
C129  C164  A    
C121  O96   A    
C7    C20   A    
C72   H36   S    
H96   O69   S    
C105  O73   A    
C54   O146  S    
C87   O34   D    
C103  O66   S    
C171  C172  S    
H7    O137  S    
C128  O102  A    
C12   O30   S    
C135  C164  A    
C88   C130  S    
C103  C144  S    
C40   O118  S    
O24   Zn11  S    
C39   C107  S    
H45   O115  S    
H87   O51   S    
C30   C35   S    
C144  C168  A    
C150  O76   A    
C117  C143  A    
C80   O27   S    
C102  O63   D    
O104  Zn4   S    
C118  C144  A    
C50   O136  D    
C13   C46   T    
C9    C22   A    
C148  O77   A    
C52   O142  S    
C66   O11   S    
C53   O143  D    
C3    C18   A    
C55   O148  S    
O90   Zn12  S    
H20   O5    S    
C72   O19   S    
C113  C162  A    
C4    C19   A    
H90   O55   S    
C11   O29   S    
C29   C180  A    
C84   H71   S    
H10   O144  S    
C41   O119  D    
C81   H62   S    
C64   C185  S    
C15   C23   A    
C95   O51   S    
C49   O134  D    
C121  C157  S    
H89   O124  S    
C112  C139  A    
O86   Zn10  S    
O80   Zn9   S    
C73   H38   S    
C53   C174  S    
C56   C177  S    
C153  O83   A    
C82   O29   S    
C122  C158  S    
C55   C176  S    
C24   C35   T    
C71   H31   S    
C32   C188  A    
C67   O14   S    
C77   H50   S    
H86   O49   S    
C85   H73   S    
O46   Zn11  S    
C143  C169  A    
C93   C134  S    
C69   C189  S    
C96   C137  S    
O128  Zn6   S    
C117  C161  A    
C106  C158  A    
C7    O25   S    
C141  C172  A    
C70   H28   S    
C98   C140  S    
C38   C106  S    
O79   Zn8   S    
C44   O126  S    
C45   O127  D    
C78   H55   S    
C113  C140  A    
C33   C187  A    
O81   Zn10  S    
C75   H43   S    
C18   C153  S    
C48   C115  S    
C48   O132  D    
C51   O140  S    
C80   H57   S    
O88   Zn12  S    
H5    O133  S    
C91   O42   S    
C100  O61   D    
C102  C143  S    
H1    O107  S    
C26   C182  S    
C154  O87   A    
C58   O152  D    
C96   O52   D    
C8    O26   S    
C11   C185  A    
C47   O130  D    
C30   C184  A    
C104  C145  S    
C48   O133  S    
C8    C21   A    
C88   O37   D    
C64   O6    D    
H18   O159  S    
C77   O25   S    
C11   C22   A    
C62   O3    S    
C115  C162  A    
C100  C142  S    
C85   O32   S    
C114  C163  A    
C26   C175  A    
C43   O123  D    
O73   Zn5   S    
C97   O54   D    
H21   O7    S    
C5    O22   S    
C33   C68   S    
C127  C167  S    
C89   O40   S    
C160  C170  S    
C41   C109  S    
C73   O20   S    
C52   C173  S    
H19   O3    S    
C82   H65   S    
