data_mof_unit_59569.cif
_audit_creation_date              2012-12-10T19:04:46-0500
_audit_creation_method            fapswitch 2.2
_symmetry_space_group_name_H-M    P1
_symmetry_Int_Tables_number       1
_space_group_crystal_system       triclinic
_cell_length_a                    15.854607
_cell_length_b                    10.852223
_cell_length_c                    9.541543
_cell_angle_alpha                 89.915636
_cell_angle_beta                  89.957492
_cell_angle_gamma                 90.420121
_cell_volume                      1641.64985859

loop_
_atom_site_label
_atom_site_type_symbol
_atom_type_description
_atom_site_fract_x
_atom_site_fract_y
_atom_site_fract_z
_atom_type_partial_charge
C1    C     C_R   0.499546 0.262732 0.499876 0.795020
C2    C     C_3   0.083018 0.494970 0.500916 0.022898
C3    C     C_3   0.972726 0.584297 0.592077 -0.371173
C4    C     C_3   0.916881 0.496807 0.503071 0.028489
C5    C     C_3   0.027982 0.605464 0.460684 0.445874
C6    C     C_3   0.972506 0.518683 0.373269 0.365997
C7    C     C_1   0.174636 0.496563 0.500413 0.009338
C8    C     C_1   0.825258 0.497112 0.501893 0.045087
C9    C     C_R   0.507347 0.062209 0.620535 -0.008145
C10   C     C_R   0.500096 0.130193 0.498108 -0.124793
C11   C     C_R   0.494693 0.064720 0.370657 -0.191216
C12   C     C_R   0.339845 0.499535 0.500026 0.824760
C13   C     C_R   0.495446 0.935549 0.370681 -0.209743
C14   C     C_R   0.501626 0.869975 0.498151 -0.068399
C15   C     C_R   0.508100 0.937943 0.620790 0.031835
C16   C     C_3   0.514824 0.927506 0.776502 -0.530541
C17   C     C_3   0.512835 0.069682 0.777539 0.323374
C18   C     C_R   0.545685 0.586115 0.073393 0.227162
C19   C     C_R   0.448852 0.422759 0.075121 -0.166765
C20   C     C_R   0.446780 0.424375 0.925104 0.555773
C21   C     C_R   0.545939 0.585770 0.926104 0.163746
C22   C     C_3   0.639121 0.604725 0.920199 -0.472792
C23   C     C_R   0.500651 0.737322 0.499798 0.800229
C24   C     C_3   0.638885 0.605536 0.079152 -0.454713
C25   C     C_R   0.660132 0.499517 0.500078 0.807796
C26   C     C_3   0.971994 0.387033 0.543748 0.503354
C27   C     C_3   0.027340 0.406499 0.411926 -0.413308
C28   C     C_1   0.250174 0.498043 0.500157 -0.197141
C29   C     C_1   0.749751 0.498133 0.500642 -0.183094
C30   C     C_3   0.028556 0.472456 0.633375 -0.269912
Cu1   Cu    Cu3+1 0.500000 0.499980 0.640670 0.984573
Cu2   Cu    Cu3+1 0.500000 0.500020 0.359330 0.947661
H1    H     H_    0.453904 0.105988 0.824397 0.151560
H2    H     H_    0.410396 0.357466 0.132749 0.155106
H3    H     H_    0.673007 0.524332 0.875934 0.220222
H4    H     H_    0.656704 0.695217 0.873580 0.186814
H5    H     H_    0.672940 0.525859 0.124869 0.229166
H6    H     H_    0.656004 0.696683 0.124366 0.191802
H7    H     H_    0.489379 0.112506 0.271335 0.173584
N1    N     N_R   0.500530 0.500930 0.147930 -0.205792
N2    N     N_R   0.500530 0.500890 0.852020 -0.220397
O1    O     O_R   0.500000 0.319640 0.618810 -0.528821
O2    O     O_R   0.500010 0.319680 0.381230 -0.588280
O3    O     O_R   0.379070 0.499970 0.618770 -0.560751
O4    O     O_R   0.379080 0.500010 0.381190 -0.578720
O5    O     O_R   0.499990 0.680320 0.618770 -0.579432
O6    O     O_R   0.500000 0.680360 0.381190 -0.587924
O7    O     O_R   0.620920 0.499990 0.618810 -0.583259
O8    O     O_R   0.620930 0.500030 0.381230 -0.571581
H8    H     H_    0.050807 0.334171 0.339922 0.144524
H9    H     H_    0.575750 0.887216 0.810186 0.201250
O9    O     O_3   0.585777 0.125269 0.839276 -0.554448
C31   C     C_3   0.657599 0.129125 0.751088 0.124689
H10   H     H_    0.646923 0.191663 0.660653 0.150364
H11   H     H_    0.674207 0.035616 0.712832 0.131946
C32   C     C_3   0.732077 0.180434 0.833222 -0.781265
H12   H     H_    0.747031 0.118538 0.922459 0.240992
H13   H     H_    0.788060 0.187897 0.763722 0.232698
H14   H     H_    0.716930 0.273539 0.873990 0.251738
O10   O     O_3   0.397644 0.340781 0.851136 -0.560657
C33   C     C_3   0.311620 0.345910 0.891200 0.044623
H15   H     H_    0.273711 0.366840 0.796397 0.176859
H16   H     H_    0.296192 0.418736 0.969414 0.110356
C34   C     C_3   0.283191 0.220721 0.946730 -0.864677
H17   H     H_    0.320163 0.195530 0.041112 0.241061
H18   H     H_    0.215287 0.223826 0.975055 0.211518
H19   H     H_    0.292307 0.149169 0.865103 0.248255
O11   O     O_3   0.936057 0.274719 0.589654 -0.579484
C35   C     C_3   0.000705 0.188911 0.614756 0.082244
H20   H     H_    0.047051 0.224664 0.692639 0.137173
H21   H     H_    0.034037 0.166132 0.515605 0.144842
C36   C     C_3   0.962145 0.070924 0.673404 -0.823122
H22   H     H_    0.913981 0.034011 0.599825 0.246851
H23   H     H_    0.012121 0.000951 0.688291 0.207570
H24   H     H_    0.931959 0.089484 0.776199 0.245779
O12   O     O_3   0.936809 0.545441 0.241351 -0.582513
C37   C     C_3   0.000671 0.547993 0.138420 0.077646
H25   H     H_    0.024579 0.453394 0.119076 0.143223
H26   H     H_    0.054175 0.609174 0.169298 0.173451
C38   C     C_3   0.964240 0.597547 0.002309 -0.799824
H27   H     H_    0.937522 0.690629 0.019647 0.247731
H28   H     H_    0.014760 0.604580 0.922074 0.199259
H29   H     H_    0.913760 0.534914 0.963328 0.258156
O13   O     O_3   0.063993 0.717887 0.415193 -0.582877
C39   C     C_3   0.000182 0.806818 0.400766 0.067698
H30   H     H_    0.972615 0.829526 0.504657 0.140851
H31   H     H_    0.949219 0.774448 0.329272 0.175067
C40   C     C_3   0.038231 0.923858 0.338920 -0.803480
H32   H     H_    0.065165 0.904438 0.233817 0.248654
H33   H     H_    0.988700 0.995089 0.328244 0.205391
H34   H     H_    0.088918 0.959595 0.408471 0.249112
H35   H     H_    0.948976 0.655880 0.664789 0.161341
H36   H     H_    0.053504 0.451129 0.739244 0.144242
H37   H     H_    0.490563 0.887793 0.271378 0.165441
H38   H     H_    0.457798 0.884189 0.823894 0.175224

loop_
_geom_bond_atom_site_label_1
_geom_bond_atom_site_label_2
_ccdc_geom_bond_type
Cu1   O1    S    
C35   C36   S    
C18   C21   A    
Cu2   O4    S    
C2    C7    S    
C16   H9    S    
C4    C8    S    
C20   N2    A    
C31   H10   S    
C22   H3    S    
C26   C27   S    
C12   C28   S    
C18   C24   S    
C8    C29   T    
C30   H36   S    
C38   H29   S    
C5    C6    S    
C31   C32   S    
C15   C16   S    
C32   H12   S    
C33   H16   S    
C35   H21   S    
C18   N1    A    
O11   C35   S    
C1    O2    A    
Cu1   Cu2   S    
C16   C17   S    
Cu1   O5    S    
C24   H6    S    
C2    C27   S    
C20   O10   S    
C9    C10   A    
C27   H8    S    
C37   H25   S    
C36   H22   S    
C37   H26   S    
C23   O5    A    
C13   C14   A    
C33   H15   S    
C17   H1    S    
C36   H24   S    
C17   O9    S    
C31   H11   S    
C25   C29   S    
C23   O6    A    
Cu1   O3    S    
C39   H31   S    
C34   H19   S    
O12   C37   S    
C36   H23   S    
C10   C11   A    
C5    O13   S    
C38   H27   S    
C39   H30   S    
C7    C28   T    
O10   C33   S    
C34   H18   S    
C14   C23   S    
C3    C30   S    
C6    C27   S    
C40   H34   S    
C24   H5    S    
O13   C39   S    
C11   H7    S    
C25   O7    A    
C21   N2    A    
C38   H28   S    
C40   H33   S    
C26   C30   S    
Cu1   O7    S    
Cu2   O6    S    
C22   C24   S    
C4    C6    S    
C3    C4    S    
O9    C31   S    
C39   C40   S    
C9    C17   S    
C16   H38   S    
Cu1   N2    S    
C1    C10   S    
C12   O4    A    
C3    C5    S    
C19   H2    S    
C4    C26   S    
C6    O12   S    
C22   H4    S    
C32   H14   S    
C13   H37   S    
C2    C30   S    
C26   O11   S    
C34   H17   S    
C19   C20   A    
C9    C15   A    
C12   O3    A    
C33   C34   S    
C11   C13   A    
C37   C38   S    
Cu2   O2    S    
C32   H13   S    
Cu2   N1    S    
C35   H20   S    
C25   O8    A    
Cu2   O8    S    
C19   N1    A    
C2    C5    S    
C1    O1    A    
C40   H32   S    
C14   C15   A    
C3    H35   S    
C21   C22   S    
