data_mof_unit_32558.cif
_audit_creation_date              2012-12-10T19:44:34-0500
_audit_creation_method            fapswitch 2.2
_symmetry_space_group_name_H-M    P1
_symmetry_Int_Tables_number       1
_space_group_crystal_system       triclinic
_cell_length_a                    8.570617
_cell_length_b                    14.941907
_cell_length_c                    14.326722
_cell_angle_alpha                 87.429787
_cell_angle_beta                  96.851756
_cell_angle_gamma                 91.84866
_cell_volume                      1819.09402887

loop_
_atom_site_label
_atom_site_type_symbol
_atom_type_description
_atom_site_fract_x
_atom_site_fract_y
_atom_site_fract_z
_atom_type_partial_charge
C1    C     C_R   0.497583 0.327811 0.501085 0.967773
C2    C     C_R   0.498276 0.672056 0.498250 0.961613
C3    C     C_R   0.397370 0.442078 0.101700 -0.246497
C4    C     C_R   0.550899 0.578380 0.893431 -0.250856
C5    C     C_R   0.404073 0.441228 0.200838 -0.018252
C6    C     C_R   0.554560 0.574232 0.795051 0.001829
C7    C     C_R   0.592758 0.561114 0.205627 0.517132
C8    C     C_R   0.440156 0.428253 0.798884 0.530124
C9    C     C_R   0.594220 0.559000 0.107778 -0.314726
C10   C     C_R   0.446812 0.428754 0.897130 -0.285412
C11   C     C_R   0.495186 0.501498 0.053040 0.095685
C12   C     C_R   0.497013 0.503896 0.946817 0.089058
C13   C     C_R   0.202438 0.498128 0.476929 0.963904
C14   C     C_R   0.797674 0.502450 0.523144 0.973487
C15   C     C_2   0.041354 0.478986 0.471111 0.127806
C16   C     C_2   0.959206 0.521515 0.529411 0.090325
C17   C     C_R   0.369488 0.090480 0.542165 -0.203691
C18   C     C_R   0.395333 0.904713 0.417027 -0.182900
C19   C     C_R   0.379750 0.182614 0.547279 -0.071304
C20   C     C_R   0.404662 0.812429 0.418543 -0.063111
C21   C     C_R   0.490530 0.231501 0.500389 -0.037531
C22   C     C_R   0.489741 0.767981 0.495210 0.005021
C23   C     C_R   0.583242 0.188818 0.442633 -0.202945
C24   C     C_R   0.560266 0.815034 0.572086 -0.212970
C25   C     C_R   0.573688 0.096358 0.437131 0.103566
C26   C     C_R   0.551025 0.907446 0.571090 0.110396
C27   C     C_R   0.467683 0.047758 0.488320 0.114027
C28   C     C_R   0.469126 0.951669 0.492834 0.119720
H1    H     H_    0.286505 0.052296 0.580661 0.168746
H2    H     H_    0.331545 0.939627 0.357105 0.158394
H3    H     H_    0.298659 0.215091 0.585646 0.245262
H4    H     H_    0.343841 0.775770 0.360931 0.189006
H5    H     H_    0.662837 0.226998 0.401889 0.211004
H6    H     H_    0.623517 0.780386 0.632353 0.164283
H7    H     H_    0.313707 0.396878 0.064274 0.168331
H8    H     H_    0.589500 0.640238 0.926263 0.156268
H9    H     H_    0.328908 0.394791 0.236188 0.185905
H10   H     H_    0.599178 0.631645 0.756835 0.163032
H11   H     H_    0.671149 0.604952 0.073662 0.189381
H12   H     H_    0.412387 0.368848 0.935248 0.193068
N1    N     N_R   0.500000 0.499980 0.252470 -0.145641
N2    N     N_R   0.500000 0.500020 0.747530 -0.142647
O1    O     O_R   0.500010 0.369070 0.579480 -0.545574
O2    O     O_R   0.499990 0.630930 0.420520 -0.571806
O3    O     O_R   0.500010 0.369060 0.420520 -0.617786
O4    O     O_R   0.499990 0.630940 0.579480 -0.619458
O5    O     O_R   0.271750 0.500000 0.560890 -0.570276
O6    O     O_R   0.728250 0.500000 0.439110 -0.557214
O7    O     O_R   0.271750 0.499990 0.401930 -0.602290
O8    O     O_R   0.728250 0.500010 0.598070 -0.601288
Zn1   Zn    Zn3+2 0.500000 0.500010 0.606140 1.092448
Zn2   Zn    Zn3+2 0.500000 0.499990 0.393860 1.092650
S1    S     S_3+6 0.977172 0.377943 0.414573 0.007471
O9    O     O_2   0.889005 0.319740 0.479916 -0.371203
O10   O     O_2   0.872223 0.398942 0.325039 -0.274886
O11   O     O_3   0.132923 0.322223 0.388656 -0.578011
H13   H     H_    0.089480 0.263299 0.367566 0.374759
S2    S     S_3+6 0.026852 0.618359 0.593058 0.032788
O12   O     O_2   0.118167 0.589504 0.685056 -0.290937
O13   O     O_2   0.130067 0.677101 0.536768 -0.329883
O14   O     O_3   0.872603 0.677413 0.615121 -0.572360
H14   H     H_    0.919269 0.729092 0.650577 0.373755
N3    N     N_3   0.673312 0.051624 0.381663 -0.429725
H15   H     H_    0.790076 0.067893 0.406385 0.210019
H16   H     H_    0.651680 0.076976 0.312265 0.200038
N4    N     N_3   0.626807 0.956653 0.648220 -0.427606
H17   H     H_    0.746519 0.942651 0.656011 0.202183
H18   H     H_    0.580867 0.932993 0.709375 0.199947
S3    S     S_3+6 0.693102 0.657392 0.255831 0.064223
O15   O     O_2   0.779206 0.640954 0.351735 -0.225960
O16   O     O_2   0.811831 0.693985 0.193721 -0.309842
O17   O     O_3   0.560607 0.736790 0.260862 -0.554415
H19   H     H_    0.517211 0.749882 0.194617 0.346881
S4    S     S_3+6 0.350417 0.329878 0.750226 0.033143
O18   O     O_2   0.477564 0.269068 0.730331 -0.281884
O19   O     O_2   0.256557 0.280709 0.819676 -0.314196
O20   O     O_3   0.226642 0.352400 0.652912 -0.543893
H20   H     H_    0.133538 0.377922 0.675681 0.374524

loop_
_geom_bond_atom_site_label_1
_geom_bond_atom_site_label_2
_ccdc_geom_bond_type
N4    H18   S    
N3    H16   S    
C1    C21   S    
C5    H9    S    
C17   H1    S    
C19   H3    S    
C4    H8    S    
O20   H20   S    
C2    O4    A    
S4    O19   D    
C15   S1    S    
C19   C21   A    
C8    N2    A    
S2    O13   D    
C15   C16   D    
C9    H11   S    
O11   H13   S    
C10   H12   S    
C25   N3    S    
S3    O16   D    
C1    O1    A    
C2    O2    A    
C23   H5    S    
S4    O20   S    
C2    C22   S    
C6    H10   S    
C18   H2    S    
C4    C12   A    
N1    Zn2   S    
C18   C20   A    
N2    Zn1   S    
O2    Zn2   S    
S2    O14   S    
C23   C25   A    
N4    H17   S    
S3    O15   D    
S1    O10   D    
S4    O18   D    
C26   N4    S    
C18   C28   A    
C4    C6    A    
C13   O5    A    
C14   O6    A    
O3    Zn2   S    
S2    O12   D    
S1    O9    D    
O4    Zn1   S    
C24   H6    S    
C17   C27   A    
S3    O17   S    
C3    H7    S    
O7    Zn2   S    
C8    S4    S    
O8    Zn1   S    
C16   S2    S    
C9    C11   A    
C10   C12   A    
C13   O7    A    
C20   C22   A    
C13   C15   S    
C14   C16   S    
C20   H4    S    
S1    O11   S    
C7    C9    A    
C5    N1    A    
C24   C26   A    
O17   H19   S    
C3    C5    A    
C7    S3    S    
O5    Zn1   S    
C11   C12   S    
C25   C27   A    
C26   C28   A    
C21   C23   A    
C1    O3    A    
C14   O8    A    
O1    Zn1   S    
C17   C19   A    
C22   C24   A    
C7    N1    A    
O14   H14   S    
C3    C11   A    
N3    H15   S    
O6    Zn2   S    
C8    C10   A    
C6    N2    A    
C27   C28   S    
