data_mof_unit_12041.cif
_audit_creation_date              2012-12-10T20:38:22-0500
_audit_creation_method            fapswitch 2.2
_symmetry_space_group_name_H-M    P1
_symmetry_Int_Tables_number       1
_space_group_crystal_system       triclinic
_cell_length_a                    9.895003
_cell_length_b                    10.67008
_cell_length_c                    16.895878
_cell_angle_alpha                 91.293555
_cell_angle_beta                  86.052248
_cell_angle_gamma                 90.125557
_cell_volume                      1779.18820998

loop_
_atom_site_label
_atom_site_type_symbol
_atom_type_description
_atom_site_fract_x
_atom_site_fract_y
_atom_site_fract_z
_atom_type_partial_charge
C1    C     C_R   0.500489 0.739458 0.496812 0.864047
C2    C     C_R   0.356785 0.532738 0.780629 -0.230373
C3    C     C_R   0.375659 0.468956 0.152894 -0.310420
C4    C     C_R   0.407642 0.527822 0.222737 -0.055208
C5    C     C_R   0.614742 0.401133 0.221483 0.098045
C6    C     C_R   0.583106 0.345693 0.148231 0.179002
C7    C     C_R   0.463531 0.381193 0.114402 0.120523
C8    C     C_2   0.417241 0.439303 0.983122 -0.250406
C9    C     C_2   0.442552 0.346659 0.031832 -0.142070
C10   C     C_R   0.521397 0.486104 0.260862 -0.118331
C11   C     C_R   0.391982 0.937566 0.526536 0.033183
C12   C     C_R   0.481565 0.497077 0.652381 0.879544
C13   C     C_R   0.499865 0.871212 0.488739 -0.144697
C14   C     C_R   0.599415 0.934633 0.440078 -0.012496
C15   C     C_R   0.599016 0.065640 0.443021 -0.182815
C16   C     C_R   0.498163 0.129108 0.490041 -0.107376
C17   C     C_R   0.389515 0.064656 0.525474 0.072181
C18   C     C_3   0.316770 0.076372 0.606620 0.129848
C19   C     C_3   0.317801 0.931622 0.607413 -0.051940
C20   C     C_R   0.924967 0.588831 0.542584 0.140464
C21   C     C_R   0.931674 0.420194 0.452219 -0.110792
C22   C     C_R   0.075786 0.419758 0.450972 0.007340
C23   C     C_R   0.500037 0.260595 0.497669 0.895808
C24   C     C_R   0.067180 0.590171 0.541405 0.183398
C25   C     C_3   0.067814 0.618195 0.627808 -0.571512
C26   C     C_3   0.913739 0.615055 0.630552 0.004028
C27   C     C_R   0.517712 0.501163 0.347074 0.922391
C28   C     C_R   0.466496 0.477807 0.736691 -0.056962
C29   C     C_R   0.549863 0.392384 0.771472 -0.239467
C30   C     C_R   0.527582 0.365625 0.851811 0.240091
C31   C     C_R   0.422185 0.428822 0.897070 0.153374
C32   C     C_R   0.335693 0.509436 0.860489 -0.228940
H1    H     H_    0.630464 0.344931 0.735993 0.193116
H2    H     H_    0.676805 0.118112 0.409663 0.192173
H3    H     H_    0.217519 0.886299 0.604505 0.139997
H4    H     H_    0.878570 0.354944 0.415422 0.203815
H5    H     H_    0.114248 0.541358 0.660006 0.226866
H6    H     H_    0.107843 0.712600 0.640916 0.175002
H7    H     H_    0.864118 0.706545 0.646561 0.159446
H8    H     H_    0.462855 0.251806 0.010302 0.201095
H9    H     H_    0.254839 0.558754 0.894718 0.145005
H10   H     H_    0.284395 0.496630 0.125745 0.145336
H11   H     H_    0.289052 0.595673 0.753433 0.155044
H12   H     H_    0.399996 0.533901 0.007033 0.159056
N1    N     N_R   0.857140 0.500860 0.500530 -0.131916
N2    N     N_R   0.142780 0.500820 0.500530 -0.140641
O1    O     O_R   0.385310 0.683210 0.499990 -0.585261
O2    O     O_R   0.614650 0.683240 0.500000 -0.642866
O3    O     O_R   0.371780 0.500000 0.615800 -0.629098
O4    O     O_R   0.601120 0.500040 0.615800 -0.584592
O5    O     O_R   0.385350 0.316760 0.500000 -0.651117
O6    O     O_R   0.614690 0.316790 0.500010 -0.607978
O7    O     O_R   0.398880 0.499960 0.384200 -0.632037
O8    O     O_R   0.628220 0.500000 0.384200 -0.613474
Zn1   Zn    Zn3+2 0.346870 0.499980 0.499990 0.955640
Zn2   Zn    Zn3+2 0.653130 0.500020 0.500010 0.962511
N3    N     N_2   0.669048 0.254194 0.108057 -0.312963
H13   H     H_    0.697575 0.181219 0.142157 0.227625
C33   C     C_3   0.777485 0.302503 0.055556 -0.762464
H14   H     H_    0.866156 0.327176 0.089446 0.235915
H15   H     H_    0.744016 0.386097 0.024022 0.252417
H16   H     H_    0.809382 0.228929 0.010710 0.243030
C34   C     C_2   0.701691 0.867646 0.386167 0.431770
H17   H     H_    0.689542 0.769135 0.371239 0.086942
O9    O     O_2   0.800252 0.922640 0.356396 -0.566288
C35   C     C_2   0.399942 0.143547 0.666780 0.406670
H18   H     H_    0.350662 0.206902 0.710827 0.054356
O10   O     O_2   0.521743 0.125762 0.667616 -0.589772
N4    N     N_2   0.180930 0.130388 0.606520 -0.346041
H19   H     H_    0.129316 0.132048 0.661715 0.207232
C36   C     C_3   0.093973 0.097875 0.543318 -0.698174
H20   H     H_    0.005741 0.162368 0.546747 0.242941
H21   H     H_    0.055334 0.000677 0.549616 0.226038
H22   H     H_    0.148016 0.107983 0.484157 0.269324
N5    N     N_2   0.398555 0.878710 0.667257 -0.249671
H23   H     H_    0.441235 0.793316 0.650656 0.227334
C37   C     C_3   0.330982 0.875121 0.745954 -0.783956
H24   H     H_    0.401178 0.836953 0.787925 0.245761
H25   H     H_    0.239776 0.814393 0.745703 0.213177
H26   H     H_    0.299740 0.970454 0.767356 0.238257
C38   C     C_2   0.149651 0.330276 0.395246 0.368495
H27   H     H_    0.257919 0.325368 0.389829 0.144467
O11   O     O_2   0.088420 0.258841 0.352896 -0.597149
C39   C     C_2   0.319733 0.633474 0.253501 0.441180
H28   H     H_    0.219016 0.643957 0.232746 0.058515
O12   O     O_2   0.360539 0.712575 0.299517 -0.575492
N6    N     N_2   0.858746 0.511384 0.676760 -0.242978
H29   H     H_    0.897169 0.424395 0.659311 0.240050
C40   C     C_3   0.854922 0.534115 0.761661 -0.788769
H30   H     H_    0.823286 0.447874 0.792965 0.220213
H31   H     H_    0.781425 0.609958 0.779225 0.252925
H32   H     H_    0.956774 0.560601 0.780436 0.235244
N7    N     N_2   0.739230 0.373489 0.255353 -0.293022
H33   H     H_    0.778336 0.285371 0.242934 0.243252
C41   C     C_3   0.840628 0.471347 0.246257 -0.702945
H34   H     H_    0.868466 0.487350 0.182572 0.221261
H35   H     H_    0.932980 0.443686 0.275245 0.246205
H36   H     H_    0.802593 0.560831 0.274150 0.250847
N8    N     N_2   0.615959 0.282070 0.887280 -0.320613
H37   H     H_    0.716928 0.303264 0.875830 0.216548
C42   C     C_3   0.588844 0.150916 0.871527 -0.787667
H38   H     H_    0.649063 0.092755 0.909849 0.241267
H39   H     H_    0.618226 0.126028 0.808568 0.282398
H40   H     H_    0.479744 0.129411 0.884737 0.241726

loop_
_geom_bond_atom_site_label_1
_geom_bond_atom_site_label_2
_ccdc_geom_bond_type
C10   C27   S    
C8    C9    D    
C35   O10   D    
N6    H29   S    
C34   O9    D    
C3    H10   S    
N7    H33   S    
C41   H34   S    
C12   O3    A    
C23   O6    A    
C27   O8    A    
C21   H4    S    
C37   H24   S    
C11   C19   S    
C42   H38   S    
C12   C28   S    
C28   C29   A    
C39   O12   D    
C3    C7    A    
C5    C6    A    
C26   H7    S    
N3    C33   S    
C15   C16   A    
C29   H1    S    
C2    C32   A    
C18   C19   S    
N4    C36   S    
C25   H5    S    
C20   C24   A    
N1    Zn2   S    
C26   N6    S    
N2    Zn1   S    
C32   H9    S    
C40   H31   S    
C15   H2    S    
C20   N1    A    
C18   N4    S    
C37   H25   S    
C35   H18   S    
C33   H14   S    
N7    C41   S    
C21   C22   A    
C6    N3    S    
C38   O11   D    
C38   H27   S    
C21   N1    A    
O7    Zn1   S    
O8    Zn2   S    
C33   H15   S    
C22   C38   S    
C39   H28   S    
C36   H21   S    
C16   C17   A    
C25   C26   S    
O3    Zn1   S    
C30   N8    S    
C9    H8    S    
O4    Zn2   S    
N5    H23   S    
C29   C30   A    
C25   H6    S    
C23   O5    A    
N8    H37   S    
C4    C39   S    
C2    H11   S    
C27   O7    A    
C17   C18   S    
C24   C25   S    
C40   H32   S    
N5    C37   S    
C22   N2    A    
C16   C23   S    
N6    C40   S    
C1    C13   S    
C4    C10   A    
C3    C4    A    
O1    Zn1   S    
C37   H26   S    
O2    Zn2   S    
C11   C17   A    
C33   H16   S    
N8    C42   S    
C8    C31   S    
C31   C32   A    
C1    O1    A    
C8    H12   S    
C36   H22   S    
C5    N7    S    
C41   H35   S    
C1    O2    A    
C6    C7    A    
C18   C35   S    
C24   N2    A    
C19   N5    S    
C36   H20   S    
C19   H3    S    
C11   C13   A    
N3    H13   S    
C30   C31   A    
C20   C26   S    
C14   C34   S    
O5    Zn1   S    
N4    H19   S    
C34   H17   S    
C7    C9    S    
C5    C10   A    
C42   H39   S    
C14   C15   A    
C2    C28   A    
C42   H40   S    
C40   H30   S    
C13   C14   A    
C41   H36   S    
C12   O4    A    
O6    Zn2   S    
