data_mof_unit_23657.cif
_audit_creation_date              2012-12-10T17:46:59-0500
_audit_creation_method            fapswitch 2.2
_symmetry_space_group_name_H-M    P1
_symmetry_Int_Tables_number       1
_space_group_crystal_system       triclinic
_cell_length_a                    9.975545
_cell_length_b                    10.632799
_cell_length_c                    13.575497
_cell_angle_alpha                 91.899372
_cell_angle_beta                  81.732226
_cell_angle_gamma                 90.673105
_cell_volume                      1424.14156126

loop_
_atom_site_label
_atom_site_type_symbol
_atom_type_description
_atom_site_fract_x
_atom_site_fract_y
_atom_site_fract_z
_atom_type_partial_charge
C1    C     C_R   0.501018 0.738901 0.497800 0.840411
C2    C     C_R   0.539131 0.936540 0.575421 -0.216715
C3    C     C_R   0.536333 0.066081 0.579538 -0.029243
C4    C     C_R   0.474533 0.500163 0.685767 0.848327
C5    C     C_R   0.498833 0.127874 0.497477 -0.182398
C6    C     C_R   0.841474 0.694592 0.599208 -0.126004
C7    C     C_R   0.902151 0.806555 0.624786 -0.182966
C8    C     C_R   0.041369 0.812293 0.620404 -0.235290
C9    C     C_R   0.116147 0.701468 0.601462 0.010041
C10   C     C_R   0.062553 0.597573 0.549461 0.145738
C11   C     C_R   0.918730 0.596514 0.548548 0.158780
C12   C     C_1   0.454017 0.500164 0.790322 -0.121775
C13   C     C_R   0.936920 0.407456 0.453275 -0.102935
C14   C     C_R   0.079534 0.407465 0.453285 -0.098898
C15   C     C_R   0.499419 0.260827 0.499907 0.832183
C16   C     C_R   0.525548 0.499493 0.314219 0.863802
C17   C     C_1   0.546187 0.499667 0.209672 -0.184116
C18   C     C_2   0.559044 0.500142 0.017176 -0.155649
C19   C     C_2   0.441052 0.500338 0.982837 -0.167802
C20   C     C_1   0.442618 0.500248 0.878657 0.051700
C21   C     C_1   0.557523 0.499895 0.121344 0.020079
C22   C     C_2   0.199625 0.683619 0.679901 0.521609
C23   C     C_R   0.434530 0.862582 0.325154 -0.163957
C24   C     C_2   0.568785 0.134840 0.670827 0.421376
C25   C     C_R   0.401402 0.925308 0.243505 -0.126249
C26   C     C_R   0.400716 0.056124 0.244736 -0.134279
C27   C     C_R   0.432794 0.124511 0.327723 -0.175886
C28   C     C_R   0.465098 0.062284 0.411981 0.098611
C29   C     C_R   0.466463 0.930635 0.410210 0.100988
C30   C     C_R   0.503041 0.870887 0.493122 -0.129388
H1    H     H_    0.344904 0.500440 0.032083 0.166973
H2    H     H_    0.377322 0.872253 0.178809 0.148293
H3    H     H_    0.376109 0.104847 0.180966 0.148165
H4    H     H_    0.433063 0.225943 0.324480 0.140957
H5    H     H_    0.555237 0.235638 0.680259 0.070031
H6    H     H_    0.890525 0.331701 0.414715 0.151735
H7    H     H_    0.735407 0.685784 0.623432 0.196194
H8    H     H_    0.840605 0.884835 0.657126 0.191757
H9    H     H_    0.084559 0.894548 0.653809 0.153132
H10   H     H_    0.655186 0.500012 0.967920 0.172769
H11   H     H_    0.436278 0.760960 0.320455 0.144003
H12   H     H_    0.287506 0.743357 0.685150 0.023543
H13   H     H_    0.139304 0.331789 0.414734 0.149021
H14   H     H_    0.565692 0.885511 0.637742 0.169906
N1    N     N_R   0.857120 0.501200 0.500900 -0.116665
N2    N     N_R   0.142720 0.501280 0.500940 -0.117842
O1    O     O_R   0.385310 0.683220 0.500000 -0.644985
O2    O     O_2   0.610726 0.079193 0.737408 -0.583287
O3    O     O_R   0.614640 0.683250 0.500010 -0.626790
O4    O     O_R   0.368830 0.499960 0.640340 -0.576771
O5    O     O_R   0.598160 0.499980 0.640350 -0.633749
O6    O     O_R   0.385360 0.316750 0.499990 -0.612591
O7    O     O_R   0.614690 0.316780 0.500000 -0.617540
O8    O     O_R   0.401840 0.500020 0.359650 -0.616450
O9    O     O_R   0.631170 0.500040 0.359660 -0.594168
O10   O     O_2   0.162288 0.610437 0.746024 -0.569350
Zn1   Zn    Zn3+2 0.346870 0.499980 0.499990 0.958368
Zn2   Zn    Zn3+2 0.653130 0.500020 0.500010 0.945244

loop_
_geom_bond_atom_site_label_1
_geom_bond_atom_site_label_2
_ccdc_geom_bond_type
C10   N2    A    
C2    H14   S    
O7    Zn2   S    
C6    C7    A    
C8    H9    S    
C13   C14   A    
C8    C9    A    
O1    Zn1   S    
C18   C21   S    
C9    C10   A    
C26   H3    S    
C19   C20   S    
C23   H11   S    
C2    C30   A    
C19   H1    S    
C12   C20   T    
C25   H2    S    
C2    C3    A    
C26   C27   A    
C16   O9    A    
C7    C8    A    
N2    Zn1   S    
O5    Zn2   S    
C15   O6    A    
C13   N1    A    
C3    C24   S    
C22   H12   S    
C23   C29   A    
C1    C30   S    
C28   C29   A    
C7    H8    S    
C23   C25   A    
C27   H4    S    
N1    Zn2   S    
C16   O8    A    
C9    C22   S    
C5    C15   S    
C24   H5    S    
C11   N1    A    
O6    Zn1   S    
C4    O5    A    
C29   C30   A    
C5    C28   A    
C15   O7    A    
C27   C28   A    
C13   H6    S    
C14   N2    A    
C18   C19   D    
C10   C11   A    
O9    Zn2   S    
C4    O4    A    
C6    C11   A    
C18   H10   S    
C1    O1    A    
C22   O10   D    
C25   C26   A    
C4    C12   S    
O4    Zn1   S    
C1    O3    A    
C17   C21   T    
O3    Zn2   S    
C16   C17   S    
C6    H7    S    
C14   H13   S    
C3    C5    A    
O8    Zn1   S    
C24   O2    D    
