data_mof_unit_12645.cif
_audit_creation_date              2012-12-11T15:37:07-0500
_audit_creation_method            fapswitch 2.2
_symmetry_space_group_name_H-M    P1
_symmetry_Int_Tables_number       1
_space_group_crystal_system       triclinic
_cell_length_a                    15.077513
_cell_length_b                    15.123369
_cell_length_c                    34.745341
_cell_angle_alpha                 91.282856
_cell_angle_beta                  91.546991
_cell_angle_gamma                 60.078117
_cell_volume                      6863.8130052

loop_
_atom_site_label
_atom_site_type_symbol
_atom_type_description
_atom_site_fract_x
_atom_site_fract_y
_atom_site_fract_z
_atom_type_partial_charge
C1    C     C_R   0.610998 0.302598 0.443908 0.553047
C2    C     C_R   0.583631 0.093084 0.760528 0.050361
C3    C     C_R   0.082495 0.774130 0.884521 -0.098966
C4    C     C_R   0.108853 0.762868 0.845950 -0.035974
C5    C     C_R   0.120391 0.677693 0.825099 0.060717
C6    C     C_R   0.119548 0.597486 0.844131 -0.102513
C7    C     C_R   0.096083 0.607422 0.883045 -0.126855
C8    C     C_R   0.219195 0.598793 0.767104 -0.077272
C9    C     C_R   0.230970 0.588905 0.727097 0.320316
C10   C     C_R   0.152287 0.661068 0.703392 0.035681
C11   C     C_R   0.061213 0.737034 0.719088 -0.147278
C12   C     C_R   0.045640 0.743158 0.758815 0.043769
C13   C     C_R   0.596903 0.160971 0.785814 -0.055963
C14   C     C_R   0.655628 0.732207 0.163439 -0.102066
C15   C     C_R   0.127871 0.674653 0.783105 -0.030725
C16   C     C_R   0.173380 0.730168 0.643031 -0.157062
C17   C     C_R   0.208798 0.715286 0.605058 0.218229
C18   C     C_R   0.199366 0.558573 0.601782 0.217933
C19   C     C_R   0.171183 0.570232 0.640446 0.091283
C20   C     C_R   0.163274 0.654462 0.661475 -0.053711
C21   C     C_R   0.229973 0.624493 0.585538 0.013576
C22   C     C_R   0.684181 0.067297 0.903132 0.007401
C23   C     C_R   0.580672 0.114742 0.891680 0.265977
C24   C     C_R   0.538707 0.201841 0.638976 -0.111054
C25   C     C_R   0.552973 0.149980 0.853662 -0.031658
C26   C     C_2   0.553195 0.852640 0.112586 0.597005
C27   C     C_2   0.467200 0.791814 0.398393 0.626330
C28   C     C_2   0.912608 0.483808 0.165868 0.608180
C29   C     C_2   0.819884 0.510248 0.436249 0.644335
C30   C     C_3   0.154457 0.488288 0.096960 -0.049959
C31   C     C_2   0.139695 0.862907 0.343119 0.573218
C32   C     C_3   0.396219 0.729352 0.207555 -0.074436
C33   C     C_2   0.050660 0.649223 0.203949 0.570312
C34   C     C_2   0.511792 0.365454 0.200323 0.615120
C35   C     C_R   0.822426 0.581754 0.152957 0.056444
C36   C     C_3   0.878572 0.400264 0.342779 -0.015533
C37   C     C_3   0.838110 0.225462 0.183003 -0.054845
C38   C     C_3   0.875693 0.958996 0.278731 -0.074756
C39   C     C_2   0.817182 0.195813 0.325079 0.593741
C40   C     C_3   0.861555 0.126250 0.425534 -0.034630
C41   C     C_3   0.927045 0.519691 0.909197 -0.044395
C42   C     C_3   0.455292 0.794375 0.945801 -0.062099
C43   C     C_2   0.485497 0.821117 0.679624 0.639912
C44   C     C_2   0.616136 0.531284 0.288971 0.629014
C45   C     C_2   0.488438 0.609857 0.719155 0.626084
C46   C     C_R   0.542606 0.219042 0.600059 0.044001
C47   C     C_2   0.483284 0.610196 0.803636 0.636540
C48   C     C_2   0.797300 0.451410 0.855424 0.613020
C49   C     C_2   0.796128 0.656115 0.726053 0.618738
C50   C     C_3   0.774848 0.732350 0.818223 -0.095932
C51   C     C_3   0.829291 0.370566 0.620269 -0.068635
C52   C     C_3   0.468043 0.860623 0.832698 -0.051793
C53   C     C_3   0.541259 0.854205 0.586587 -0.059278
C54   C     C_2   0.653857 0.520217 0.205813 0.598893
C55   C     C_2   0.152158 0.492781 0.658379 0.611450
C56   C     C_3   0.350625 0.417140 0.724958 -0.086304
C57   C     C_R   0.706982 0.209283 0.611552 -0.160106
C58   C     C_2   0.941100 0.817256 0.772712 0.577257
C59   C     C_3   0.265688 0.832023 0.607931 -0.028686
C60   C     C_3   0.109717 0.515629 0.559560 -0.053310
C61   C     C_3   0.467304 0.066893 0.909685 -0.070587
C62   C     C_2   0.805098 0.138376 0.672620 0.586936
C63   C     C_2   0.615002 0.318251 0.795328 0.607910
C64   C     C_3   0.458503 0.073947 0.695698 -0.086002
C65   C     C_2   0.581638 0.002281 0.774856 0.543472
C66   C     C_2   0.835458 0.698958 0.308369 0.607977
C67   C     C_2   0.463727 0.217678 0.573806 0.608381
C68   C     C_R   0.708886 0.178435 0.649506 0.052698
C69   C     C_2   0.817619 0.070296 0.812857 0.619260
C70   C     C_3   0.544179 0.857510 0.322313 -0.080371
C71   C     C_R   0.619779 0.183256 0.664132 0.025513
C72   C     C_R   0.621834 0.235632 0.587295 -0.019618
C73   C     C_R   0.046361 0.738806 0.048196 0.569703
C74   C     C_R   0.740575 0.643621 0.177445 0.019416
C75   C     C_R   0.745987 0.745319 0.063709 0.552878
C76   C     C_R   0.750518 0.040895 0.050472 0.550758
C77   C     C_R   0.018256 0.722233 0.939962 0.536827
C78   C     C_R   0.716156 0.728934 0.955308 0.569841
C79   C     C_R   0.818885 0.615100 0.115236 -0.167477
C80   C     C_R   0.722786 0.022832 0.941573 0.572889
C81   C     C_R   0.690493 0.573807 0.232816 0.056925
C82   C     C_R   0.680228 0.571399 0.273137 0.029031
C83   C     C_R   0.725729 0.613491 0.298401 -0.009574
C84   C     C_R   0.784101 0.654735 0.283645 0.047396
C85   C     C_R   0.627980 0.132225 0.826521 0.009606
C86   C     C_R   0.789775 0.659524 0.243762 -0.106676
C87   C     C_R   0.741676 0.622676 0.218616 -0.005858
C88   C     C_R   0.603041 0.703301 0.350527 0.237831
C89   C     C_R   0.594382 0.611116 0.449770 0.570654
C90   C     C_R   0.570657 0.708058 0.388382 0.032241
C91   C     C_R   0.741101 0.567515 0.405857 0.033421
C92   C     C_R   0.770572 0.558683 0.367152 0.270574
C93   C     C_R   0.700137 0.625100 0.339568 0.052654
C94   C     C_R   0.636964 0.633795 0.415490 -0.102056
C95   C     C_R   0.107289 0.728294 0.083546 0.039954
C96   C     C_R   0.732178 0.086950 0.838413 0.056094
C97   C     C_R   0.168762 0.632106 0.100689 0.285838
C98   C     C_R   0.203123 0.627575 0.138960 -0.071928
C99   C     C_R   0.171720 0.717280 0.160584 0.046302
C100  C     C_R   0.118720 0.811886 0.142567 -0.054176
C101  C     C_R   0.305514 0.590498 0.442115 0.535892
C102  C     C_R   0.087844 0.817305 0.104138 -0.161794
C103  C     C_R   0.243932 0.740306 0.222919 0.265710
C104  C     C_R   0.255155 0.729264 0.263179 -0.020983
C105  C     C_R   0.202387 0.690751 0.283154 -0.009442
C106  C     C_R   0.139530 0.661721 0.262978 -0.125644
C107  C     C_R   0.757781 0.055401 0.876396 -0.145394
C108  C     C_R   0.125128 0.673910 0.223187 0.025064
C109  C     C_R   0.179165 0.712050 0.202898 0.004115
C110  C     C_R   0.257781 0.572083 0.336929 -0.136876
C111  C     C_R   0.278507 0.546914 0.375506 -0.114143
C112  C     C_R   0.217420 0.724172 0.391892 -0.105731
C113  C     C_R   0.606423 0.297144 0.552643 0.559030
C114  C     C_R   0.192531 0.752065 0.352928 0.074640
C115  C     C_R   0.217332 0.673229 0.324983 0.007016
C116  C     C_R   0.261481 0.622073 0.403183 0.006761
C117  C     C_R   0.720220 0.101560 0.086226 -0.023949
C118  C     C_R   0.604146 0.243104 0.770443 0.039717
C119  C     C_R   0.794660 0.106201 0.109829 -0.086593
C120  C     C_R   0.773557 0.139896 0.147984 0.275661
C121  C     C_R   0.675959 0.168840 0.162790 0.062760
C122  C     C_R   0.599667 0.170792 0.138331 -0.097461
C123  C     C_R   0.621349 0.138164 0.100262 -0.116279
C124  C     C_R   0.582917 0.271614 0.222145 0.061906
C125  C     C_R   0.587798 0.606823 0.559413 0.582241
C126  C     C_R   0.576592 0.275224 0.262383 -0.114510
C127  C     C_R   0.643365 0.191237 0.284813 0.045386
C128  C     C_R   0.714761 0.099158 0.267431 0.296046
C129  C     C_R   0.612553 0.247668 0.730659 -0.127146
C130  C     C_R   0.720160 0.094145 0.227101 -0.091661
C131  C     C_R   0.658700 0.180206 0.204552 -0.038579
C132  C     C_R   0.728570 0.204230 0.346395 0.119958
C133  C     C_R   0.724290 0.220237 0.386643 0.246000
C134  C     C_R   0.551727 0.245194 0.386266 -0.174432
C135  C     C_R   0.558724 0.221639 0.347222 -0.160411
C136  C     C_R   0.644636 0.204506 0.326848 0.010956
C137  C     C_R   0.295509 0.589810 0.551136 0.569612
C138  C     C_R   0.631715 0.249875 0.406014 -0.002827
C139  C     C_R   0.684680 0.683832 0.922392 -0.041841
C140  C     C_R   0.606066 0.177296 0.705771 0.019037
C141  C     C_R   0.753938 0.587672 0.906097 0.194987
C142  C     C_R   0.731559 0.557850 0.869729 0.064316
C143  C     C_R   0.645171 0.629363 0.848103 -0.007995
C144  C     C_R   0.568988 0.716889 0.867065 0.256744
C145  C     C_R   0.586675 0.740766 0.904791 0.212616
C146  C     C_R   0.564089 0.620410 0.783471 0.018885
C147  C     C_R   0.563951 0.623906 0.742606 0.042493
C148  C     C_R   0.638816 0.636265 0.723428 -0.050073
C149  C     C_R   0.735444 0.706596 0.101320 -0.028519
C150  C     C_R   0.716963 0.641593 0.745113 0.062133
C151  C     C_R   0.581658 0.106259 0.720316 0.299446
C152  C     C_R   0.718654 0.635790 0.785690 0.266284
C153  C     C_R   0.643275 0.624629 0.804978 -0.001552
C154  C     C_R   0.708047 0.553408 0.660174 -0.109352
C155  C     C_R   0.700323 0.543439 0.619673 0.233748
C156  C     C_R   0.557084 0.718374 0.618696 0.192288
C157  C     C_R   0.561138 0.725292 0.659429 0.083563
C158  C     C_R   0.636142 0.639925 0.680258 -0.032344
C159  C     C_R   0.618715 0.624363 0.599215 0.019180
C160  C     C_R   0.070257 0.698844 0.902796 0.015695
C161  C     C_R   0.650031 0.762710 0.125413 0.058408
Cr1   Cr    Cr6+3 0.426010 0.422500 0.497000 1.074231
Cr2   Cr    Cr6+3 0.651300 0.426310 0.501970 1.108735
Cr3   Cr    Cr6+3 0.422670 0.651170 0.501050 1.099531
Cr4   Cr    Cr6+3 0.905130 0.911420 0.992650 1.035195
Cr5   Cr    Cr6+3 0.911860 0.682710 0.002320 1.051055
Cr6   Cr    Cr6+3 0.682710 0.906840 0.004710 1.081665
H1    H     H_    0.040460 0.892043 0.091745 0.139366
H2    H     H_    0.871890 0.076326 0.099704 0.146126
H3    H     H_    0.444214 0.033683 0.718866 0.187130
H4    H     H_    0.437341 0.051556 0.667847 0.167577
H5    H     H_    0.616839 0.856778 0.764783 0.331205
H6    H     H_    0.935897 0.750160 0.311661 0.334325
H7    H     H_    0.430509 0.178774 0.521693 0.335854
H8    H     H_    0.965938 0.032472 0.808711 0.342932
H9    H     H_    0.620330 0.840166 0.312064 0.136702
H10   H     H_    0.529332 0.896126 0.350970 0.145514
H11   H     H_    0.485923 0.911984 0.301772 0.152295
H12   H     H_    0.562738 0.134897 0.082583 0.149619
H13   H     H_    0.494632 0.221566 0.332363 0.131452
H14   H     H_    0.522555 0.345337 0.276780 0.162856
H15   H     H_    0.772814 0.023192 0.212909 0.139765
H16   H     H_    0.525207 0.191460 0.149412 0.140103
H17   H     H_    0.480919 0.265398 0.400472 0.149414
H18   H     H_    0.767890 0.492707 0.677032 0.135256
H19   H     H_    0.065869 0.844433 0.899281 0.141700
H20   H     H_    0.092640 0.546099 0.896944 0.113076
H21   H     H_    0.303450 0.751961 0.279078 0.173609
H22   H     H_    0.281245 0.547493 0.785987 0.136860
H23   H     H_    0.112548 0.823831 0.831628 0.147965
H24   H     H_    0.001033 0.789165 0.699720 0.188874
H25   H     H_    0.158554 0.798067 0.659167 0.134248
H26   H     H_    0.131860 0.529699 0.828424 0.127685
H27   H     H_    0.592313 0.777250 0.182474 0.140575
H28   H     H_    0.837871 0.017243 0.884958 0.195107
H29   H     H_    0.624518 0.306424 0.718702 0.194916
H30   H     H_    0.472983 0.188809 0.844895 0.140751
H31   H     H_    0.471148 0.204042 0.649639 0.158836
H32   H     H_    0.247599 0.554435 0.152797 0.114018
H33   H     H_    0.771549 0.213553 0.600942 0.152413
H34   H     H_    0.828940 0.695966 0.231736 0.186724
H35   H     H_    0.441433 0.996238 0.124330 0.342290
H36   H     H_    0.317083 0.870120 0.384702 0.355680
H37   H     H_    0.975732 0.371064 0.205044 0.345625
H38   H     H_    0.950136 0.382786 0.451685 0.338209
H39   H     H_    0.073121 0.538242 0.105243 0.155172
H40   H     H_    0.201777 0.445552 0.122299 0.140088
H41   H     H_    0.156354 0.431423 0.075780 0.158129
H42   H     H_    0.075048 0.972348 0.302758 0.346116
H43   H     H_    0.100464 0.630525 0.278664 0.185222
H44   H     H_    0.426577 0.645894 0.203759 0.178156
H45   H     H_    0.420590 0.746367 0.235880 0.164088
H46   H     H_    0.430675 0.753022 0.185039 0.173328
H47   H     H_    0.942886 0.682783 0.162320 0.329497
H48   H     H_    0.383996 0.504044 0.201146 0.328695
H49   H     H_    0.836754 0.372982 0.360597 0.198096
H50   H     H_    0.960409 0.340126 0.343375 0.164261
H51   H     H_    0.851518 0.408627 0.312365 0.152921
H52   H     H_    0.791350 0.251572 0.209276 0.210912
H53   H     H_    0.802881 0.283751 0.159904 0.152334
H54   H     H_    0.883164 0.570017 0.096718 0.164080
H55   H     H_    0.913341 0.218173 0.190687 0.157491
H56   H     H_    0.905564 0.008823 0.269051 0.154426
H57   H     H_    0.883814 0.903195 0.255807 0.154120
H58   H     H_    0.923772 0.915080 0.303640 0.182392
H59   H     H_    0.968000 0.149101 0.324933 0.327503
H60   H     H_    0.889516 0.059835 0.405343 0.163753
H61   H     H_    0.815040 0.119398 0.448362 0.103817
H62   H     H_    0.929562 0.123639 0.439759 0.169897
H63   H     H_    0.911683 0.597274 0.901461 0.115276
H64   H     H_    0.951584 0.469418 0.883320 0.146042
H65   H     H_    0.276223 0.511405 0.315983 0.135867
H66   H     H_    0.991974 0.487182 0.930191 0.152965
H67   H     H_    0.505545 0.741536 0.968743 0.136339
H68   H     H_    0.419195 0.758088 0.928106 0.153486
H69   H     H_    0.393061 0.862566 0.960179 0.146410
H70   H     H_    0.347932 0.950487 0.678311 0.322373
H71   H     H_    0.482452 0.530872 0.286489 0.346500
H72   H     H_    0.349143 0.675702 0.693418 0.344680
H73   H     H_    0.445243 0.555340 0.848915 0.352843
H74   H     H_    0.871316 0.355857 0.811256 0.355591
H75   H     H_    0.940174 0.631920 0.727447 0.368231
H76   H     H_    0.313930 0.467300 0.383318 0.138980
H77   H     H_    0.697626 0.776668 0.830919 0.075052
H78   H     H_    0.781350 0.773641 0.793535 0.197915
H79   H     H_    0.831081 0.726880 0.840654 0.166182
H80   H     H_    0.869166 0.304924 0.600195 0.160844
H81   H     H_    0.779467 0.354788 0.638573 0.151250
H82   H     H_    0.889359 0.376010 0.637659 0.146234
H83   H     H_    0.513552 0.837322 0.806124 0.134131
H84   H     H_    0.493176 0.902863 0.852554 0.154106
H85   H     H_    0.387325 0.913763 0.824194 0.168230
H86   H     H_    0.606013 0.805290 0.567355 0.128550
H87   H     H_    0.094396 0.881728 0.158997 0.169934
H88   H     H_    0.569010 0.880166 0.612055 0.155510
H89   H     H_    0.486911 0.923037 0.570180 0.164505
H90   H     H_    0.593039 0.515040 0.153884 0.367352
H91   H     H_    0.190524 0.344794 0.661977 0.329647
H92   H     H_    0.284447 0.405170 0.729430 0.120790
H93   H     H_    0.395800 0.403943 0.752104 0.124833
H94   H     H_    0.400423 0.359085 0.703613 0.151526
H95   H     H_    0.794859 0.919014 0.758530 0.381071
H96   H     H_    0.333129 0.772537 0.624190 0.171377
H97   H     H_    0.210673 0.892143 0.627610 0.133412
H98   H     H_    0.203946 0.781781 0.413653 0.159136
H99   H     H_    0.293464 0.869669 0.588440 0.210968
H100  H     H_    0.099508 0.575064 0.538750 0.109492
H101  H     H_    0.043162 0.546005 0.579063 0.127514
H102  H     H_    0.111585 0.451503 0.542759 0.168899
H103  H     H_    0.529557 0.985816 0.908035 0.169526
H104  H     H_    0.420851 0.089143 0.882546 0.120891
H105  H     H_    0.416291 0.073147 0.933273 0.162956
H106  H     H_    0.900511 0.035774 0.711444 0.365466
H107  H     H_    0.670670 0.413843 0.801464 0.372717
H108  H     H_    0.406488 0.157741 0.699464 0.058671
O1    O     O_R   0.324990 0.503440 0.453910 -0.519019
O2    O     O_R   0.675430 0.831160 0.051290 -0.467754
O3    O     O_R   0.698870 0.998880 0.039560 -0.494116
O4    O     O_R   0.522030 0.339050 0.458320 -0.507460
O5    O     O_R   0.811290 0.006780 0.950620 -0.518759
O6    O     O_R   0.980960 0.812920 0.953200 -0.504626
O7    O     O_R   0.001480 0.656720 0.955830 -0.527103
O8    O     O_R   0.809240 0.683250 0.968050 -0.466856
O9    O     O_R   0.652500 0.818540 0.967340 -0.475060
O10   O     O_R   0.677620 0.987170 0.961730 -0.468333
O11   O     O_3   0.833240 0.833660 0.999890 -0.269685
O12   O     O_R   0.639980 0.519500 0.542640 -0.439127
O13   O     O_R   0.676180 0.324490 0.458320 -0.461271
O14   O     O_R   0.643570 0.521510 0.464260 -0.475186
O15   O     O_R   0.504630 0.675350 0.460920 -0.470933
O16   O     O_R   0.339850 0.642450 0.459830 -0.496763
O17   O     O_R   0.321120 0.501280 0.538470 -0.459935
O18   O     O_R   0.518440 0.337050 0.536710 -0.460744
O19   O     O_R   0.672300 0.322330 0.542880 -0.511784
O20   O     O_2   0.510441 0.848579 0.082734 -0.488740
O21   O     O_R   0.507994 0.940347 0.135808 -0.712180
O22   O     O_2   0.456644 0.848134 0.425828 -0.498349
O23   O     O_R   0.500750 0.673190 0.545480 -0.469387
O24   O     O_R   0.382646 0.809094 0.375447 -0.654421
O25   O     O_2   0.989561 0.442488 0.146360 -0.545802
O26   O     O_R   0.909883 0.437243 0.199791 -0.684592
O27   O     O_2   0.812920 0.549078 0.468109 -0.511389
O28   O     O_R   0.902334 0.413044 0.428610 -0.651045
O29   O     O_3   0.195132 0.543679 0.079638 -0.554344
O30   O     O_2   0.122383 0.926627 0.368490 -0.521710
O31   O     O_R   0.107522 0.895782 0.305449 -0.723472
O32   O     O_3   0.288902 0.785647 0.202892 -0.571048
O33   O     O_2   0.039615 0.580122 0.216133 -0.489960
O34   O     O_R   0.336260 0.640450 0.538210 -0.459947
O35   O     O_R   0.990929 0.706666 0.172676 -0.718185
O36   O     O_2   0.529204 0.376687 0.167178 -0.521784
O37   O     O_R   0.425149 0.443085 0.218345 -0.712124
O38   O     O_3   0.870851 0.492008 0.356994 -0.525077
O39   O     O_3   0.854193 0.128687 0.171416 -0.596536
O40   O     O_3   0.773265 0.015242 0.290773 -0.572452
O41   O     O_2   0.803967 0.234638 0.293405 -0.535406
O42   O     O_R   0.915455 0.146147 0.341630 -0.663292
O43   O     O_3   0.806199 0.219541 0.405870 -0.518190
O44   O     O_3   0.842197 0.521959 0.926401 -0.516418
O45   O     O_3   0.499990 0.499990 0.500010 -0.290220
O46   O     O_3   0.509567 0.826012 0.922706 -0.564605
O47   O     O_2   0.501927 0.839003 0.712668 -0.523506
O48   O     O_R   0.394206 0.890813 0.661133 -0.695430
O49   O     O_2   0.647438 0.472990 0.316227 -0.540864
O50   O     O_R   0.519330 0.561506 0.272899 -0.692978
O51   O     O_2   0.512097 0.525649 0.705800 -0.496987
O52   O     O_R   0.391960 0.693686 0.711348 -0.654888
O53   O     O_2   0.395464 0.651971 0.790919 -0.479943
O54   O     O_R   0.506784 0.555347 0.837852 -0.668243
O55   O     O_2   0.827239 0.380485 0.877837 -0.450004
O56   O     O_R   0.834210 0.019400 0.034570 -0.511364
O57   O     O_R   0.826346 0.431383 0.816941 -0.673508
O58   O     O_2   0.774013 0.709469 0.697501 -0.468097
O59   O     O_R   0.895614 0.611020 0.741446 -0.620311
O60   O     O_3   0.799448 0.632726 0.806909 -0.521094
O61   O     O_3   0.771481 0.459388 0.598375 -0.543642
O62   O     O_3   0.473224 0.775110 0.850134 -0.539648
O63   O     O_3   0.489420 0.803243 0.597808 -0.546581
O64   O     O_2   0.660717 0.439801 0.215328 -0.498724
O65   O     O_R   0.613659 0.559652 0.169414 -0.723412
O66   O     O_2   0.086152 0.518553 0.682570 -0.544356
O67   O     O_R   0.002210 0.824620 0.031030 -0.513978
O68   O     O_R   0.210032 0.390002 0.647587 -0.624461
O69   O     O_3   0.320832 0.514640 0.710360 -0.534356
O70   O     O_2   0.921580 0.827781 0.806952 -0.548559
O71   O     O_R   0.862855 0.873534 0.745946 -0.633091
O72   O     O_3   0.216752 0.789893 0.585294 -0.560232
O73   O     O_3   0.202546 0.478451 0.580603 -0.476713
O74   O     O_3   0.506683 0.132436 0.918189 -0.558361
O75   O     O_2   0.864758 0.169302 0.667278 -0.555043
O76   O     O_R   0.830490 0.060701 0.699033 -0.608142
O77   O     O_2   0.580705 0.337293 0.827846 -0.494131
O78   O     O_R   0.024400 0.669340 0.039790 -0.474069
O79   O     O_R   0.664901 0.367505 0.781410 -0.668436
O80   O     O_3   0.563370 0.045117 0.694804 -0.503348
O81   O     O_2   0.538949 0.006660 0.804755 -0.615245
O82   O     O_R   0.626424 0.911977 0.753149 -0.621058
O83   O     O_2   0.817573 0.715772 0.342675 -0.504113
O84   O     O_R   0.904565 0.722710 0.292003 -0.709931
O85   O     O_2   0.376657 0.249248 0.584997 -0.457652
O86   O     O_R   0.490335 0.176228 0.536700 -0.688379
O87   O     O_2   0.805331 0.079232 0.778065 -0.493907
O88   O     O_R   0.914026 0.042975 0.828856 -0.691115
O89   O     O_R   0.830490 0.694950 0.045870 -0.510697
O90   O     O_3   0.535563 0.768878 0.322918 -0.545562

loop_
_geom_bond_atom_site_label_1
_geom_bond_atom_site_label_2
_ccdc_geom_bond_type
H5    O82   S    
C157  C158  A    
C18   C21   A    
C61   H103  S    
C145  O46   S    
C19   C20   A    
C21   C137  S    
C2    C65   S    
C114  C115  A    
C44   O50   S    
C58   O71   S    
C126  C127  A    
C75   O2    A    
C84   C86   A    
H42   O31   S    
C154  C158  A    
C117  C119  A    
C5    C6    A    
C85   C96   A    
C155  O61   S    
C19   C55   S    
C143  C144  A    
C83   C93   S    
C108  C109  A    
C27   C90   S    
C89   C94   S    
C110  C111  A    
C45   O51   D    
Cr3   O45   S    
C41   H64   S    
C10   C20   S    
C102  H1    S    
C69   O87   D    
H106  O76   S    
C77   O7    A    
C31   C114  S    
C46   C72   A    
C95   C102  A    
C79   C149  A    
C14   H27   S    
C76   O56   A    
C24   H31   S    
C56   H93   S    
C100  H87   S    
C104  C105  A    
C49   O58   D    
C55   O68   S    
C13   C118  A    
C127  C136  S    
C63   C118  S    
C4    C5    A    
C72   C113  S    
C17   C21   A    
C120  O39   S    
C38   H56   S    
C51   H80   S    
C31   O30   D    
C150  C152  A    
C16   C20   A    
C54   O65   S    
C154  C155  A    
H36   O24   S    
C73   C95   S    
C60   H100  S    
C156  O63   S    
Cr4   O67   S    
C29   C91   S    
Cr2   O19   S    
C146  C147  A    
Cr2   O13   S    
C111  H76   S    
C26   C161  S    
C70   H11   S    
C134  H17   S    
C144  C145  A    
C36   H50   S    
Cr1   O4    S    
C95   C97   A    
C6    C7    A    
C134  C135  A    
Cr1   O17   S    
C62   C68   S    
C24   C46   A    
C64   H4    S    
C56   H94   S    
C118  C129  A    
C91   C94   A    
Cr3   O15   S    
C125  O23   A    
C41   H66   S    
C14   C161  A    
C30   H40   S    
C67   O85   D    
C130  C131  A    
C78   O8    A    
C5    C15   S    
C47   O54   S    
C98   C99   A    
C13   C85   S    
C22   C23   A    
C37   H53   S    
C50   H79   S    
C70   H9    S    
C1    O13   A    
C106  H43   S    
C55   O66   D    
C125  O12   A    
C32   O32   S    
C70   O90   S    
C27   O22   D    
C147  C148  A    
C78   C139  S    
C112  C114  A    
C97   C98   A    
C98   H32   S    
C14   C74   A    
C59   H96   S    
H37   O26   S    
C148  C150  A    
C1    O4    A    
C62   O75   D    
Cr6   O11   S    
C44   O49   D    
C22   C107  A    
C54   O64   D    
Cr1   O1    S    
C65   O81   D    
C53   H89   S    
C60   H102  S    
C9    C10   A    
Cr6   O2    S    
C61   H105  S    
C29   O27   D    
H71   O50   S    
C26   O21   S    
C33   C108  S    
Cr5   O8    S    
C25   C85   A    
C64   H108  S    
C113  O18   A    
C104  H21   S    
C47   O53   D    
C155  C159  A    
C4    H23   S    
C123  H12   S    
C91   C92   A    
H47   O35   S    
C32   H44   S    
C40   H61   S    
C137  O17   A    
C34   O37   S    
C42   H68   S    
C66   O83   D    
C83   C84   A    
C132  C136  A    
C50   O60   S    
H35   O21   S    
C73   O78   A    
C52   H85   S    
C119  H2    S    
C89   O14   A    
C122  H16   S    
C82   C83   A    
C9    O69   S    
C57   C68   A    
C3    C4    A    
C112  C116  A    
C40   O43   S    
C120  C121  A    
C124  C126  A    
C92   O38   S    
H72   O52   S    
C45   C147  S    
C105  C115  S    
C43   C157  S    
C70   H10   S    
C71   C140  S    
C128  O40   S    
C152  O60   S    
C37   O39   S    
Cr1   O45   S    
H38   O28   S    
C36   H49   S    
C139  C141  A    
C106  C108  A    
C75   C149  S    
H59   O42   S    
C110  C115  A    
C35   C79   A    
C11   H24   S    
C54   C81   S    
C64   H3    S    
C47   C146  S    
C10   C11   A    
Cr3   O16   S    
C41   H63   S    
C67   O86   S    
C126  H14   S    
Cr4   O5    S    
C77   O6    A    
C40   H62   S    
C112  H98   S    
C28   O25   D    
C53   O63   S    
C35   C74   A    
C52   H83   S    
C135  C136  A    
C59   O72   S    
C49   C150  S    
C34   O36   D    
C144  O62   S    
C135  H13   S    
C44   C82   S    
Cr5   O89   S    
C143  C153  S    
C99   C109  S    
C18   C19   A    
C38   H57   S    
C51   O61   S    
C16   C17   A    
C101  O1    A    
C79   H54   S    
C111  C116  A    
Cr1   O18   S    
C133  C138  A    
C53   H86   S    
H73   O54   S    
C60   H101  S    
C43   O47   D    
C90   C94   A    
C156  C159  A    
C58   O70   D    
Cr2   O12   S    
C73   O67   A    
C38   O40   S    
Cr4   O6    S    
Cr5   O11   S    
C36   H51   S    
C86   C87   A    
C7    C160  A    
H6    O84   S    
H95   O71   S    
Cr2   O45   S    
C27   O24   S    
C45   O52   S    
C17   O72   S    
C12   C15   A    
C8    H22   S    
C30   H41   S    
C69   O88   S    
C97   O29   S    
C33   O33   D    
C86   H34   S    
C78   O9    A    
C121  C122  A    
C81   C87   A    
Cr5   O78   S    
C96   C107  A    
C88   C90   A    
C8    C15   A    
C56   H92   S    
C149  C161  A    
C37   H52   S    
C127  C128  A    
C101  O16   A    
C129  H29   S    
C49   O59   S    
C7    H20   S    
C2    C151  A    
C128  C130  A    
C133  O43   S    
C119  C120  A    
C125  C159  S    
C105  C106  A    
C76   C117  S    
C103  C109  A    
C51   H81   S    
C62   O76   S    
Cr6   O10   S    
C146  C153  A    
C68   C71   A    
C92   C93   A    
H70   O48   S    
C60   O73   S    
C57   C72   A    
C39   O42   S    
C137  O34   A    
C77   C160  S    
C48   O55   D    
C75   O89   A    
C36   O38   S    
C103  C104  A    
C80   O5    A    
C101  C116  S    
C142  C143  A    
C53   H88   S    
C63   O77   D    
C61   H104  S    
C6    H26   S    
C69   C96   S    
C107  H28   S    
C81   C82   A    
C12   C58   S    
H90   O65   S    
C80   O10   A    
C88   O90   S    
C156  C157  A    
C37   H55   S    
C50   H77   S    
C32   H45   S    
C39   C132  S    
C41   O44   S    
C31   O31   S    
C30   H39   S    
H74   O57   S    
C33   O35   S    
C2    C13   A    
C16   H25   S    
C42   H69   S    
C66   O84   S    
C132  C133  A    
C151  O80   S    
C50   H78   S    
Cr3   O23   S    
Cr6   O9    S    
C18   O73   S    
C121  C131  S    
C39   O41   D    
C52   O62   S    
C154  H18   S    
H7    O86   S    
C59   H97   S    
C28   C35   S    
C43   O48   S    
C130  H15   S    
H48   O37   S    
C8    C9    A    
Cr3   O34   S    
H75   O59   S    
C124  C131  A    
Cr4   O11   S    
C48   O57   S    
C99   C100  A    
C140  C151  A    
C65   O82   S    
C100  C102  A    
Cr4   O56   S    
C48   C142  S    
H91   O68   S    
C148  C158  S    
C152  C153  A    
Cr6   O3    S    
Cr2   O14   S    
C110  H65   S    
C29   O28   S    
C32   H46   S    
C30   O29   S    
C28   O26   S    
C103  O32   S    
C38   H58   S    
C57   H33   S    
C3    C160  A    
C74   C87   S    
C61   O74   S    
C26   O20   D    
C56   O69   S    
Cr5   O7    S    
C3    H19   S    
C34   C124  S    
C113  O19   A    
C88   C93   A    
C139  C145  A    
C59   H99   S    
C64   O80   S    
C134  C138  A    
C42   O46   S    
C11   C12   A    
C63   O79   S    
H107  O79   S    
C141  O44   S    
C76   O3    A    
C40   H60   S    
C117  C123  A    
C22   C80   S    
C46   C67   S    
C141  C142  A    
C42   H67   S    
C129  C140  A    
H8    O88   S    
C23   C25   A    
C51   H82   S    
C52   H84   S    
C25   H30   S    
C66   C84   S    
C89   O15   A    
C122  C123  A    
C1    C138  S    
C23   O74   S    
C24   C71   A    
