data_mof_unit_10429.cif
_audit_creation_date              2012-10-26T21:10:50-0400
_audit_creation_method            fapswitch 2.2
_symmetry_space_group_name_H-M    P1
_symmetry_Int_Tables_number       1
_space_group_crystal_system       triclinic
_cell_length_a                    10.978441
_cell_length_b                    14.673454
_cell_length_c                    14.790749
_cell_angle_alpha                 65.246558
_cell_angle_beta                  102.70629
_cell_angle_gamma                 101.854694
_cell_volume                      2093.40854156

loop_
_atom_site_label
_atom_site_type_symbol
_atom_type_description
_atom_site_fract_x
_atom_site_fract_y
_atom_site_fract_z
_atom_type_partial_charge
C1    C     C_R   0.477121 0.119609 0.313121 0.544302
C2    C     C_R   0.701467 0.766233 0.945830 -0.121157
C3    C     C_R   0.341493 0.159763 0.148452 -0.154055
C4    C     C_R   0.654904 0.839022 0.854857 -0.153003
C5    C     C_R   0.509200 0.286069 0.174034 -0.140286
C6    C     C_R   0.489342 0.712658 0.826124 -0.140020
C7    C     C_R   0.465805 0.360253 0.080369 -0.008614
C8    C     C_R   0.531509 0.637986 0.920034 -0.009825
C9    C     C_R   0.353027 0.332632 0.024016 0.064360
C10   C     C_R   0.643748 0.665218 0.977531 0.066972
C11   C     C_R   0.526821 0.461851 0.044514 -0.026842
C12   C     C_R   0.523028 0.880148 0.687175 0.543713
C13   C     C_R   0.470071 0.536214 0.955364 -0.034808
C14   C     C_R   0.353666 0.506500 0.904719 -0.122599
C15   C     C_R   0.644104 0.490745 0.094213 -0.122174
C16   C     C_R   0.262660 0.001900 0.499500 0.543721
C17   C     C_R   0.736901 0.000176 0.497473 0.545739
C18   C     C_R   0.297863 0.406077 0.936430 0.258470
C19   C     C_R   0.700072 0.590888 0.063596 0.251307
C20   C     C_R   0.650298 0.258872 0.696984 -0.158684
C21   C     C_R   0.336242 0.737659 0.305873 -0.154206
C22   C     C_R   0.645218 0.188758 0.655470 0.016300
C23   C     C_R   0.869863 0.001618 0.493111 -0.003342
C24   C     C_R   0.347166 0.809219 0.347016 0.013664
C25   C     C_R   0.537172 0.293268 0.500863 0.035400
C26   C     C_R   0.467995 0.708611 0.496420 0.029916
C27   C     C_R   0.546261 0.370909 0.536703 -0.018426
C28   C     C_R   0.453060 0.629773 0.461334 -0.027785
C29   C     C_R   0.596922 0.349029 0.639492 0.063655
C30   C     C_R   0.392543 0.648682 0.361330 0.063917
C31   C     C_R   0.498779 0.465419 0.476591 0.027511
C32   C     C_R   0.497958 0.534404 0.521451 0.038884
C33   C     C_R   0.538154 0.505339 0.625756 -0.093084
C34   C     C_R   0.128990 0.005802 0.496969 -0.003392
C35   C     C_R   0.450358 0.492605 0.373408 -0.093807
C36   C     C_R   0.591317 0.415227 0.684842 0.267013
C37   C     C_R   0.390004 0.579390 0.317912 0.283561
C38   C     C_R   0.301173 0.188750 0.698778 -0.160064
C39   C     C_R   0.706852 0.815443 0.288887 -0.162029
C40   C     C_R   0.239332 0.115839 0.661107 -0.082487
C41   C     C_R   0.769305 0.891371 0.322374 -0.092100
C42   C     C_R   0.171789 0.145889 0.563224 0.013194
C43   C     C_R   0.825960 0.865246 0.423055 0.019457
C44   C     C_R   0.168115 0.248936 0.503011 -0.082117
C45   C     C_R   0.910614 0.939891 0.456901 -0.032026
C46   C     C_R   0.818072 0.764116 0.489793 -0.082179
C47   C     C_R   0.226420 0.321604 0.541606 0.272831
C48   C     C_R   0.764381 0.687426 0.454807 0.267252
C49   C     C_R   0.293019 0.291197 0.639808 -0.094986
C50   C     C_R   0.705711 0.713715 0.354698 -0.084520
C51   C     C_R   0.959551 0.067819 0.526840 -0.154870
C52   C     C_R   0.038928 0.942075 0.460002 -0.156063
C53   C     C_3   0.679218 0.464745 0.819705 -0.023508
C54   C     C_3   0.762131 0.424575 0.921325 -0.368090
C55   C     C_3   0.239673 0.527701 0.208427 -0.013893
C56   C     C_R   0.087729 0.071114 0.528798 -0.031249
C57   C     C_3   0.164406 0.567255 0.103302 -0.357965
C58   C     C_3   0.128587 0.456289 0.513835 -0.028308
C59   C     C_3   0.191870 0.544540 0.543464 -0.385685
C60   C     C_3   0.887586 0.563616 0.553377 -0.025541
C61   C     C_3   0.887625 0.456055 0.631233 -0.380906
C62   C     C_3   0.195329 0.343197 0.818350 -0.025184
C63   C     C_3   0.082350 0.265138 0.809945 -0.391401
C64   C     C_3   0.809904 0.627321 0.196310 -0.018508
C65   C     C_3   0.940680 0.660014 0.242399 -0.379622
C66   C     C_R   0.446529 0.187447 0.208251 0.004474
C67   C     C_R   0.552188 0.811537 0.792728 0.002951
C68   C     C_R   0.293578 0.232122 0.058286 -0.123827
Cu1   Cu    Cu3+1 0.466270 0.918260 0.475690 0.934668
Cu2   Cu    Cu3+1 0.533730 0.081740 0.524310 0.935108
H1    H     H_    0.930432 0.117292 0.553578 0.136321
H2    H     H_    0.697910 0.436793 0.155978 0.114057
H3    H     H_    0.602305 0.497579 0.828744 0.146731
H4    H     H_    0.738355 0.525070 0.765680 0.136870
H5    H     H_    0.840471 0.391245 0.915007 0.164281
H6    H     H_    0.802232 0.487283 0.946802 0.122954
H7    H     H_    0.705784 0.365661 0.977987 0.166030
H8    H     H_    0.174504 0.508175 0.263918 0.156618
H9    H     H_    0.276436 0.458156 0.218983 0.137790
H10   H     H_    0.225901 0.585576 0.045925 0.167138
H11   H     H_    0.085531 0.508854 0.095245 0.120175
H12   H     H_    0.068041 0.892278 0.433656 0.133431
H13   H     H_    0.125142 0.636444 0.090384 0.171608
H14   H     H_    0.527436 0.704805 0.566059 0.128510
H15   H     H_    0.484868 0.298736 0.428597 0.123352
H16   H     H_    0.306799 0.878853 0.302474 0.124407
H17   H     H_    0.682820 0.118259 0.701770 0.125377
H18   H     H_    0.693767 0.241132 0.774591 0.144177
H19   H     H_    0.285823 0.753127 0.230345 0.141218
H20   H     H_    0.523647 0.550490 0.663084 0.061933
H21   H     H_    0.457953 0.447703 0.333520 0.083891
H22   H     H_    0.352576 0.165864 0.774532 0.122643
H23   H     H_    0.412174 0.694983 0.774433 0.109543
H24   H     H_    0.662529 0.835180 0.211308 0.117402
H25   H     H_    0.240985 0.036321 0.708781 0.117183
H26   H     H_    0.775888 0.969718 0.269879 0.113857
H27   H     H_    0.114450 0.272565 0.427910 0.110519
H28   H     H_    0.858825 0.745261 0.568120 0.099051
H29   H     H_    0.082494 0.396706 0.577241 0.112061
H30   H     H_    0.052345 0.482617 0.449466 0.134862
H31   H     H_    0.205132 0.613957 0.475027 0.157994
H32   H     H_    0.135085 0.560306 0.586798 0.083902
H33   H     H_    0.282785 0.526682 0.592586 0.151428
H34   H     H_    0.587080 0.303826 0.225168 0.110613
H35   H     H_    0.946232 0.613051 0.590827 0.121686
H36   H     H_    0.930992 0.571023 0.489209 0.125412
H37   H     H_    0.845260 0.401501 0.595443 0.148976
H38   H     H_    0.984860 0.441997 0.666826 0.099987
H39   H     H_    0.837180 0.445091 0.692559 0.185584
H40   H     H_    0.282147 0.305774 0.839324 0.129592
H41   H     H_    0.199512 0.406435 0.743958 0.136174
H42   H     H_    0.993506 0.291095 0.808279 0.166914
H43   H     H_    0.076452 0.252134 0.740340 0.103325
H44   H     H_    0.091798 0.191878 0.875100 0.126389
H45   H     H_    0.337498 0.346986 0.670428 0.114536
H46   H     H_    0.769743 0.555737 0.253389 0.132814
H47   H     H_    0.750165 0.687836 0.176521 0.129311
H48   H     H_    0.983148 0.731174 0.186793 0.150022
H49   H     H_    0.934695 0.673371 0.309679 0.096310
H50   H     H_    0.002078 0.600271 0.265153 0.153064
H51   H     H_    0.704930 0.914998 0.829800 0.112932
H52   H     H_    0.290528 0.084179 0.175041 0.113345
H53   H     H_    0.660520 0.655139 0.327775 0.118116
H54   H     H_    0.206765 0.209325 0.017889 0.147972
H55   H     H_    0.785562 0.788823 0.989640 0.144680
H56   H     H_    0.301577 0.559730 0.840686 0.117315
N1    N     N_R   0.584450 0.204570 0.560790 -0.233528
N2    N     N_R   0.415550 0.795430 0.439210 -0.235437
O1    O     O_R   0.455540 0.022090 0.338120 -0.509757
O2    O     O_3   0.339871 0.602734 0.217297 -0.580739
O3    O     O_3   0.217236 0.422488 0.482494 -0.583549
O4    O     O_3   0.763037 0.586617 0.518677 -0.574937
O5    O     O_3   0.180790 0.382184 0.887545 -0.575901
O6    O     O_3   0.819758 0.613072 0.109789 -0.581403
O7    O     O_R   0.544460 0.977910 0.661880 -0.511652
O8    O     O_R   0.512510 0.160150 0.379180 -0.516147
O9    O     O_R   0.487490 0.839850 0.620820 -0.514637
O10   O     O_R   0.291160 0.930970 0.479480 -0.514914
O11   O     O_R   0.708840 0.069030 0.520520 -0.514258
O12   O     O_R   0.348130 0.069020 0.520540 -0.485760
O13   O     O_R   0.651870 0.930980 0.479460 -0.485392
O14   O     O_3   0.627684 0.383777 0.788937 -0.589476

loop_
_geom_bond_atom_site_label_1
_geom_bond_atom_site_label_2
_ccdc_geom_bond_type
Cu2   N1    S    
Cu2   O12   S    
C8    C13   A    
C23   C45   A    
C27   C29   A    
C14   C18   A    
C2    C4    A    
C3    C68   A    
C61   H39   S    
C60   O4    S    
C47   C49   A    
C38   C49   A    
C21   H19   S    
C53   C54   S    
C19   O6    S    
C15   C19   A    
C15   H2    S    
C29   C36   A    
C17   C23   S    
C51   H1    S    
C64   H46   S    
C62   O5    S    
C35   C37   A    
C51   C56   A    
C1    O1    A    
C41   H26   S    
Cu1   O13   S    
C38   H22   S    
C33   C36   A    
C37   O2    S    
C18   O5    S    
C17   O13   A    
C53   O14   S    
C63   H42   S    
C61   H38   S    
C36   O14   S    
C16   C34   S    
C63   H44   S    
C11   C15   A    
C62   H41   S    
C53   H4    S    
Cu1   N2    S    
C12   O7    A    
C65   H48   S    
C57   H13   S    
C1    O8    A    
C58   O3    S    
C16   O10   A    
C44   C47   A    
C34   C56   A    
C54   H7    S    
C42   C56   S    
C55   O2    S    
C40   C42   A    
C46   H28   S    
C5    H34   S    
Cu2   O11   S    
C13   C14   A    
Cu2   O8    S    
C41   C43   A    
C57   H10   S    
C68   H54   S    
C16   O12   A    
C42   C44   A    
C64   O6    S    
C20   C29   A    
Cu1   O9    S    
C12   C67   S    
C46   C48   A    
C50   H53   S    
C27   C31   A    
C59   H31   S    
C28   C32   A    
C58   H30   S    
C39   C41   A    
C5    C7    A    
C55   H8    S    
C6    C8    A    
C45   C52   A    
C58   C59   S    
C64   H47   S    
C30   C37   A    
C47   O3    S    
C60   C61   S    
C7    C11   A    
C39   H24   S    
C62   C63   S    
C55   H9    S    
C44   H27   S    
C23   C51   A    
C31   C32   A    
C62   H40   S    
C10   C19   A    
C6    H23   S    
C25   H15   S    
C1    C66   S    
C65   H49   S    
C17   O11   A    
C26   N2    A    
C22   H17   S    
C52   H12   S    
C43   C45   S    
C54   H6    S    
C8    C10   A    
C6    C67   A    
C49   H45   S    
C20   C22   A    
C55   C57   S    
Cu2   O7    S    
C31   C35   A    
C3    C66   A    
C40   H25   S    
C2    C10   A    
C60   H36   S    
Cu1   O10   S    
C7    C9    A    
C26   H14   S    
C59   H32   S    
C26   C28   A    
C53   H3    S    
C58   H29   S    
C5    C66   A    
C4    C67   A    
C3    H52   S    
C25   C27   A    
C21   C30   A    
C34   C52   A    
C14   H56   S    
C59   H33   S    
C64   C65   S    
C28   C30   A    
C25   N1    A    
C9    C68   A    
C33   H20   S    
C32   C33   A    
C38   C40   A    
C11   C13   A    
C22   N1    A    
C20   H18   S    
C48   C50   A    
C65   H50   S    
C4    H51   S    
C57   H11   S    
Cu1   Cu2   S    
C61   H37   S    
C43   C46   A    
C54   H5    S    
C63   H43   S    
C2    H55   S    
C9    C18   A    
C39   C50   A    
Cu1   O1    S    
C21   C24   A    
C24   N2    A    
C12   O9    A    
C48   O4    S    
C24   H16   S    
C60   H35   S    
C35   H21   S    
