data_mof_unit_14626.cif
_audit_creation_date              2012-12-10T18:05:45-0500
_audit_creation_method            fapswitch 2.2
_symmetry_space_group_name_H-M    P1
_symmetry_Int_Tables_number       1
_space_group_crystal_system       triclinic
_cell_length_a                    10.84611
_cell_length_b                    10.921266
_cell_length_c                    9.590579
_cell_angle_alpha                 90.90611
_cell_angle_beta                  89.232195
_cell_angle_gamma                 92.014659
_cell_volume                      1135.0972965

loop_
_atom_site_label
_atom_site_type_symbol
_atom_type_description
_atom_site_fract_x
_atom_site_fract_y
_atom_site_fract_z
_atom_type_partial_charge
C1    C     C_R   0.502240 0.262303 0.498469 0.848844
C2    C     C_R   0.497760 0.737697 0.501531 0.848844
C3    C     C_R   0.871474 0.502457 0.497508 -0.131559
C4    C     C_R   0.128525 0.497544 0.502492 -0.131558
C5    C     C_R   0.940129 0.606001 0.545901 -0.081298
C6    C     C_R   0.059871 0.393999 0.454100 -0.081297
C7    C     C_R   0.508304 0.058451 0.370263 0.418976
C8    C     C_R   0.491698 0.941549 0.629737 0.418977
C9    C     C_R   0.499984 0.931864 0.376034 -0.256209
C10   C     C_R   0.500018 0.068135 0.623966 -0.256208
C11   C     C_R   0.494215 0.871656 0.503970 -0.200340
C12   C     C_R   0.505785 0.128343 0.496030 -0.200336
C13   C     C_R   0.437642 0.409720 0.075823 0.476529
C14   C     C_R   0.562359 0.590280 0.924177 0.476529
C15   C     C_R   0.436547 0.409815 0.926883 0.306447
C16   C     C_R   0.563453 0.590185 0.073117 0.306447
C17   C     C_R   0.262547 0.497503 0.500748 0.830185
C18   C     C_R   0.737453 0.502497 0.499252 0.830184
C19   C     C_R   0.166728 0.113020 0.253950 -0.075054
C20   C     C_R   0.833280 0.886976 0.746065 -0.075060
C21   C     C_R   0.126368 0.232020 0.278213 0.513115
C22   C     C_R   0.873637 0.767976 0.721795 0.513108
C23   C     C_R   0.120834 0.278407 0.417380 0.017405
C24   C     C_R   0.879165 0.721592 0.582627 0.017410
C25   C     C_R   0.160479 0.206395 0.526835 -0.194430
C26   C     C_R   0.839517 0.793606 0.473176 -0.194429
C27   C     C_R   0.201291 0.088730 0.500298 -0.118365
C28   C     C_R   0.798706 0.911272 0.499719 -0.118363
C29   C     C_R   0.203055 0.041432 0.364360 -0.152864
C30   C     C_R   0.796949 0.958567 0.635659 -0.152852
C31   C     C_R   0.930851 0.396848 0.451570 0.115963
C32   C     C_R   0.069149 0.603152 0.548430 0.115966
Cu1   Cu    Cu3+1 0.500000 0.500020 0.640660 1.020232
Cu2   Cu    Cu3+1 0.500000 0.499980 0.359340 1.020232
H1    H     H_    0.233482 0.949457 0.344257 0.175238
H2    H     H_    0.766523 0.050542 0.655766 0.175235
H3    H     H_    0.169748 0.075787 0.148703 0.164167
H4    H     H_    0.830265 0.924207 0.851313 0.164166
H5    H     H_    0.155930 0.240088 0.633565 0.167455
H6    H     H_    0.844061 0.759917 0.366445 0.167452
H7    H     H_    0.230772 0.034141 0.585830 0.184444
H8    H     H_    0.769222 0.965863 0.414190 0.184441
H9    H     H_    0.501667 0.880713 0.278363 0.234449
H10   H     H_    0.498335 0.119287 0.721637 0.234447
N1    N     N_R   0.500030 0.500030 0.852070 -0.266944
N2    N     N_R   0.499970 0.499970 0.147930 -0.266943
O1    O     O_R   0.499990 0.319660 0.618740 -0.585720
O2    O     O_R   0.500010 0.680340 0.381260 -0.585719
O3    O     O_R   0.499990 0.319630 0.381170 -0.515280
O4    O     O_R   0.500010 0.680370 0.618830 -0.515278
O5    O     O_R   0.319650 0.500020 0.618780 -0.602163
O6    O     O_R   0.680350 0.499980 0.381220 -0.602163
O7    O     O_R   0.319640 0.500000 0.381210 -0.538340
O8    O     O_R   0.680360 0.500000 0.618790 -0.538342
O9    O     O_3   0.370458 0.316503 0.861133 -0.737285
H11   H     H_    0.334437 0.349378 0.777011 0.372020
O10   O     O_3   0.629541 0.683497 0.138868 -0.737286
H12   H     H_    0.665563 0.650622 0.222989 0.372019
O11   O     O_3   0.091063 0.297747 0.164419 -0.709287
H13   H     H_    0.076631 0.383443 0.193477 0.343858
O12   O     O_3   0.908944 0.702245 0.835586 -0.709288
H14   H     H_    0.923369 0.616548 0.806524 0.343855
I1    I     I_    0.825068 0.238307 0.385819 -0.425497
I2    I     I_    0.174933 0.761693 0.614182 -0.425496
O13   O     O_3   0.516474 0.109202 0.239943 -0.682732
H15   H     H_    0.587055 0.168991 0.240565 0.361935
O14   O     O_3   0.483528 0.890798 0.760057 -0.682727
H16   H     H_    0.412946 0.831010 0.759436 0.361935
O15   O     O_3   0.373375 0.321474 0.151158 -0.652717
H17   H     H_    0.342174 0.255211 0.088188 0.374818
O16   O     O_3   0.626625 0.678526 0.848841 -0.652718
H18   H     H_    0.657835 0.744784 0.911813 0.374816

loop_
_geom_bond_atom_site_label_1
_geom_bond_atom_site_label_2
_ccdc_geom_bond_type
O9    H11   S    
Cu2   N2    S    
C17   O7    A    
Cu1   O5    S    
Cu1   N1    S    
C14   O16   S    
C29   H1    S    
C6    C23   S    
C30   H2    S    
C5    C32   A    
C17   O5    A    
C28   C30   A    
Cu1   Cu2   S    
C4    C32   A    
C18   O6    A    
O11   H13   S    
C15   O9    S    
C20   C30   A    
C25   H5    S    
C22   O12   S    
C3    C31   A    
C9    C11   A    
C26   H6    S    
O10   H12   S    
O15   H17   S    
C1    C12   S    
C10   C12   A    
C3    C18   S    
C8    C11   A    
C2    C11   S    
Cu2   O7    S    
C28   H8    S    
C19   C21   A    
C20   C22   A    
C21   O11   S    
C14   N1    A    
C14   C16   A    
C16   O10   S    
C13   C15   A    
C21   C23   A    
O12   H14   S    
Cu1   O1    S    
C22   C24   A    
C7    C12   A    
C9    H9    S    
Cu2   O2    S    
C18   O8    A    
C10   H10   S    
O14   H16   S    
C19   C29   A    
C31   I1    S    
C2    O4    A    
O16   H18   S    
C23   C25   A    
C20   H4    S    
C27   C29   A    
C32   I2    S    
C8    O14   S    
C4    C6    A    
O13   H15   S    
C1    O3    A    
C16   N2    A    
Cu1   O8    S    
C7    C9    A    
C13   O15   S    
C15   N1    A    
C13   N2    A    
C5    C24   S    
Cu2   O3    S    
C6    C31   A    
Cu2   O6    S    
C19   H3    S    
C2    O2    A    
Cu1   O4    S    
C26   C28   A    
C7    O13   S    
C8    C10   A    
C1    O1    A    
C24   C26   A    
C27   H7    S    
C3    C5    A    
C25   C27   A    
C4    C17   S    
