data_mof_unit_43761.cif
_audit_creation_date              2012-12-10T20:39:57-0500
_audit_creation_method            fapswitch 2.2
_symmetry_space_group_name_H-M    P1
_symmetry_Int_Tables_number       1
_space_group_crystal_system       triclinic
_cell_length_a                    23.42215
_cell_length_b                    10.635489
_cell_length_c                    9.856266
_cell_angle_alpha                 90.0613
_cell_angle_beta                  90.382606
_cell_angle_gamma                 90.408246
_cell_volume                      2455.13658317

loop_
_atom_site_label
_atom_site_type_symbol
_atom_type_description
_atom_site_fract_x
_atom_site_fract_y
_atom_site_fract_z
_atom_type_partial_charge
C1    C     C_R   0.497184 0.259817 0.499982 0.905134
C2    C     C_R   0.969969 0.275981 0.522009 -0.157607
C3    C     C_R   0.029393 0.276289 0.521008 -0.157647
C4    C     C_R   0.059776 0.390092 0.510759 -0.014641
C5    C     C_R   0.030060 0.504528 0.501565 -0.021851
C6    C     C_R   0.060179 0.619264 0.491406 -0.014710
C7    C     C_R   0.030174 0.732760 0.482208 -0.157466
C8    C     C_R   0.970740 0.732440 0.482935 -0.157867
C9    C     C_R   0.119380 0.392818 0.509677 0.503601
C10   C     C_R   0.119788 0.617105 0.490474 0.503509
C11   C     C_R   0.238684 0.548069 0.612880 -0.096512
C12   C     C_R   0.389349 0.500426 0.499673 0.861208
C13   C     C_R   0.297928 0.546690 0.613071 -0.216711
C14   C     C_R   0.327211 0.502411 0.499110 -0.034334
C15   C     C_R   0.296671 0.460263 0.384797 -0.222806
C16   C     C_R   0.237423 0.461579 0.384821 -0.094671
C17   C     C_R   0.208520 0.505262 0.498916 0.315587
C18   C     C_R   0.762104 0.522711 0.381199 -0.100901
C19   C     C_R   0.702845 0.521478 0.380168 -0.215544
C20   C     C_R   0.672934 0.500860 0.501194 -0.042433
C21   C     C_R   0.702975 0.481092 0.622953 -0.217598
C22   C     C_R   0.762237 0.482075 0.623544 -0.102383
C23   C     C_R   0.495152 0.739982 0.499542 0.892702
C24   C     C_R   0.791667 0.502987 0.502778 0.323224
C25   C     C_R   0.482502 0.064020 0.622105 0.088023
C26   C     C_R   0.483956 0.129182 0.500448 -0.155802
C27   C     C_R   0.468314 0.067384 0.380213 -0.217016
C28   C     C_R   0.465588 0.936423 0.377772 0.183161
C29   C     C_R   0.480304 0.870750 0.498851 -0.171881
C30   C     C_R   0.479828 0.935956 0.622005 0.102057
C31   C     C_3   0.516811 0.927689 0.746564 -0.016678
C32   C     C_3   0.520541 0.070611 0.744022 -0.468693
C33   C     C_R   0.462584 0.425299 0.070484 0.211938
C34   C     C_R   0.610694 0.500196 0.500363 0.881073
C35   C     C_R   0.540913 0.562651 0.073321 -0.191367
C36   C     C_R   0.541265 0.562422 0.928970 0.136962
C37   C     C_R   0.462450 0.425695 0.927947 0.172004
C38   C     C_3   0.399016 0.432580 0.921533 -0.487602
C39   C     C_3   0.399126 0.431119 0.075345 -0.514831
C40   C     C_R   0.880734 0.615819 0.493596 0.502954
C41   C     C_R   0.880371 0.391550 0.513009 0.503634
C42   C     C_R   0.939972 0.389467 0.512740 -0.015084
C43   C     C_R   0.970081 0.504212 0.502450 -0.021860
C44   C     C_R   0.940351 0.618622 0.492904 -0.014803
H1    H     H_    0.947682 0.186725 0.529934 0.193329
H2    H     H_    0.680559 0.537231 0.285114 0.156212
H3    H     H_    0.680804 0.464044 0.717253 0.158211
H4    H     H_    0.785380 0.466658 0.717479 0.138648
H5    H     H_    0.462193 0.119774 0.286994 0.170215
H6    H     H_    0.558377 0.881084 0.727886 0.173428
H7    H     H_    0.499657 0.118615 0.830691 0.211566
H8    H     H_    0.563991 0.106498 0.719643 0.183559
H9    H     H_    0.572987 0.615577 0.129080 0.150004
H10   H     H_    0.051378 0.187259 0.528217 0.193060
H11   H     H_    0.383889 0.523106 0.878854 0.211005
H12   H     H_    0.379559 0.346835 0.875510 0.210305
H13   H     H_    0.383506 0.520258 0.120470 0.220430
H14   H     H_    0.380252 0.343716 0.118164 0.196960
H15   H     H_    0.052464 0.822018 0.474360 0.193325
H16   H     H_    0.948750 0.821455 0.475601 0.193022
H17   H     H_    0.216127 0.581997 0.701055 0.142203
H18   H     H_    0.320717 0.581517 0.701357 0.150365
H19   H     H_    0.318443 0.424730 0.296564 0.153321
H20   H     H_    0.213884 0.428395 0.296714 0.142388
H21   H     H_    0.785149 0.538638 0.287818 0.138043
N1    N     N_R   0.852358 0.503501 0.503394 -0.361015
N2    N     N_R   0.147803 0.505088 0.499554 -0.360618
N3    N     N_R   0.499610 0.499140 0.142800 -0.110148
N4    N     N_R   0.499610 0.499180 0.857150 -0.109895
O1    O     O_R   0.500010 0.316790 0.614690 -0.613281
O2    O     O_2   0.850489 0.282903 0.521895 -0.547900
O3    O     O_2   0.148865 0.284571 0.519497 -0.548462
O4    O     O_2   0.149658 0.725618 0.479807 -0.548401
O5    O     O_R   0.500000 0.316760 0.385350 -0.620111
O6    O     O_R   0.416160 0.499980 0.614700 -0.625374
O7    O     O_R   0.416150 0.499940 0.385360 -0.626452
O8    O     O_R   0.500000 0.683240 0.614650 -0.606496
O9    O     O_R   0.499990 0.683210 0.385310 -0.612420
O10   O     O_R   0.583850 0.500060 0.614640 -0.598196
O11   O     O_R   0.583840 0.500020 0.385300 -0.621941
O12   O     O_2   0.851202 0.724090 0.485132 -0.548630
Zn1   Zn    Zn3+2 0.500000 0.500020 0.653130 0.957676
Zn2   Zn    Zn3+2 0.500000 0.499980 0.346870 0.942765
C45   C     C_3   0.450339 0.872781 0.245226 -0.840554
H22   H     H_    0.417625 0.798474 0.262361 0.250304
H23   H     H_    0.432071 0.940289 0.171041 0.219260
H24   H     H_    0.488996 0.831752 0.198763 0.249275
C46   C     C_3   0.484218 0.876694 0.869276 -0.858653
H25   H     H_    0.511175 0.887274 0.961599 0.231384
H26   H     H_    0.443579 0.928001 0.884723 0.245544
H27   H     H_    0.473930 0.775693 0.854541 0.264993
N5    N     N_3   0.584759 0.630086 0.858426 -0.395343
H28   H     H_    0.624003 0.590810 0.885356 0.162986
H29   H     H_    0.585110 0.722619 0.893981 0.164640

loop_
_geom_bond_atom_site_label_1
_geom_bond_atom_site_label_2
_ccdc_geom_bond_type
C22   H4    S    
C37   N4    A    
C35   H9    S    
C41   C42   A    
C19   C20   A    
C9    O3    S    
O5    Zn2   S    
C19   H2    S    
C7    C8    A    
C10   N2    A    
C18   H21   S    
C5    C6    A    
C26   C27   A    
C29   C30   A    
C18   C24   A    
C1    O5    A    
C23   C29   S    
C28   C29   A    
C45   H23   S    
C30   C31   S    
C10   O4    S    
C28   C45   S    
C15   C16   A    
C39   H13   S    
C35   N3    A    
C18   C19   A    
C32   H8    S    
N4    Zn1   S    
C34   O11   A    
O9    Zn2   S    
C38   H11   S    
C35   C36   A    
C16   C17   A    
C45   H24   S    
C24   N1    S    
C41   O2    S    
C20   C34   S    
C36   N5    S    
C25   C32   S    
C5    C43   A    
C40   N1    A    
C21   C22   A    
O11   Zn2   S    
O7    Zn2   S    
C7    H15   S    
C2    H1    S    
C17   N2    S    
C13   H18   S    
C45   H22   S    
C25   C26   A    
C39   H14   S    
C33   C37   A    
C43   C44   A    
C9    N2    A    
C32   H7    S    
C37   C38   S    
C34   O10   A    
C31   C32   S    
C46   H27   S    
C20   C21   A    
N5    H29   S    
C33   C39   S    
C23   O8    A    
C41   N1    A    
C46   H26   S    
C12   O7    A    
C1    C26   S    
C22   C24   A    
C42   C43   A    
C31   H6    S    
C3    C4    A    
C36   N4    A    
C25   C30   A    
C11   C17   A    
C31   C46   S    
N3    Zn2   S    
C40   O12   S    
C8    C44   A    
C12   C14   S    
C4    C5    A    
C11   H17   S    
C6    C10   A    
O10   Zn1   S    
O6    Zn1   S    
C6    C7    A    
C1    O1    A    
C2    C3    A    
C8    H16   S    
C11   C13   A    
C38   C39   S    
O8    Zn1   S    
C2    C42   A    
N5    H28   S    
C3    H10   S    
C23   O9    A    
O1    Zn1   S    
C40   C44   A    
C38   H12   S    
C46   H25   S    
C12   O6    A    
C27   C28   A    
C15   H19   S    
C14   C15   A    
C16   H20   S    
C4    C9    A    
C13   C14   A    
C27   H5    S    
C33   N3    A    
C21   H3    S    
