data_mof_unit_33321.cif
_audit_creation_date              2012-12-10T20:02:28-0500
_audit_creation_method            fapswitch 2.2
_symmetry_space_group_name_H-M    P1
_symmetry_Int_Tables_number       1
_space_group_crystal_system       triclinic
_cell_length_a                    10.717694
_cell_length_b                    15.023361
_cell_length_c                    14.140246
_cell_angle_alpha                 88.576189
_cell_angle_beta                  90.898412
_cell_angle_gamma                 89.387596
_cell_volume                      2275.68028661

loop_
_atom_site_label
_atom_site_type_symbol
_atom_type_description
_atom_site_fract_x
_atom_site_fract_y
_atom_site_fract_z
_atom_type_partial_charge
C1    C     C_R   0.500127 0.327197 0.501297 0.874736
C2    C     C_R   0.414855 0.813146 0.559723 0.206882
C3    C     C_R   0.499240 0.230472 0.502837 -0.119446
C4    C     C_R   0.492955 0.767158 0.497928 -0.052361
C5    C     C_R   0.487019 0.188142 0.415569 -0.218883
C6    C     C_R   0.570713 0.812882 0.435405 -0.250308
C7    C     C_R   0.485552 0.096495 0.412223 -0.138401
C8    C     C_R   0.570275 0.904764 0.433095 -0.152819
C9    C     C_R   0.496516 0.046273 0.496001 0.075027
C10   C     C_R   0.492480 0.950591 0.493905 0.099858
C11   C     C_R   0.545930 0.422198 0.108894 0.116057
C12   C     C_R   0.497059 0.671959 0.499208 0.905938
C13   C     C_R   0.587612 0.552773 0.893775 0.105514
C14   C     C_R   0.541091 0.425511 0.208363 -0.151624
C15   C     C_R   0.581632 0.552864 0.794314 -0.081876
C16   C     C_R   0.260075 0.504220 0.498821 0.926169
C17   C     C_R   0.740107 0.496757 0.500883 0.849928
C18   C     C_R   0.465391 0.574184 0.199724 0.650805
C19   C     C_R   0.417596 0.447468 0.795997 0.711893
C20   C     C_R   0.463761 0.571664 0.099531 -0.394215
C21   C     C_R   0.422156 0.445533 0.897088 -0.399675
C22   C     C_R   0.507052 0.496644 0.052938 0.066225
C23   C     C_R   0.872615 0.495951 0.501459 -0.075782
C24   C     C_R   0.507739 0.497474 0.946612 0.064028
C25   C     C_R   0.173218 0.751868 0.290779 0.172697
C26   C     C_R   0.869076 0.251972 0.729050 0.162835
C27   C     C_R   0.138732 0.694715 0.366101 0.438815
C28   C     C_R   0.893615 0.303506 0.647218 0.406998
C29   C     C_R   0.110181 0.604973 0.348410 -0.130315
C30   C     C_R   0.891355 0.397356 0.651392 -0.148188
C31   C     C_R   0.112783 0.573908 0.255080 0.527441
C32   C     C_R   0.864422 0.438482 0.737272 0.518107
C33   C     C_R   0.140853 0.633405 0.180304 -0.250540
C34   C     C_R   0.127822 0.503959 0.496743 -0.070328
C35   C     C_R   0.831592 0.386080 0.816345 -0.274841
C36   C     C_R   0.171325 0.721447 0.198264 -0.243242
C37   C     C_R   0.835966 0.293434 0.812543 -0.256751
C38   C     C_R   0.929515 0.542026 0.427249 -0.220286
C39   C     C_R   0.071063 0.455290 0.568687 -0.205862
C40   C     C_3   0.489569 0.725155 0.212790 -0.272236
C41   C     C_3   0.243747 0.351982 0.794846 -0.326997
C42   C     C_3   0.019262 0.765855 0.472869 -0.225322
C43   C     C_3   0.832166 0.246024 0.507607 -0.205851
C44   C     C_3   0.173919 0.438236 0.202144 -0.251064
C45   C     C_R   0.943442 0.451133 0.572710 0.131873
C46   C     C_3   0.977875 0.553673 0.792407 -0.262936
C47   C     C_R   0.057413 0.547849 0.424506 0.124608
C48   C     C_R   0.510223 0.087050 0.582919 -0.187292
C49   C     C_R   0.414361 0.905058 0.556308 -0.159323
C50   C     C_R   0.510878 0.178749 0.587727 0.176062
H1    H     H_    0.194704 0.765985 0.140026 0.192811
H2    H     H_    0.806846 0.417260 0.881753 0.210229
H3    H     H_    0.873923 0.577123 0.373034 0.160746
H4    H     H_    0.126648 0.419613 0.622070 0.181731
H5    H     H_    0.520884 0.047008 0.647430 0.173994
H6    H     H_    0.353659 0.941201 0.602824 0.167687
H7    H     H_    0.477555 0.225653 0.349384 0.177921
H8    H     H_    0.633400 0.777357 0.389818 0.147872
H9    H     H_    0.472434 0.779918 0.261881 0.217053
H10   H     H_    0.452849 0.748993 0.142750 0.169466
H11   H     H_    0.592296 0.713333 0.210804 0.163419
H12   H     H_    0.815292 0.253686 0.875091 0.232818
H13   H     H_    0.180610 0.317438 0.745273 0.207240
H14   H     H_    0.185534 0.398948 0.835337 0.136870
H15   H     H_    0.287315 0.299380 0.841554 0.207415
H16   H     H_    0.943837 0.715828 0.474010 0.142976
H17   H     H_    0.996295 0.819389 0.419446 0.167907
H18   H     H_    0.021835 0.796929 0.543195 0.222141
H19   H     H_    0.780391 0.308343 0.487476 0.125349
H20   H     H_    0.768543 0.197143 0.541268 0.175004
H21   H     H_    0.866260 0.216612 0.441519 0.200485
H22   H     H_    0.254705 0.437037 0.252447 0.179820
H23   H     H_    0.474159 0.064808 0.344659 0.165490
H24   H     H_    0.202779 0.463012 0.131144 0.141330
H25   H     H_    0.143322 0.368463 0.194431 0.199847
H26   H     H_    0.062987 0.529419 0.756582 0.164889
H27   H     H_    0.977013 0.528619 0.867089 0.168408
H28   H     H_    0.982675 0.627349 0.793660 0.224348
H29   H     H_    0.632363 0.939996 0.385811 0.146430
H30   H     H_    0.572046 0.368232 0.250451 0.182432
H31   H     H_    0.642838 0.595410 0.753900 0.216437
H32   H     H_    0.428633 0.627938 0.057536 0.179554
H33   H     H_    0.359929 0.404857 0.938743 0.167040
H34   H     H_    0.137698 0.611761 0.107881 0.169230
I1    I     I_    0.615607 0.304506 0.048161 -0.381234
I2    I     I_    0.721232 0.635037 0.959532 -0.383456
I3    I     I_    0.226429 0.885135 0.313725 -0.373722
I4    I     I_    0.886547 0.111430 0.729910 -0.284878
I5    I     I_    0.532321 0.226139 0.727378 -0.305032
I6    I     I_    0.294829 0.750987 0.659762 -0.309434
N1    N     N_R   0.500000 0.499980 0.252470 -0.150575
N2    N     N_R   0.500000 0.500020 0.747530 -0.146708
O1    O     O_R   0.500010 0.369070 0.579480 -0.557659
O2    O     O_3   0.334759 0.397667 0.741954 -0.574154
O3    O     O_3   0.136583 0.725622 0.457301 -0.589736
O4    O     O_3   0.935654 0.262640 0.567005 -0.582188
O5    O     O_3   0.073335 0.488438 0.236865 -0.593747
O6    O     O_3   0.868403 0.530184 0.742765 -0.602308
O7    O     O_R   0.499990 0.630930 0.420520 -0.568494
O8    O     O_R   0.500010 0.369060 0.420520 -0.650653
O9    O     O_R   0.499990 0.630940 0.579480 -0.615807
O10   O     O_R   0.316760 0.500010 0.579480 -0.572629
O11   O     O_R   0.683240 0.499990 0.420520 -0.623244
O12   O     O_R   0.316760 0.500000 0.420520 -0.626780
O13   O     O_R   0.683240 0.500000 0.579480 -0.603503
O14   O     O_3   0.425263 0.649136 0.245762 -0.594616
Zn1   Zn    Zn3+2 0.500000 0.500010 0.606140 1.037335
Zn2   Zn    Zn3+2 0.500000 0.499990 0.393860 0.981107

loop_
_geom_bond_atom_site_label_1
_geom_bond_atom_site_label_2
_ccdc_geom_bond_type
O9    Zn1   S    
C48   H5    S    
C23   C45   A    
C20   H32   S    
C27   C29   A    
C6    H8    S    
C30   C45   S    
C27   O3    S    
C46   H26   S    
C37   H12   S    
C7    H23   S    
O7    Zn2   S    
O13   Zn1   S    
C17   C23   S    
C29   C47   S    
C40   H10   S    
C18   N1    A    
C40   O14   S    
C35   C37   A    
C11   C14   A    
C39   H4    S    
C25   I3    S    
C33   C36   A    
C2    I6    S    
C12   O7    A    
C19   N2    A    
N2    Zn1   S    
C16   C34   S    
C15   N2    A    
C16   O12   A    
C21   H33   S    
C13   I2    S    
C8    H29   S    
C31   C33   A    
O11   Zn2   S    
C14   H30   S    
C4    C12   S    
C9    C10   S    
C39   C45   A    
C48   C50   A    
C46   O6    S    
C43   H19   S    
C40   H9    S    
C42   H18   S    
C1    O8    A    
C3    C50   A    
O8    Zn2   S    
C42   O3    S    
C32   C35   A    
C15   H31   S    
C5    C7    A    
C41   H15   S    
C40   H11   S    
C34   C39   A    
C13   C24   A    
C1    C3    S    
C44   H25   S    
C2    C4    A    
C18   O14   S    
C2    C49   A    
C17   O13   A    
C44   O5    S    
C50   I5    S    
C41   O2    S    
C43   O4    S    
O10   Zn1   S    
C44   H24   S    
C19   O2    S    
C38   C47   A    
C36   H1    S    
C4    C6    A    
C20   C22   A    
C43   H20   S    
C13   C15   A    
C42   H17   S    
C22   C24   S    
C41   H13   S    
C23   C38   A    
O12   Zn2   S    
C46   H28   S    
C16   O10   A    
C7    C9    A    
C43   H21   S    
C19   C21   A    
N1    Zn2   S    
C8    C10   A    
C3    C5    A    
C46   H27   S    
C6    C8    A    
C26   C37   A    
C25   C27   A    
C49   H6    S    
C11   C22   A    
C26   C28   A    
C5    H7    S    
C28   O4    S    
C28   C30   A    
C17   O11   A    
C12   O9    A    
C29   C31   A    
O1    Zn1   S    
C30   C32   A    
C38   H3    S    
C11   I1    S    
C32   O6    S    
C44   H22   S    
C18   C20   A    
C31   O5    S    
C33   H34   S    
C14   N1    A    
C25   C36   A    
C26   I4    S    
C9    C48   A    
C1    O1    A    
C21   C24   A    
C35   H2    S    
C42   H16   S    
C34   C47   A    
C41   H14   S    
C10   C49   A    
