data_mof_unit_21403.cif
_audit_creation_date              2013-03-05T15:48:23-0500
_audit_creation_method            fapswitch 2.2
_symmetry_space_group_name_H-M    P1
_symmetry_Int_Tables_number       1
_space_group_crystal_system       triclinic
_cell_length_a                    8.343373
_cell_length_b                    19.191524
_cell_length_c                    18.990032
_cell_angle_alpha                 99.674319
_cell_angle_beta                  94.596666
_cell_angle_gamma                 91.783067
_cell_volume                      2984.76201828

loop_
_atom_site_label
_atom_site_type_symbol
_atom_site_description
_atom_site_fract_x
_atom_site_fract_y
_atom_site_fract_z
_atom_type_partial_charge
P1    P     P_3+3 0.945400 0.662120 0.569160 0.459586
O1    O     O_2   0.116570 0.673370 0.549300 -0.372699
O2    O     O_3   0.869340 0.584760 0.542960 -0.409399
O3    O     O_3   0.352540 0.630870 0.419750 -0.366544
O4    O     O_2   0.275360 0.755474 0.475711 -0.418692
O5    O     O_3   0.956284 0.697132 0.662296 -0.566267
O6    O     O_3   0.307473 0.739710 0.337244 -0.525026
H1    H     H_    0.302958 0.637373 0.280955 0.144309
C1    C     C_3   0.327473 0.713415 0.210862 -0.971991
H2    H     H_    0.196284 0.719290 0.200469 0.294686
H3    H     H_    0.392003 0.764833 0.210511 0.248408
P2    P     P_3+3 0.355390 0.445380 0.336430 0.524149
P3    P     P_3+3 0.908216 0.591862 0.289087 0.436187
O7    O     O_2   0.181320 0.466870 0.327560 -0.378334
O8    O     O_3   0.937730 0.595370 0.381630 -0.389270
O9    O     O_2   0.034064 0.543357 0.253551 -0.392306
O10   O     O_3   0.354973 0.352234 0.314943 -0.528821
O11   O     O_3   0.957060 0.675022 0.268591 -0.523327
C2    C     C_3   0.898858 0.727063 0.320184 0.494860
H4    H     H_    0.966021 0.728217 0.373452 0.131843
H5    H     H_    0.768130 0.717455 0.323940 0.007037
C3    C     C_3   0.923294 0.799092 0.298257 -0.993406
H6    H     H_    0.052926 0.810551 0.293814 0.291920
H7    H     H_    0.855231 0.799944 0.245729 0.255490
C4    C     C_3   0.780794 0.378397 0.309668 0.395853
H8    H     H_    0.685864 0.402595 0.342130 0.076890
H9    H     H_    0.878839 0.418870 0.309880 0.097684
C5    C     C_3   0.704900 0.353574 0.232929 -0.419155
H10   H     H_    0.608302 0.312865 0.233745 0.238438
H11   H     H_    0.650645 0.398487 0.211880 0.178128
Ba1   Ba    Ba6+2 0.152000 0.534910 0.469330 1.566064
C6    C     C_3   0.953154 0.646383 0.707064 0.415935
H12   H     H_    0.074172 0.627227 0.715005 0.020555
H13   H     H_    0.861742 0.604309 0.686441 0.153011
C7    C     C_3   0.916952 0.679826 0.782191 -0.973172
H14   H     H_    0.985476 0.731394 0.799302 0.263711
H15   H     H_    0.952441 0.643896 0.820461 0.220125
H16   H     H_    0.786608 0.687138 0.784404 0.264095
C8    C     C_3   0.216573 0.321555 0.271490 0.443339
H17   H     H_    0.121722 0.358235 0.261026 0.101902
H18   H     H_    0.160603 0.281824 0.299647 0.108612
C9    C     C_3   0.264103 0.283550 0.199568 -1.104496
H19   H     H_    0.298093 0.322667 0.165184 0.251481
H20   H     H_    0.159529 0.249552 0.171397 0.246866
H21   H     H_    0.366490 0.248987 0.207888 0.279286
P4    P     P_3+3 0.864900 0.337880 0.430780 0.526519
O12   O     O_2   0.693730 0.326590 0.450680 -0.306167
O13   O     O_3   0.940960 0.415230 0.456980 -0.369130
O14   O     O_3   0.457750 0.369120 0.580200 -0.319909
O15   O     O_3   0.841661 0.320055 0.336811 -0.577951
P5    P     P_3+3 0.903430 0.414915 0.713190 0.423746
O16   O     O_3   0.373690 0.535540 0.586160 -0.346718
O17   O     O_3   0.872560 0.404620 0.618320 -0.414758
O18   O     O_2   0.758881 0.453238 0.745126 -0.374694
O19   O     O_3   0.884826 0.332812 0.740830 -0.531516
Ba2   Ba    Ba6+2 0.658180 0.465080 0.530610 1.583419
P6    P     P_3+3 0.384413 0.720212 0.419643 0.430733
C10   C     C_3   0.364150 0.690001 0.282803 0.496067
H22   H     H_    0.496559 0.685342 0.290913 -0.000504
H23   H     H_    0.367532 0.673274 0.167500 0.220646
O20   O     O_3   0.436600 0.464450 0.413780 -0.314697
C11   C     C_3   0.473487 0.717570 0.712156 0.917780
C12   C     C_3   0.424222 0.711880 0.787979 -1.025547
H24   H     H_    0.528904 0.700173 0.823753 0.235802
H25   H     H_    0.375183 0.762977 0.812638 0.246515
H26   H     H_    0.327776 0.670408 0.785772 0.220972
P7    P     P_3+3 0.464593 0.572322 0.673356 0.444098
O21   O     O_2   0.628980 0.533090 0.672420 -0.333863
O22   O     O_3   0.556300 0.658347 0.679677 -0.549058
H27   H     H_    0.879825 0.841018 0.338960 0.224189
C13   C     C_3   0.911507 0.279180 0.683851 0.494199
H28   H     H_    0.817414 0.277682 0.638709 0.149816
H29   H     H_    0.031912 0.287560 0.665174 0.011541
C14   C     C_3   0.903763 0.208454 0.709935 -1.008804
H30   H     H_    0.785280 0.200087 0.730770 0.285299
H31   H     H_    0.918331 0.164511 0.665343 0.227206
H32   H     H_    0.001019 0.207412 0.753274 0.257888
P8    P     P_3+3 0.433024 0.278573 0.577126 0.453503
C15   C     C_3   0.438840 0.304941 0.713605 0.451038
H33   H     H_    0.305280 0.303563 0.704538 0.010318
O23   O     O_2   0.550622 0.248649 0.522464 -0.395775
O24   O     O_3   0.505924 0.258077 0.659736 -0.542650
H34   H     H_    0.487733 0.359938 0.715600 0.139014
H35   H     H_    0.424940 0.319464 0.828318 0.220662
C16   C     C_3   0.481552 0.283564 0.786089 -0.966372
H36   H     H_    0.614185 0.287510 0.798956 0.289431
H37   H     H_    0.436503 0.228275 0.785473 0.251294
C17   C     C_R   0.921701 0.198858 0.477736 -0.319169
H38   H     H_    0.811350 0.179409 0.445993 0.174712
C18   C     C_R   0.981375 0.268365 0.472070 0.197756
C19   C     C_R   0.145213 0.190733 0.564314 -0.420046
H39   H     H_    0.185805 0.179079 0.615876 0.156896
C20   C     C_R   0.223945 0.248113 0.542870 0.174080
C21   C     C_R   0.662150 0.813729 0.442957 -0.351098
H40   H     H_    0.609972 0.839990 0.401182 0.150234
C22   C     C_R   0.596497 0.746652 0.447762 0.222675
C23   C     C_R   0.867561 0.799556 0.535601 -0.321573
H41   H     H_    0.960191 0.819707 0.577820 0.164297
C24   C     C_R   0.829206 0.725585 0.523056 0.359039
C25   C     C_R   0.006529 0.156008 0.523792 0.112358
C26   C     C_R   0.141243 0.285084 0.495738 0.015974
C27   C     C_R   0.790131 0.845954 0.492529 0.089902
C28   C     C_R   0.687032 0.701038 0.482529 -0.418050
H42   H     H_    0.642184 0.647300 0.481311 0.175378
C29   C     C_R   0.215141 0.034986 0.578538 -0.165338
C30   C     C_R   0.311739 0.979922 0.591901 -0.128493
C31   C     C_R   0.270811 0.911843 0.557395 -0.114119
C32   C     C_R   0.125818 0.898462 0.515578 -0.155923
C33   C     C_R   0.007170 0.948929 0.519073 0.055391
C34   C     C_R   0.058572 0.022356 0.541653 0.100461
C35   C     C_R   0.842876 0.926018 0.499923 -0.067121
C36   C     C_R   0.732363 0.981304 0.495355 0.104026
C37   C     C_R   0.786128 0.054871 0.513202 0.043672
C38   C     C_R   0.951425 0.077711 0.528932 -0.071676
C39   C     C_R   0.566192 0.966933 0.474252 -0.173291
C40   C     C_R   0.463268 0.020350 0.463695 -0.131510
C41   C     C_R   0.511188 0.089548 0.491099 -0.072727
C42   C     C_R   0.668236 0.105440 0.521086 -0.145701
H43   H     H_    0.273088 0.084886 0.598496 0.135923
H44   H     H_    0.427612 0.991346 0.622534 0.133801
H45   H     H_    0.354492 0.870398 0.561005 0.153307
H46   H     H_    0.101651 0.847393 0.482831 0.186341
H47   H     H_    0.506734 0.916294 0.469039 0.144863
H48   H     H_    0.339270 0.007374 0.442977 0.142960
H49   H     H_    0.423222 0.129600 0.492063 0.157820
H50   H     H_    0.700215 0.157355 0.550933 0.180283
C43   C     C_R   0.607455 0.530620 0.302277 -0.515814
C44   C     C_R   0.461740 0.494040 0.276479 0.275137
C45   C     C_R   0.406527 0.489142 0.203626 -0.301081
C46   C     C_R   0.499989 0.519090 0.156314 0.027125
C47   C     C_R   0.650981 0.551968 0.183082 -0.279142
C48   C     C_R   0.704696 0.556905 0.255372 0.248357
C49   C     C_R   0.475848 0.571187 0.042961 -0.183519
C50   C     C_R   0.429638 0.566523 0.969783 -0.163130
C51   C     C_R   0.352393 0.504516 0.929888 0.171275
C52   C     C_R   0.322516 0.447258 0.965505 -0.175160
C53   C     C_R   0.367936 0.452117 0.038978 -0.159128
C54   C     C_R   0.445437 0.514168 0.078690 0.172906
C55   C     C_R   0.150823 0.465754 0.823262 -0.315979
C56   C     C_R   0.094008 0.465241 0.751809 0.242920
C57   C     C_R   0.336405 0.535003 0.735830 0.211009
C58   C     C_R   0.392810 0.533597 0.807158 -0.299057
C59   C     C_R   0.298638 0.500880 0.852254 0.044666
C60   C     C_R   0.182949 0.502116 0.708900 -0.186053
H51   H     H_    0.510028 0.557920 0.827263 0.152432
H52   H     H_    0.451916 0.612169 0.944734 0.121590
H53   H     H_    0.534144 0.620023 0.071823 0.121021
H54   H     H_    0.292520 0.461450 0.183992 0.146988
H55   H     H_    0.265734 0.398201 0.936416 0.120875
H56   H     H_    0.345527 0.406686 0.064319 0.114058
H57   H     H_    0.077519 0.439678 0.856481 0.161504
H58   H     H_    0.729156 0.572026 0.147508 0.151252
H59   H     H_    0.650823 0.534103 0.358053 0.167413
C61   C     C_3   0.824993 0.322833 0.181055 -0.883122
H60   H     H_    0.760671 0.304209 0.127233 0.256682
H61   H     H_    0.917444 0.364179 0.175610 0.249235
H62   H     H_    0.882608 0.276940 0.199670 0.270028
C62   C     C_3   0.587027 0.783932 0.717843 -0.894265
H63   H     H_    0.682640 0.786991 0.762501 0.244020
H64   H     H_    0.645741 0.783000 0.666885 0.243085
H65   H     H_    0.520500 0.833783 0.728032 0.210112
C63   C     C_3   0.329296 0.728241 0.662546 -0.747635
H66   H     H_    0.368922 0.728735 0.607645 0.247877
H67   H     H_    0.247087 0.682416 0.661758 0.226743
H68   H     H_    0.267547 0.778240 0.680882 0.206410
Br1   Br    Br    0.250685 0.354139 0.456831 -0.363773
C64   C     C_3   0.106092 0.508846 0.635916 -0.627527
H69   H     H_    0.136754 0.559890 0.620767 0.214562
H70   H     H_    0.132928 0.463132 0.595078 0.262166
H71   H     H_    0.976330 0.514426 0.635992 0.225500

loop_
_geom_bond_atom_site_label_1
_geom_bond_atom_site_label_2
_geom_bond_distance
_ccdc_geom_bond_type
O5    C6    1.397235 S    
C29   C34   1.425627 A    
C12   H25   1.117889 S    
Ba1   O20   2.949845 S    
C24   C28   1.385050 A    
C2    H4    1.112925 S    
O7    Ba1   2.820794 S    
C44   C45   1.409418 A    
P1    C24   1.866997 S    
C15   O24   1.408033 S    
C23   H41   1.080513 S    
C27   C35   1.565198 S    
C51   C52   1.409573 A    
C64   H70   1.110239 S    
C16   H36   1.111417 S    
O14   P8    1.734167 S    
C4    C5    1.533482 S    
C19   C25   1.418467 A    
C14   H31   1.107212 S    
P3    O11   1.748828 S    
C37   C42   1.402131 A    
C5    H10   1.107724 S    
C7    H15   1.112640 S    
C37   C38   1.426791 A    
C33   C35   1.425988 A    
C30   C31   1.379008 A    
P8    C20   1.853313 S    
C39   C40   1.387387 A    
P1    Ba1   3.428642 S    
C32   C33   1.403936 A    
P1    O1    1.524117 D    
O10   C8    1.415151 S    
C43   C48   1.395522 A    
C45   H54   1.082291 S    
C28   H42   1.082013 S    
C62   H65   1.117528 S    
H1    C10   1.111358 S    
C4    O15   1.401656 S    
C55   C59   1.411813 A    
C35   C36   1.436133 A    
C14   H32   1.111613 S    
P2    O10   1.765299 S    
C31   C32   1.384972 A    
C11   C62   1.547054 S    
C49   H53   1.082417 S    
Ba1   Ba2   4.590714 S    
C8    C9    1.524678 S    
C1    H2    1.109168 S    
C34   C38   1.448053 A    
O6    C10   1.406231 S    
C61   H61   1.112458 S    
C23   C27   1.440540 A    
P5    C56   1.865064 S    
C51   C59   1.495651 S    
C12   H26   1.107372 S    
C49   C54   1.407848 A    
C64   H69   1.094881 S    
C62   H64   1.116892 S    
C58   H51   1.082579 S    
C43   H59   1.081907 S    
C47   H58   1.082760 S    
C26   Br1   1.870279 S    
C57   C58   1.402792 A    
C9    H20   1.116072 S    
C36   C37   1.443889 A    
C23   C24   1.421390 A    
C52   H55   1.082347 S    
C64   H71   1.091339 S    
C63   H67   1.095670 S    
C16   H37   1.112477 S    
C50   H52   1.082742 S    
P4    O13   1.580009 S    
C39   H47   1.063087 S    
C14   H30   1.110740 S    
C60   C64   1.507197 S    
P7    O21   1.584931 D    
C6    C7    1.520499 S    
C32   H46   1.072715 S    
C7    H16   1.104066 S    
C25   C38   1.578715 S    
H35   C16   1.111811 S    
C61   H62   1.111543 S    
C8    H18   1.113676 S    
C57   C60   1.426689 A    
C20   C26   1.387643 A    
C19   H39   1.071752 S    
C13   H29   1.107733 S    
O11   C2    1.403846 S    
C10   H22   1.111605 S    
Ba2   O21   2.821108 S    
P6    C22   1.837214 S    
C12   H24   1.115006 S    
C11   O22   1.425201 S    
O1    Ba1   2.866917 S    
P1    O2    1.580177 S    
C9    H21   1.115146 S    
C6    H13   1.092969 S    
C62   H63   1.109486 S    
O3    P6    1.727276 S    
C21   C22   1.403272 A    
C18   C26   1.383071 A    
C11   C12   1.548872 S    
C19   C20   1.399483 A    
C63   H68   1.120114 S    
O2    Ba2   2.816964 S    
P8    O24   1.747869 S    
C2    C3    1.521627 S    
Ba2   O20   2.769895 S    
C4    H8    1.108129 S    
O2    Ba1   2.941333 S    
C1    H3    1.110572 S    
C61   H60   1.112566 S    
C17   C25   1.456322 A    
O16   P7    1.785467 S    
P4    C18   1.910278 S    
P2    O7    1.526155 D    
Ba1   O13   2.816368 S    
P3    O8    1.744536 S    
P2    Ba1   3.407615 S    
C49   C50   1.399275 A    
C5    C61   1.523837 S    
C3    H7    1.110420 S    
C53   H56   1.082595 S    
C22   C28   1.388615 A    
C9    H19   1.118726 S    
C31   H45   1.081686 S    
C43   C44   1.395259 A    
C46   C54   1.493972 S    
C15   C16   1.519961 S    
C63   H66   1.120143 S    
C29   C30   1.393216 A    
O17   Ba2   2.760631 S    
P7    O22   1.779210 S    
O13   Ba2   2.942185 S    
P4    O12   1.524497 D    
C1    C10   1.519829 S    
C40   H48   1.083011 S    
C30   H44   1.083931 S    
C58   C59   1.415215 A    
C56   C60   1.404812 A    
C17   C18   1.433296 A    
C52   C53   1.402981 A    
C13   C14   1.522340 S    
C55   C56   1.399325 A    
O8    Ba1   2.759953 S    
C50   C51   1.405875 A    
P2    C44   1.850201 S    
C4    H9    1.109682 S    
O14   Ba2   2.778217 S    
C53   C54   1.406082 A    
P4    O15   1.753348 S    
Ba1   O16   2.770448 S    
O4    P6    1.539775 D    
C1    H23   1.109118 S    
C6    H12   1.093026 S    
P5    O18   1.544584 D    
C5    H11   1.103964 S    
C46   C47   1.408429 A    
C45   C46   1.415493 A    
C13   H28   1.111068 S    
C33   C34   1.443395 A    
C15   H34   1.113173 S    
P2    O20   1.547583 S    
P8    O23   1.538808 D    
C11   C63   1.508411 S    
C55   H57   1.082272 S    
P3    C48   1.831351 S    
C3    H27   1.109265 S    
C40   C41   1.376820 A    
P5    O19   1.748762 S    
C21   H40   1.079604 S    
O3    Ba1   2.778682 S    
C15   H33   1.112651 S    
C8    H17   1.103534 S    
O16   Ba2   2.949065 S    
C17   H38   1.079086 S    
C21   C27   1.418093 A    
P3    O9    1.545217 D    
P4    Ba2   3.429089 S    
P1    O5    1.777333 S    
C3    H6    1.109651 S    
C29   H43   1.055604 S    
C7    H14   1.113025 S    
C42   H50   1.074487 S    
P5    O17   1.775926 S    
C41   C42   1.389735 A    
C41   H49   1.078129 S    
O6    P6    1.746813 S    
C36   C39   1.417341 A    
O19   C13   1.399393 S    
C47   C48   1.396216 A    
O12   Ba2   2.867287 S    
C2    H5    1.110462 S    
P7    C57   1.872335 S    
