data_mof_unit_51093.cif
_audit_creation_date              2012-12-11T15:45:45-0500
_audit_creation_method            fapswitch 2.2
_symmetry_space_group_name_H-M    P1
_symmetry_Int_Tables_number       1
_space_group_crystal_system       triclinic
_cell_length_a                    8.245955
_cell_length_b                    19.060112
_cell_length_c                    22.826971
_cell_angle_alpha                 95.23674
_cell_angle_beta                  89.383962
_cell_angle_gamma                 94.44772
_cell_volume                      3561.9299184

loop_
_atom_site_label
_atom_site_type_symbol
_atom_type_description
_atom_site_fract_x
_atom_site_fract_y
_atom_site_fract_z
_atom_type_partial_charge
Ba1   Ba    Ba6+2 0.850680 0.532880 0.472010 1.649799
Ba2   Ba    Ba6+2 0.339140 0.467180 0.527990 1.667271
C1    C     C_3   0.651278 0.793216 0.318728 -0.364850
C2    C     C_R   0.093947 0.561258 0.938724 -0.023919
C3    C     C_R   0.046330 0.557844 0.879006 0.567830
C4    C     C_3   0.102279 0.682394 0.310520 0.322208
C5    C     C_R   0.953093 0.435575 0.881058 0.576988
C6    C     C_R   0.999745 0.437285 0.940755 -0.022328
C7    C     C_R   0.070628 0.500530 0.969672 -0.051631
C8    C     C_R   0.163701 0.624192 0.968379 -0.092430
C9    C     C_R   0.210022 0.626716 0.027356 -0.078935
C10   C     C_R   0.187435 0.566475 0.058884 -0.017105
C11   C     C_R   0.117412 0.503176 0.029902 -0.053630
C12   C     C_3   0.630124 0.719642 0.339714 0.354554
C13   C     C_R   0.977268 0.377062 0.972260 -0.077486
C14   C     C_R   0.024231 0.379555 0.031196 -0.077881
C15   C     C_R   0.094446 0.442473 0.060843 -0.022878
C16   C     C_3   0.077740 0.702247 0.248430 -0.314690
C17   C     C_R   0.142496 0.445834 0.120575 0.587728
C18   C     C_R   0.232542 0.568474 0.118759 0.573208
C19   C     C_2   0.776194 0.472127 0.771541 -0.081956
C20   C     C_3   0.725220 0.480272 0.709001 -0.059538
C21   C     C_1   0.005708 0.512526 0.685758 0.037120
C22   C     C_2   0.050979 0.515538 0.742010 -0.103539
C23   C     C_3   0.516783 0.376085 0.349274 0.288026
C24   C     C_2   0.931187 0.492887 0.788572 0.207183
C25   C     C_R   0.407598 0.542778 0.231287 -0.096946
C26   C     C_R   0.448869 0.547813 0.291097 -0.018256
C27   C     C_R   0.192175 0.485858 0.314001 -0.016734
C28   C     C_3   0.198678 0.682676 0.595634 0.318066
C29   C     C_R   0.145989 0.483629 0.254341 -0.126348
C30   C     C_R   0.253525 0.512037 0.211906 0.214014
C31   C     C_2   0.868946 0.477252 0.667848 -0.277521
C32   C     C_R   0.397216 0.700263 0.472356 -0.294566
C33   C     C_R   0.539551 0.723133 0.502897 0.068463
C34   C     C_3   0.557882 0.367887 0.283836 -0.407064
C35   C     C_R   0.592379 0.795187 0.508437 -0.121886
C36   C     C_R   0.500513 0.845113 0.484490 -0.019139
C37   C     C_R   0.352156 0.821039 0.456221 -0.137742
C38   C     C_R   0.300179 0.748945 0.451141 0.015067
C39   C     C_R   0.527578 0.964870 0.445388 -0.076808
C40   C     C_3   0.212678 0.762335 0.610514 -0.380856
C41   C     C_R   0.577852 0.036940 0.450883 -0.079252
C42   C     C_R   0.660067 0.068619 0.501496 0.059397
C43   C     C_R   0.689104 0.025795 0.546746 -0.077555
C44   C     C_R   0.637430 0.953599 0.541455 -0.073648
C45   C     C_3   0.078364 0.315465 0.687853 0.284763
C46   C     C_R   0.556105 0.922044 0.490581 0.062969
C47   C     C_R   0.860520 0.172210 0.535208 -0.141658
C48   C     C_R   0.909000 0.244885 0.538952 0.027133
C49   C     C_R   0.667002 0.266317 0.486703 0.030721
C50   C     C_R   0.616569 0.194296 0.483084 -0.125354
C51   C     C_R   0.712915 0.145926 0.507044 -0.006301
C52   C     C_3   0.010535 0.317491 0.309075 0.323210
C53   C     C_R   0.811796 0.291147 0.514731 -0.246267
C54   C     C_3   0.168681 0.301189 0.276836 -0.373611
C55   C     C_3   0.700767 0.629250 0.648975 0.392681
C56   C     C_3   0.112644 0.297175 0.749676 -0.314737
C57   C     C_3   0.732260 0.657530 0.712854 0.293551
C58   C     C_3   0.899233 0.249091 0.311561 -0.182832
C59   C     C_3   0.960815 0.198012 0.353222 -0.170324
C60   C     C_3   0.847022 0.131033 0.352445 -0.448520
C61   C     C_3   0.597697 0.680954 0.801950 0.270719
C62   C     C_3   0.508278 0.615971 0.825612 -0.187425
C63   C     C_3   0.541662 0.612685 0.890865 -0.485824
C64   C     C_3   0.585178 0.287709 0.658595 0.352854
C65   C     C_3   0.610662 0.216678 0.680927 -0.366728
C66   C     C_R   0.339669 0.521102 0.331906 -0.282648
H1    H     H_    0.694107 0.720909 0.382456 0.079276
H2    H     H_    0.610418 0.582814 0.647288 0.019406
H3    H     H_    0.782525 0.809285 0.313301 0.141510
H4    H     H_    0.819235 0.705273 0.713904 0.047462
H5    H     H_    0.789685 0.616739 0.735517 -0.069091
H6    H     H_    0.497913 0.705996 0.345884 -0.056180
H7    H     H_    0.598073 0.831622 0.351542 0.069208
H8    H     H_    0.386769 0.385145 0.355385 0.003901
H9    H     H_    0.591548 0.423057 0.368873 0.084221
H10   H     H_    0.517113 0.314201 0.263910 0.130659
H11   H     H_    0.499046 0.407424 0.260432 0.078171
H12   H     H_    0.299065 0.776702 0.647448 0.143359
H13   H     H_    0.690441 0.376685 0.277312 0.113427
H14   H     H_    0.588507 0.793867 0.276000 0.122398
H15   H     H_    0.074136 0.654026 0.217323 0.121777
H16   H     H_    0.158097 0.363096 0.680032 0.101758
H17   H     H_    0.949081 0.327222 0.685021 -0.017926
H18   H     H_    0.105785 0.344827 0.780995 0.123483
H19   H     H_    0.022361 0.254891 0.762403 0.124351
H20   H     H_    0.236905 0.278862 0.751849 0.140168
H21   H     H_    0.698650 0.306080 0.635991 -0.060144
H22   H     H_    0.483011 0.280216 0.626726 0.087659
H23   H     H_    0.257458 0.789483 0.571990 0.061944
H24   H     H_    0.638660 0.178155 0.643415 0.071414
H25   H     H_    0.498778 0.196412 0.703373 0.129235
H26   H     H_    0.019297 0.635112 0.317012 0.104010
H27   H     H_    0.713772 0.222309 0.712343 0.128938
H28   H     H_    0.004703 0.331873 0.053583 0.118940
H29   H     H_    0.923386 0.327537 0.951363 0.121305
H30   H     H_    0.263505 0.676306 0.048266 0.120107
H31   H     H_    0.495775 0.562246 0.200017 0.114859
H32   H     H_    0.183350 0.671848 0.945963 0.117869
H33   H     H_    0.174639 0.533821 0.754543 0.117553
H34   H     H_    0.091624 0.780668 0.623395 0.117697
H35   H     H_    0.684815 0.457473 0.803729 0.103311
H36   H     H_    0.027764 0.459388 0.240918 0.114002
H37   H     H_    0.373766 0.524354 0.377763 0.076165
H38   H     H_    0.230291 0.669342 0.315080 -0.043005
H39   H     H_    0.865742 0.441145 0.628157 0.065443
H40   H     H_    0.502614 0.176407 0.461514 0.070889
H41   H     H_    0.553330 0.067493 0.414827 0.056959
H42   H     H_    0.467742 0.942562 0.405199 0.062037
H43   H     H_    0.704103 0.811985 0.531876 0.085578
H44   H     H_    0.748686 0.048340 0.586915 0.065522
H45   H     H_    0.946285 0.352457 0.282522 0.014256
H46   H     H_    0.658626 0.922870 0.577841 0.062612
H47   H     H_    0.938413 0.136630 0.553472 0.078158
H48   H     H_    0.274302 0.858147 0.440063 0.078523
H49   H     H_    0.850361 0.346911 0.517001 0.077666
H50   H     H_    0.960731 0.726697 0.245133 0.146457
H51   H     H_    0.355608 0.644799 0.468990 0.069067
H52   H     H_    0.178678 0.740230 0.236196 0.121710
H53   H     H_    0.320232 0.665031 0.584219 0.011727
H54   H     H_    0.115257 0.669756 0.557685 0.059034
H55   H     H_    0.721147 0.144866 0.363016 0.134063
H56   H     H_    0.232484 0.350670 0.264416 0.097323
H57   H     H_    0.848327 0.101157 0.308351 0.139273
H58   H     H_    0.887142 0.096957 0.385616 0.134975
H59   H     H_    0.967180 0.223741 0.398925 0.137609
H60   H     H_    0.084002 0.182828 0.339820 0.114779
H61   H     H_    0.777640 0.263504 0.326627 0.131739
H62   H     H_    0.883598 0.221828 0.266538 0.073400
H63   H     H_    0.537906 0.728592 0.819996 0.073431
H64   H     H_    0.725917 0.688212 0.818092 0.053299
H65   H     H_    0.375565 0.617585 0.818854 0.161421
H66   H     H_    0.546984 0.567364 0.800813 0.113303
H67   H     H_    0.143578 0.266992 0.235383 0.113780
H68   H     H_    0.673195 0.607698 0.898019 0.149996
H69   H     H_    0.471647 0.565902 0.906681 0.146533
H70   H     H_    0.504094 0.661024 0.916686 0.137463
H71   H     H_    0.248905 0.274500 0.304983 0.121639
H72   H     H_    0.816670 0.613534 0.628950 -0.083979
N1    N     N_R   0.978775 0.495191 0.850373 -0.424260
N2    N     N_R   0.208282 0.508774 0.149631 -0.422235
O1    O     O_2   0.896730 0.461690 0.361000 -0.471021
O2    O     O_2   0.246899 0.252040 0.544757 -0.480737
O3    O     O_3   0.111701 0.258182 0.647622 -0.606884
O4    O     O_3   0.137170 0.462400 0.432040 -0.448787
O5    O     O_3   0.560670 0.583970 0.528500 -0.486367
O6    O     O_2   0.373560 0.329680 0.473470 -0.432654
O7    O     O_3   0.546651 0.313713 0.374116 -0.655897
O8    O     O_2   0.387894 0.448227 0.706363 -0.506520
O9    O     O_3   0.547449 0.335828 0.706250 -0.594268
O10   O     O_2   0.062368 0.611103 0.852827 -0.615683
O11   O     O_2   0.889970 0.380805 0.856393 -0.605168
O12   O     O_3   0.639964 0.682698 0.619762 -0.634023
O13   O     O_2   0.127961 0.392243 0.146347 -0.615923
O14   O     O_2   0.292595 0.623827 0.143418 -0.616003
O15   O     O_3   0.657500 0.588540 0.395070 -0.489259
O16   O     O_2   0.785428 0.542008 0.291924 -0.502654
O17   O     O_3   0.041695 0.348330 0.367040 -0.609338
O18   O     O_3   0.697384 0.671338 0.297861 -0.599307
O19   O     O_2   0.816140 0.670340 0.526560 -0.465976
O20   O     O_3   0.069580 0.624410 0.423530 -0.495536
O21   O     O_2   0.963905 0.750409 0.459483 -0.485926
O22   O     O_3   0.584237 0.675667 0.739891 -0.634817
O23   O     O_3   0.065892 0.739140 0.350853 -0.603089
O24   O     O_2   0.292960 0.538340 0.639040 -0.456561
O25   O     O_3   0.052540 0.537650 0.567960 -0.488913
O26   O     O_3   0.532200 0.411510 0.604930 -0.479437
O27   O     O_3   0.139169 0.650880 0.645077 -0.626425
O28   O     O_3   0.629030 0.416090 0.471500 -0.474171
O29   O     O_3   0.120120 0.375640 0.576470 -0.489942
P1    P     P_3+3 0.067040 0.441110 0.370020 1.008438
P2    P     P_3+3 0.640420 0.660110 0.543790 0.990779
P3    P     P_3+3 0.099189 0.716278 0.421984 0.941156
P4    P     P_3+3 0.122660 0.558950 0.629980 1.006608
P5    P     P_3+3 0.097281 0.282834 0.575906 0.958976
P6    P     P_3+3 0.648022 0.586032 0.318292 0.940521
P7    P     P_3+3 0.554356 0.329287 0.450738 0.968252
P8    P     P_3+3 0.548280 0.420289 0.681643 0.957992

loop_
_geom_bond_atom_site_label_1
_geom_bond_atom_site_label_2
_ccdc_geom_bond_type
C19   C24   D    
C45   O3    S    
C40   H12   S    
O4    P1    S    
C17   O13   D    
C31   H39   S    
C56   H19   S    
C43   H44   S    
C5    C6    A    
C64   H22   S    
C52   C58   S    
C43   C44   A    
C42   C43   A    
Ba1   P2    S    
O24   P4    D    
C3    O10   D    
O28   P7    S    
C9    H30   S    
C32   C38   A    
C54   H56   S    
C48   P5    S    
C26   C66   A    
O16   P6    D    
C22   C24   S    
O1    P1    D    
C32   C33   A    
C36   C37   A    
C55   C57   S    
C21   P4    S    
Ba1   O25   S    
Ba2   O6    S    
C13   C14   A    
C52   H45   S    
C40   H34   S    
Ba1   O28   S    
C23   O7    S    
C22   H33   S    
C7    C11   A    
O7    P7    S    
C57   O22   S    
C52   O17   S    
C16   H52   S    
O9    P8    S    
C42   C51   S    
C28   H54   S    
C14   C15   A    
C21   C31   D    
O3    P5    S    
C21   C22   D    
C12   H6    S    
C61   H63   S    
C55   H2    S    
C49   P7    S    
C1    H7    S    
C26   P6    S    
C57   H5    S    
C30   N2    S    
C57   H4    S    
C63   H69   S    
C64   C65   S    
C4    O23   S    
Ba1   O19   S    
C19   C20   S    
C65   H27   S    
C39   C41   A    
C10   C18   A    
Ba1   O4    S    
C13   H29   S    
C56   H18   S    
C60   H55   S    
C64   H21   S    
C52   C54   S    
O27   P4    S    
C61   O22   S    
C4    C16   S    
C62   H66   S    
C14   H28   S    
O17   P1    S    
C44   H46   S    
C49   C50   A    
C33   P2    S    
C18   N2    Am   
C58   H62   S    
C37   C38   A    
C60   H58   S    
C54   H71   S    
C6    C7    A    
C4    H26   S    
O23   P3    S    
C61   H64   S    
C55   H72   S    
C12   O18   S    
C58   C59   S    
C1    H3    S    
C41   C42   A    
C28   O27   S    
C35   C36   A    
Ba1   O1    S    
Ba2   P4    S    
C27   C66   A    
O19   P2    D    
Ba2   O26   S    
C3    N1    Am   
C29   C30   A    
C5    O11   D    
C28   H53   S    
C34   H13   S    
C25   H31   S    
O2    P5    D    
C1    H14   S    
C16   H15   S    
C4    H38   S    
C59   H59   S    
O15   P6    S    
C45   H16   S    
C8    H32   S    
C1    C12   S    
Ba2   O28   S    
C63   H70   S    
C47   H47   S    
Ba1   O20   S    
C47   C48   A    
C6    C13   A    
C39   H42   S    
C12   H1    S    
C23   H9    S    
Ba1   O5    S    
Ba2   O4    S    
C66   H37   S    
C2    C8    A    
C24   N1    S    
C45   H17   S    
C5    N1    Am   
C54   H67   S    
C50   C51   A    
O25   P4    S    
C53   H49   S    
C32   H51   S    
C20   C31   S    
Ba2   O24   S    
C62   H65   S    
O6    P7    D    
C18   O14   D    
O12   P2    S    
C33   C35   A    
C25   C30   A    
C36   C46   S    
C20   P8    S    
C34   H11   S    
C56   H20   S    
C58   H61   S    
C60   H57   S    
C9    C10   A    
O5    P2    S    
C16   H50   S    
O20   P3    S    
C17   N2    Am   
O26   P8    S    
O29   P5    S    
Ba2   O29   S    
Ba1   P1    S    
C48   C53   A    
C11   C15   A    
C23   H8    S    
C29   H36   S    
Ba1   O15   S    
Ba2   O5    S    
C64   O9    S    
C27   C29   A    
C34   H10   S    
C62   C63   S    
C45   C56   S    
C38   P3    S    
O21   P3    D    
C47   C51   A    
Ba1   Ba2   S    
C65   H24   S    
C15   C17   A    
C39   C46   A    
C59   H60   S    
C49   C53   A    
C27   P1    S    
C59   C60   S    
O18   P6    S    
C35   H43   S    
C63   H68   S    
C8    C9    A    
C23   C34   S    
C61   C62   S    
C19   H35   S    
C44   C46   A    
C2    C3    A    
C10   C11   A    
C50   H40   S    
C37   H48   S    
C25   C26   A    
C65   H25   S    
C28   C40   S    
C41   H41   S    
C2    C7    A    
C55   O12   S    
Ba2   O25   S    
C40   H23   S    
O8    P8    D    
