data_mof_unit_32631.cif
_audit_creation_date              2013-03-05T16:37:44-0500
_audit_creation_method            fapswitch 2.2
_symmetry_space_group_name_H-M    P1
_symmetry_Int_Tables_number       1
_space_group_crystal_system       triclinic
_cell_length_a                    18.766137
_cell_length_b                    18.567455
_cell_length_c                    19.149928
_cell_angle_alpha                 109.989605
_cell_angle_beta                  110.383103
_cell_angle_gamma                 108.861105
_cell_volume                      5083.18577547

loop_
_atom_site_label
_atom_site_type_symbol
_atom_site_description
_atom_site_fract_x
_atom_site_fract_y
_atom_site_fract_z
_atom_type_partial_charge
O1    O     O_R   0.408360 0.551710 0.460090 -0.635035
O2    O     O_R   0.408390 0.448280 0.356670 -0.552364
C1    C     C_R   0.380791 0.501691 0.380373 0.904230
O3    O     O_R   0.591600 0.643340 0.551710 -0.651824
O4    O     O_R   0.591630 0.539900 0.448290 -0.566756
C2    C     C_R   0.619405 0.621441 0.500302 0.859960
Zn1   Zn    Zn3+2 0.499980 0.569070 0.569050 1.096706
Zn2   Zn    Zn3+2 0.500020 0.430930 0.430950 1.182195
O5    O     O_R   0.591610 0.551720 0.643330 -0.577035
O6    O     O_R   0.591640 0.448290 0.539910 -0.612411
O7    O     O_R   0.408370 0.460100 0.551710 -0.597326
O8    O     O_R   0.408400 0.356660 0.448290 -0.560805
C3    C     C_R   0.621678 0.501375 0.619655 0.914739
C4    C     C_R   0.378657 0.379066 0.498222 0.985776
C5    C     C_R   0.734676 0.845902 0.775122 -0.209052
C6    C     C_R   0.716687 0.815171 0.690149 -0.193801
C7    C     C_R   0.769898 0.788487 0.664773 -0.001994
C8    C     C_R   0.845865 0.798598 0.728029 0.263776
C9    C     C_R   0.864480 0.831727 0.813908 -0.257174
C10   C     C_R   0.808695 0.854351 0.837955 0.310653
C11   C     C_R   0.818412 0.825868 0.572779 -0.098689
C12   C     C_R   0.809126 0.811833 0.493489 -0.091142
C13   C     C_R   0.731592 0.740965 0.414592 -0.018947
C14   C     C_R   0.667001 0.679921 0.417477 0.299919
C15   C     C_R   0.681100 0.690531 0.498606 -0.197054
C16   C     C_R   0.754863 0.766848 0.576872 0.026779
C17   C     C_R   0.697317 0.780178 0.299686 -0.093031
H1    H     H_    0.694962 0.834771 0.341485 0.239446
C18   C     C_R   0.679127 0.765410 0.217508 -0.172711
H2    H     H_    0.664194 0.809609 0.198256 0.209755
C19   C     C_R   0.678636 0.693634 0.160365 0.278184
C20   C     C_R   0.696243 0.636534 0.187105 -0.202385
C21   C     C_R   0.715752 0.651285 0.270372 0.302223
C22   C     C_R   0.718568 0.725749 0.328369 -0.030202
C23   C     C_R   0.490331 0.797921 0.537217 -0.223664
C24   C     C_R   0.414116 0.714472 0.476295 0.440173
C25   C     C_R   0.396444 0.670276 0.390455 -0.089086
C26   C     C_R   0.449418 0.715044 0.365757 -0.228145
C27   C     C_R   0.522698 0.800099 0.425581 0.380172
C28   C     C_R   0.544379 0.840103 0.512300 -0.243335
C29   C     C_R   0.254988 0.577476 0.254516 -0.108189
C30   C     C_R   0.185743 0.496479 0.182518 -0.132996
C31   C     C_R   0.177292 0.415698 0.175096 -0.124192
C32   C     C_R   0.240970 0.417759 0.242237 0.259718
C33   C     C_R   0.312018 0.500618 0.315092 -0.171093
C34   C     C_R   0.318836 0.581126 0.321577 0.062989
C35   C     C_R   0.038032 0.273593 0.105418 -0.053657
C36   C     C_R   0.968475 0.191556 0.033006 -0.089728
H3    H     H_    0.918808 0.148885 0.039096 0.175798
C37   C     C_R   0.963239 0.164375 0.952850 -0.100140
H4    H     H_    0.909588 0.100678 0.896953 0.139534
C38   C     C_R   0.027492 0.219233 0.944945 -0.112019
C39   C     C_R   0.096809 0.301684 0.017024 -0.102290
C40   C     C_R   0.102604 0.329232 0.097821 0.161119
C41   C     C_R   0.250783 0.544665 0.596577 -0.135384
H5    H     H_    0.277337 0.603340 0.657491 0.213008
C42   C     C_R   0.273968 0.479267 0.594590 0.347334
C43   C     C_R   0.236146 0.402731 0.512702 0.026201
C44   C     C_R   0.180019 0.396033 0.436511 -0.134861
C45   C     C_R   0.158344 0.461764 0.440369 -0.059582
H6    H     H_    0.113701 0.454979 0.381282 0.185294
C46   C     C_R   0.192551 0.535218 0.520350 -0.043727
C47   C     C_R   0.181161 0.258862 0.505541 0.281251
C48   C     C_R   0.187188 0.183735 0.499191 -0.236909
C49   C     C_R   0.255021 0.171530 0.491779 -0.116883
C50   C     C_R   0.317710 0.235836 0.490333 0.297832
C51   C     C_R   0.312026 0.311515 0.496928 -0.176765
C52   C     C_R   0.243834 0.323401 0.504690 -0.076222
C53   C     C_R   0.328571 0.099803 0.554471 -0.166852
C54   C     C_R   0.344745 0.029153 0.544935 0.267440
C55   C     C_R   0.291254 0.948553 0.463984 0.266026
C56   C     C_R   0.223813 0.941310 0.394886 -0.258444
C57   C     C_R   0.208810 0.012145 0.405130 -0.170326
C58   C     C_R   0.261635 0.092039 0.484701 0.114089
C59   C     C_R   0.781834 0.524523 0.619989 -0.052378
C60   C     C_R   0.853258 0.523769 0.613405 -0.020647
H7    H     H_    0.865249 0.535792 0.566017 0.167430
C61   C     C_R   0.908577 0.506633 0.667046 -0.080701
C62   C     C_R   0.894547 0.493457 0.729571 -0.097823
H8    H     H_    0.938149 0.478150 0.768055 0.154772
C63   C     C_R   0.824161 0.497179 0.739536 0.074497
C64   C     C_R   0.764338 0.507625 0.680750 0.041352
C65   C     C_R   0.688945 0.501449 0.684675 -0.271258
C66   C     C_R   0.673215 0.486855 0.746359 0.209672
C67   C     C_R   0.733458 0.479506 0.806024 0.164694
C68   C     C_R   0.810884 0.489153 0.805515 -0.315233
O9    O     O_R   0.051730 0.908360 0.460070 -0.641096
O10   O     O_R   0.948280 0.908380 0.356650 -0.627687
C69   C     C_R   0.998333 0.876968 0.380462 0.857512
O11   O     O_R   0.960110 0.908350 0.551690 -0.604980
O12   O     O_R   0.856660 0.908370 0.448270 -0.617169
C70   C     C_R   0.878880 0.876714 0.495940 0.909468
Zn3   Zn    Zn3+2 0.069080 0.999960 0.569030 1.080286
Zn4   Zn    Zn3+2 0.930920 0.999990 0.430930 1.106115
O13   O     O_R   0.051720 0.091580 0.643310 -0.637855
O14   O     O_R   0.948270 0.091600 0.539890 -0.544042
O15   O     O_R   0.143340 0.091590 0.551680 -0.612137
O16   O     O_R   0.039890 0.091610 0.448270 -0.581088
C71   C     C_R   0.001811 0.122133 0.620283 0.980595
C72   C     C_R   0.120390 0.117514 0.498194 0.939231
O17   O     O_R   0.051710 0.460040 0.908380 -0.606944
O18   O     O_R   0.948270 0.356620 0.908410 -0.632655
C73   C     C_R   0.997379 0.379081 0.878486 0.847395
O19   O     O_R   0.143330 0.551680 0.091590 -0.621328
O20   O     O_R   0.039890 0.448260 0.091620 -0.592962
C74   C     C_R   0.120049 0.498214 0.118023 0.897694
Zn5   Zn    Zn3+2 0.069060 0.569020 0.999970 1.048936
Zn6   Zn    Zn3+2 0.930920 0.430910 0.000010 1.112373
O21   O     O_R   0.051700 0.643310 0.091570 -0.628615
O22   O     O_R   0.948260 0.539890 0.091600 -0.537400
O23   O     O_R   0.960080 0.551670 0.908360 -0.621316
O24   O     O_R   0.856640 0.448250 0.908390 -0.573085
C75   C     C_R   0.002298 0.620960 0.121083 0.919594
C76   C     C_R   0.879197 0.496243 0.876981 0.880619
C77   C     C_R   0.132394 0.796370 0.563020 0.333255
C78   C     C_R   0.115836 0.803166 0.488872 -0.123270
H9    H     H_    0.164203 0.858307 0.493189 0.184458
C79   C     C_R   0.036890 0.740272 0.409039 -0.053195
C80   C     C_R   0.976716 0.663893 0.401565 0.351664
C81   C     C_R   0.994168 0.657326 0.476053 -0.202488
H10   H     H_    0.948572 0.600555 0.472376 0.209763
C82   C     C_R   0.070321 0.723094 0.555861 -0.224492
C83   C     C_R   0.029263 0.689395 0.267872 0.314258
C84   C     C_R   0.008171 0.689584 0.190221 -0.179844
C85   C     C_R   0.994848 0.756367 0.179843 -0.034123
C86   C     C_R   0.990248 0.815735 0.242711 -0.225137
H11   H     H_    0.979909 0.867346 0.234832 0.189186
C87   C     C_R   0.002361 0.811301 0.317017 -0.115253
C88   C     C_R   0.024684 0.749355 0.331774 -0.022438
C89   C     C_R   0.076352 0.826919 0.122275 -0.154502
H12   H     H_    0.134777 0.866996 0.186363 0.161939
C90   C     C_R   0.083344 0.827008 0.052126 -0.146680
C91   C     C_R   0.009857 0.770853 0.967512 0.350298
C92   C     C_R   0.927857 0.719503 0.955306 -0.160719
H13   H     H_    0.869687 0.677566 0.891096 0.171986
C93   C     C_R   0.921148 0.718879 0.025585 -0.133914
H14   H     H_    0.858783 0.675662 0.014785 0.205787
C94   C     C_R   0.995957 0.770519 0.108863 0.115537
C95   C     C_R   0.288511 0.248019 0.816109 0.238464
C96   C     C_R   0.203197 0.229613 0.796924 -0.270992
C97   C     C_R   0.169469 0.281553 0.776078 -0.050876
C98   C     C_R   0.226244 0.359810 0.783671 0.303425
C99   C     C_R   0.312437 0.379326 0.805247 -0.245289
C100  C     C_R   0.343196 0.322799 0.818229 0.188279
C101  C     C_R   0.076057 0.322160 0.823602 -0.182198
H15   H     H_    0.136580 0.379308 0.881139 0.166514
C102  C     C_R   0.995405 0.311262 0.812445 -0.123906
C103  C     C_R   0.915783 0.237079 0.740115 -0.124986
C104  C     C_R   0.918574 0.173766 0.677474 0.243815
C105  C     C_R   0.000614 0.186776 0.687335 -0.177603
C106  C     C_R   0.080309 0.261483 0.761445 0.067115
C107  C     C_R   0.783673 0.169057 0.750315 -0.109917
H16   H     H_    0.810511 0.133685 0.775227 0.128540
C108  C     C_R   0.702684 0.158525 0.739823 -0.100162
H17   H     H_    0.667197 0.115166 0.756515 0.180609
C109  C     C_R   0.667487 0.203939 0.707748 0.035172
C110  C     C_R   0.712961 0.259571 0.685699 -0.110450
H18   H     H_    0.685338 0.294181 0.660298 0.169043
C111  C     C_R   0.794042 0.270458 0.696358 -0.128032
H19   H     H_    0.828460 0.312931 0.678360 0.138187
C112  C     C_R   0.829964 0.225584 0.729088 0.176223
N1    N     N_R   0.828139 0.887403 0.926043 0.225445
O25   O     O_R   0.776944 0.909230 0.948561 -0.336080
O26   O     O_R   0.897108 0.895849 0.984580 -0.374773
N2    N     N_R   0.658684 0.677838 0.075045 0.235280
O27   O     O_R   0.648336 0.733985 0.052396 -0.302629
O28   O     O_R   0.649490 0.606553 0.018750 -0.247251
H20   H     H_    0.694836 0.580167 0.142996 0.246043
N3    N     N_R   0.728316 0.588120 0.293078 0.259734
O29   O     O_R   0.690629 0.505784 0.232852 -0.238438
O30   O     O_R   0.778476 0.612105 0.373192 -0.385742
H21   H     H_    0.601147 0.905506 0.560192 0.213071
H22   H     H_    0.506173 0.832322 0.603625 0.211338
N4    N     N_R   0.353740 0.678263 0.501159 0.232663
O31   O     O_R   0.269754 0.630581 0.445125 -0.350140
O32   O     O_R   0.381090 0.702186 0.582160 -0.386297
H23   H     H_    0.431920 0.683658 0.298573 0.233181
N5    N     N_R   0.572869 0.846343 0.397388 0.210584
O33   O     O_R   0.646380 0.920816 0.453555 -0.307084
O34   O     O_R   0.542591 0.817369 0.315100 -0.363248
H24   H     H_    0.259393 0.638673 0.258480 0.200890
N6    N     N_R   0.234439 0.335920 0.235443 0.214012
O35   O     O_R   0.227993 0.277715 0.168288 -0.321997
O36   O     O_R   0.235924 0.319755 0.296709 -0.436762
H25   H     H_    0.691526 0.864762 0.792021 0.200995
H26   H     H_    0.041686 0.293866 0.167329 0.144152
H27   H     H_    0.023643 0.197606 0.882977 0.139888
H28   H     H_    0.146333 0.343621 0.010219 0.122487
H29   H     H_    0.174763 0.585702 0.523299 0.195631
N7    N     N_R   0.335323 0.492431 0.675297 0.222651
O37   O     O_R   0.361759 0.436066 0.677072 -0.355206
O38   O     O_R   0.370605 0.565137 0.748000 -0.295217
H30   H     H_    0.149255 0.337335 0.374116 0.197811
H31   H     H_    0.661607 0.813467 0.644088 0.177403
N8    N     N_R   0.112814 0.271063 0.516006 0.220196
O39   O     O_R   0.054376 0.273520 0.456802 -0.355569
O40   O     O_R   0.102392 0.268342 0.578852 -0.375558
N9    N     N_R   0.387868 0.224682 0.483539 0.216006
O41   O     O_R   0.370379 0.156747 0.416003 -0.342946
O42   O     O_R   0.469124 0.280973 0.545922 -0.367986
H32   H     H_    0.371016 0.162681 0.615114 0.224270
N10   N     N_R   0.418678 0.042375 0.615800 0.237156
O43   O     O_R   0.444338 0.096393 0.695428 -0.282077
O44   O     O_R   0.468116 0.011026 0.601366 -0.357996
N11   N     N_R   0.302852 0.873193 0.451427 0.235726
O45   O     O_R   0.318009 0.851951 0.511029 -0.287815
O46   O     O_R   0.287315 0.819206 0.376269 -0.368897
H33   H     H_    0.182538 0.880215 0.332759 0.185001
H34   H     H_    0.157722 0.005627 0.350297 0.156140
N12   N     N_R   0.594565 0.477089 0.747384 0.255236
O47   O     O_R   0.534802 0.400110 0.724817 -0.258367
O48   O     O_R   0.590876 0.547269 0.786596 -0.245746
H35   H     H_    0.741261 0.539123 0.577471 0.152654
N13   N     N_R   0.906776 0.779987 0.707076 0.231989
O49   O     O_R   0.878897 0.712191 0.633465 -0.396792
O50   O     O_R   0.990967 0.832062 0.761280 -0.284162
H36   H     H_    0.962902 0.504063 0.660598 0.171635
N14   N     N_R   0.715373 0.462585 0.867392 0.255045
O51   O     O_R   0.719511 0.524317 0.929743 -0.296604
O52   O     O_R   0.678647 0.381590 0.851047 -0.292934
H37   H     H_    0.081162 0.715847 0.611809 0.221490
N15   N     N_R   0.211873 0.863506 0.645046 0.240489
O53   O     O_R   0.228854 0.855569 0.713101 -0.288377
O54   O     O_R   0.267400 0.933889 0.652837 -0.304083
N16   N     N_R   0.900718 0.590772 0.319235 0.257321
O55   O     O_R   0.864275 0.602011 0.255338 -0.379931
O56   O     O_R   0.866417 0.511662 0.308015 -0.279800
N17   N     N_R   0.059727 0.631566 0.283851 0.176464
O57   O     O_R   0.138677 0.665261 0.347316 -0.323326
O58   O     O_R   0.005719 0.546814 0.243248 -0.327289
H38   H     H_    0.923141 0.840528 0.862288 0.224227
H39   H     H_    0.147051 0.868154 0.063693 0.197099
N18   N     N_R   0.019298 0.763116 0.894379 0.203764
O59   O     O_R   0.955235 0.700932 0.816039 -0.379949
O60   O     O_R   0.094015 0.813793 0.905709 -0.302757
N19   N     N_R   0.428944 0.341323 0.831679 0.267206
O61   O     O_R   0.441564 0.277143 0.795165 -0.264742
O62   O     O_R   0.491291 0.422742 0.869925 -0.217456
N20   N     N_R   0.319812 0.193039 0.837727 0.249820
O63   O     O_R   0.399236 0.228466 0.901438 -0.244784
O64   O     O_R   0.265559 0.109061 0.801874 -0.308181
H40   H     H_    0.163333 0.175405 0.800530 0.214924
N21   N     N_R   0.199143 0.421507 0.772599 0.230089
O65   O     O_R   0.117775 0.394912 0.719844 -0.327929
O66   O     O_R   0.257003 0.505256 0.813661 -0.316427
H41   H     H_    0.355663 0.438462 0.810352 0.275295
H42   H     H_    0.875816 0.884107 0.632420 0.169258
N22   N     N_R   0.838355 0.095405 0.604979 0.220261
O67   O     O_R   0.778182 0.101686 0.551753 -0.296969
O68   O     O_R   0.824853 0.017833 0.593217 -0.414540
H43   H     H_    0.604928 0.195941 0.699788 0.208434
N23   N     N_R   0.586173 0.609225 0.338043 0.185657
O69   O     O_R   0.537282 0.628429 0.289062 -0.404611
O70   O     O_R   0.572772 0.528858 0.304766 -0.285630

loop_
_geom_bond_atom_site_label_1
_geom_bond_atom_site_label_2
_geom_bond_distance
_ccdc_geom_bond_type
O17   Zn5   2.006623 S    
C11   C16   1.381350 A    
O14   C71   1.287836 A    
C53   H32   1.083298 S    
C110  H18   1.082464 S    
C32   N6    1.440243 S    
C17   C18   1.392312 A    
N3    O30   1.301531 A    
C29   C30   1.386390 A    
C77   N15   1.439815 S    
N20   O63   1.301320 A    
C67   N14   1.433966 S    
C21   N3    1.440896 S    
C87   C88   1.424632 A    
O15   C72   1.276766 A    
O24   C76   1.278658 A    
C101  H15   1.086117 S    
C42   C43   1.425234 A    
C109  H43   1.081980 S    
C73   C102  1.426473 S    
C83   C84   1.400841 A    
C11   H42   1.086102 S    
C67   C68   1.409308 A    
C44   H30   1.082187 S    
Zn1   O7    2.013346 S    
C5    H25   1.082332 S    
C97   C106  1.488562 S    
N2    O27   1.301544 A    
N10   O44   1.301437 A    
C65   C66   1.402131 A    
C24   N4    1.436886 S    
C57   H34   1.083158 S    
C109  C110  1.397413 A    
C39   H28   1.082995 S    
C60   C61   1.388652 A    
C111  H19   1.081423 S    
C103  C112  1.481161 S    
O4    C2    1.285737 A    
Zn2   O6    2.024019 S    
O7    C4    1.276680 A    
C66   N12   1.435699 S    
C99   C100  1.402399 A    
C2    C15   1.442758 S    
Zn4   O16   2.019295 S    
C4    C51   1.442374 S    
N21   O65   1.301124 A    
N19   O62   1.301223 A    
C41   C46   1.394849 A    
C78   H9    1.080709 S    
C45   C46   1.392449 A    
C8    C9    1.405096 A    
C57   C58   1.398823 A    
O5    C3    1.275626 A    
C79   C80   1.421280 A    
O18   C73   1.278428 A    
N4    O31   1.299826 A    
O11   C70   1.291201 A    
C66   C67   1.381570 A    
N7    O38   1.301580 A    
C102  C103  1.404149 A    
N22   O68   1.300739 A    
C90   C91   1.404698 A    
N21   O66   1.301136 A    
C82   H37   1.082510 S    
C7    C8    1.415440 A    
C24   C25   1.416881 A    
C37   C38   1.397426 A    
C29   C34   1.380414 A    
C111  C112  1.402624 A    
O18   Zn6   2.029682 S    
N9    O41   1.301050 A    
C38   H27   1.081866 S    
O23   C76   1.286845 A    
N18   O59   1.300367 A    
C108  C109  1.398628 A    
C107  C112  1.403441 A    
O21   C75   1.275814 A    
Zn6   O24   2.024302 S    
C36   C37   1.397775 A    
C50   C51   1.409535 A    
C44   C45   1.393089 A    
N2    O28   1.300399 A    
C77   C82   1.401198 A    
C11   C12   1.385504 A    
C83   C88   1.395686 A    
C18   C19   1.400559 A    
Zn5   O21   2.029810 S    
C29   H24   1.086109 S    
C8    N13   1.437734 S    
O3    Zn1   2.036149 S    
N22   O67   1.300884 A    
C90   H39   1.082277 S    
Zn3   O13   2.012495 S    
N17   O58   1.300549 A    
N17   O57   1.300047 A    
C101  C102  1.387283 A    
C81   C82   1.394105 A    
N5    O33   1.299325 A    
C46   H29   1.082838 S    
N1    O26   1.301650 A    
N11   O46   1.301400 A    
C17   C22   1.403419 A    
C96   C97   1.404250 A    
C5    C10   1.402750 A    
O20   Zn6   2.012933 S    
O10   Zn4   2.012370 S    
N10   O43   1.301399 A    
C100  N19   1.437676 S    
C95   N20   1.437287 S    
C51   C52   1.414618 A    
C23   H22   1.082641 S    
N3    O29   1.301833 A    
C19   N2    1.439081 S    
C14   N23   1.441523 S    
C14   C15   1.411821 A    
C56   H33   1.081428 S    
N19   O61   1.301225 A    
O12   C70   1.269985 A    
C62   C63   1.418262 A    
N13   O49   1.301034 A    
C6    C7    1.404293 A    
C92   C93   1.398212 A    
C83   N17   1.439811 S    
C37   H4    1.082626 S    
C43   C44   1.405157 A    
C39   C40   1.404714 A    
C54   N10   1.437801 S    
C1    C33   1.439203 S    
C63   C64   1.405335 A    
C49   C58   1.485112 S    
N8    O39   1.300665 A    
C45   H6    1.082590 S    
O1    C1    1.276903 A    
C23   C24   1.405846 A    
C25   C26   1.401759 A    
C89   C90   1.394976 A    
C59   C60   1.393287 A    
N7    O37   1.300314 A    
C18   H2    1.082372 S    
C96   H40   1.083584 S    
C91   C92   1.407177 A    
N18   O60   1.301525 A    
C95   C100  1.412022 A    
C31   C40   1.485873 S    
N14   O52   1.300911 A    
C35   C36   1.398721 A    
C61   C62   1.393205 A    
C48   C72   1.433283 S    
C71   C105  1.440046 S    
Zn2   O8    2.036149 S    
C13   C22   1.490370 S    
C10   N1    1.440133 S    
C41   H5    1.082191 S    
C21   C22   1.417724 A    
C53   C58   1.402118 A    
N20   O64   1.301522 A    
C50   N9    1.438895 S    
C38   C39   1.399279 A    
C60   H7    1.082707 S    
C35   H26   1.083307 S    
Zn4   O14   2.023658 S    
N6    O35   1.301267 A    
C30   C74   1.427771 S    
O22   C75   1.283014 A    
C108  H17   1.082311 S    
C101  C106  1.378353 A    
C78   C79   1.406726 A    
C35   C40   1.404622 A    
C93   C94   1.399341 A    
C36   H3    1.082359 S    
C107  C108  1.398871 A    
N12   O47   1.300438 A    
C104  N22   1.434405 S    
O16   C72   1.279544 A    
C41   C42   1.409515 A    
C31   C32   1.396105 A    
C85   C86   1.377888 A    
C47   N8    1.439601 S    
C62   H8    1.080261 S    
O3    C2    1.275952 A    
C30   C31   1.407056 A    
C7    C16   1.485935 S    
C89   C94   1.401246 A    
Zn3   O15   2.030532 S    
C28   H21   1.082692 S    
C27   N5    1.436522 S    
C81   H10   1.082757 S    
C80   N16   1.442670 S    
O11   Zn3   2.019210 S    
N23   O70   1.300628 A    
N1    O25   1.301564 A    
O17   C73   1.281032 A    
C43   C52   1.487359 S    
C23   C28   1.396013 A    
Zn1   O5    2.012854 S    
N11   O45   1.301296 A    
C47   C52   1.391016 A    
N15   O54   1.301475 A    
C86   C87   1.396458 A    
N16   O55   1.300946 A    
O1    Zn1   2.024019 S    
Zn5   O23   2.013057 S    
C19   C20   1.405426 A    
O2    Zn2   2.012855 S    
C32   C33   1.414759 A    
C63   C68   1.415870 A    
O8    C4    1.284086 A    
C56   C57   1.396079 A    
O6    C3    1.278030 A    
C59   H35   1.081048 S    
O4    Zn2   2.013346 S    
N5    O34   1.301714 A    
C80   C81   1.405769 A    
C59   C64   1.417498 A    
O19   C74   1.284446 A    
C85   C94   1.475611 S    
O20   C74   1.275243 A    
C3    C65   1.430623 S    
C92   H13   1.081993 S    
N12   O48   1.300841 A    
C12   C13   1.415201 A    
C105  C106  1.417467 A    
C99   H41   1.081060 S    
C68   C76   1.442000 S    
C20   C21   1.407690 A    
N23   O69   1.299778 A    
C9    C10   1.404398 A    
C20   H20   1.082471 S    
C89   H12   1.082972 S    
C15   C16   1.415967 A    
C42   N7    1.447165 S    
C61   H36   1.082567 S    
C79   C88   1.493214 S    
C104  C105  1.410724 A    
C48   C49   1.407946 A    
O12   Zn4   2.030278 S    
C95   C96   1.402032 A    
N14   O51   1.299100 A    
C26   C27   1.399667 A    
C75   C84   1.429258 S    
C86   H11   1.085082 S    
O9    Zn3   2.023577 S    
N16   O56   1.301779 A    
N4    O32   1.301438 A    
Zn6   O22   2.006709 S    
O2    C1    1.282914 A    
O13   C71   1.272929 A    
N13   O50   1.300882 A    
C103  C104  1.393960 A    
C49   C50   1.395540 A    
C53   C54   1.406609 A    
N6    O36   1.300287 A    
C54   C55   1.417395 A    
C6    H31   1.082650 S    
C98   N21   1.443446 S    
C13   C14   1.399333 A    
C47   C48   1.403207 A    
C27   C28   1.402020 A    
C33   C34   1.415868 A    
C55   N11   1.437497 S    
C55   C56   1.404461 A    
O10   C69   1.291538 A    
C110  C111  1.397977 A    
C64   C65   1.412659 A    
C17   H1    1.081215 S    
C26   H23   1.082627 S    
O9    C69   1.272254 A    
C12   C70   1.437321 S    
C98   C99   1.404102 A    
C93   H14   1.080340 S    
N9    O42   1.300644 A    
C107  H16   1.083181 S    
C77   C78   1.403263 A    
C25   C34   1.487037 S    
C97   C98   1.419264 A    
C91   N18   1.437052 S    
C9    H38   1.080101 S    
N15   O53   1.301578 A    
O19   Zn5   2.024220 S    
C5    C6    1.394780 A    
C84   C85   1.404963 A    
N8    O40   1.299367 A    
C69   C87   1.441950 S    
