data_mof_unit_19349.cif
_audit_creation_date              2013-03-05T15:41:03-0500
_audit_creation_method            fapswitch 2.2
_symmetry_space_group_name_H-M    P1
_symmetry_Int_Tables_number       1
_space_group_crystal_system       triclinic
_cell_length_a                    28.011117
_cell_length_b                    18.435076
_cell_length_c                    16.982666
_cell_angle_alpha                 90.152336
_cell_angle_beta                  61.225152
_cell_angle_gamma                 90.20324
_cell_volume                      7686.68560299

loop_
_atom_site_label
_atom_site_type_symbol
_atom_site_description
_atom_site_fract_x
_atom_site_fract_y
_atom_site_fract_z
_atom_type_partial_charge
O1    O     O_R   0.746490 0.236330 0.638080 -0.633040
O2    O     O_R   0.253510 0.763670 0.361920 -0.644895
O3    O     O_R   0.253510 0.236330 0.361920 -0.638908
O4    O     O_R   0.746490 0.763670 0.638080 -0.667300
O5    O     O_R   0.246490 0.736330 0.638080 -0.637771
O6    O     O_R   0.753510 0.263670 0.361920 -0.644481
O7    O     O_R   0.753510 0.736330 0.361920 -0.641486
O8    O     O_R   0.246490 0.263670 0.638080 -0.645521
O9    O     O_R   0.674170 0.186160 0.516270 -0.639460
O10   O     O_R   0.325830 0.813840 0.483730 -0.650253
O11   O     O_R   0.325830 0.186160 0.483730 -0.628228
O12   O     O_R   0.674170 0.813840 0.516270 -0.648185
O13   O     O_R   0.174170 0.686160 0.516270 -0.627491
O14   O     O_R   0.825830 0.313840 0.483730 -0.653381
O15   O     O_R   0.825830 0.686160 0.483730 -0.630878
O16   O     O_R   0.174170 0.313840 0.516270 -0.657366
O17   O     O_R   0.739960 0.127620 0.525000 -0.617744
O18   O     O_R   0.260040 0.872380 0.475000 -0.629514
O19   O     O_R   0.260040 0.127620 0.475000 -0.615427
O20   O     O_R   0.739960 0.872380 0.525000 -0.629612
O21   O     O_R   0.239960 0.627620 0.525000 -0.613141
O22   O     O_R   0.760040 0.372380 0.475000 -0.611919
O23   O     O_R   0.760040 0.627620 0.475000 -0.613899
O24   O     O_R   0.239960 0.372380 0.525000 -0.629123
O25   O     O_R   0.680700 0.294870 0.629350 -0.548510
O26   O     O_R   0.319300 0.705130 0.370650 -0.555875
O27   O     O_R   0.319300 0.294870 0.370650 -0.566099
O28   O     O_R   0.680700 0.705130 0.629350 -0.548098
O29   O     O_R   0.180700 0.794870 0.629350 -0.564833
O30   O     O_R   0.819300 0.205130 0.370650 -0.563588
O31   O     O_R   0.819300 0.794870 0.370650 -0.554050
O32   O     O_R   0.180700 0.205130 0.629350 -0.554047
C1    C     C_R   0.704280 0.274693 0.674835 0.923560
C2    C     C_R   0.299610 0.734763 0.322673 0.905992
C3    C     C_R   0.295419 0.275139 0.325512 0.912451
C4    C     C_R   0.700402 0.734706 0.677415 0.910600
C5    C     C_R   0.204584 0.775068 0.674472 0.911526
C6    C     C_R   0.796108 0.225890 0.324723 0.888855
C7    C     C_R   0.795455 0.775061 0.325486 0.912661
C8    C     C_R   0.200353 0.234830 0.677424 0.911461
C9    C     C_R   0.696361 0.128232 0.516151 0.898730
C10   C     C_R   0.309038 0.870272 0.462878 0.865069
C11   C     C_R   0.309082 0.129700 0.462772 0.905001
C12   C     C_R   0.696041 0.871790 0.517021 0.884588
C13   C     C_R   0.190772 0.629647 0.537256 0.902594
C14   C     C_R   0.808545 0.370935 0.467185 0.887594
C15   C     C_R   0.803822 0.627942 0.481844 0.918603
C16   C     C_R   0.191156 0.370389 0.536282 0.871614
Zn1   Zn    Zn3+2 0.792340 0.208750 0.507670 1.046722
Zn2   Zn    Zn3+2 0.207660 0.791250 0.492330 1.041536
Zn3   Zn    Zn3+2 0.207660 0.208750 0.492330 1.044914
Zn4   Zn    Zn3+2 0.792340 0.791250 0.507670 1.034312
Zn5   Zn    Zn3+2 0.292340 0.708750 0.507670 1.050216
Zn6   Zn    Zn3+2 0.707660 0.291250 0.492330 1.062519
Zn7   Zn    Zn3+2 0.707660 0.708750 0.492330 1.060951
Zn8   Zn    Zn3+2 0.292340 0.291250 0.507670 1.043773
H1    H     H_    0.034432 0.250254 0.533680 0.178484
H2    H     H_    0.922518 0.740400 0.598534 0.176935
H3    H     H_    0.969203 0.253076 0.476000 0.180848
H4    H     H_    0.004948 0.742963 0.614852 0.196722
H5    H     H_    0.569290 0.751606 0.410551 0.180220
H6    H     H_    0.490853 0.247911 0.388332 0.201349
H7    H     H_    0.489191 0.751873 0.388421 0.201222
H8    H     H_    0.572425 0.247551 0.406521 0.180482
C17   C     C_R   0.572604 0.130891 0.423446 0.073496
C18   C     C_R   0.478893 0.868424 0.400490 0.075007
C19   C     C_R   0.479597 0.131485 0.400840 0.075435
C20   C     C_R   0.570714 0.868414 0.426193 0.072335
C21   C     C_R   0.021732 0.628392 0.587921 0.067226
C22   C     C_R   0.956335 0.369216 0.492845 0.069680
C23   C     C_R   0.928410 0.625911 0.565973 0.074948
C24   C     C_R   0.033865 0.366658 0.552339 0.076177
C25   C     C_R   0.553018 0.196343 0.407528 -0.168945
C26   C     C_R   0.505136 0.803059 0.397317 -0.117439
C27   C     C_R   0.506640 0.196634 0.396705 -0.100818
C28   C     C_R   0.550706 0.803007 0.410304 -0.183869
C29   C     C_R   0.991887 0.692091 0.599230 -0.086569
C30   C     C_R   0.980068 0.303325 0.496738 -0.158825
C31   C     C_R   0.945012 0.690601 0.589649 -0.066997
C32   C     C_R   0.016964 0.301665 0.530034 -0.133066
C33   C     C_R   0.501317 0.065614 0.410501 0.031430
C34   C     C_R   0.546918 0.934128 0.423471 0.041828
C35   C     C_R   0.547662 0.065390 0.422596 0.043085
C36   C     C_R   0.500868 0.934184 0.410603 0.029577
C37   C     C_R   0.958517 0.562514 0.552965 0.035696
C38   C     C_R   0.011253 0.432655 0.546516 0.031447
C39   C     C_R   0.003686 0.563098 0.567972 0.035996
C40   C     C_R   0.970034 0.433328 0.522098 0.033619
C41   C     C_R   0.943309 0.498301 0.525622 -0.031463
C42   C     C_R   0.030292 0.498074 0.564205 -0.031833
C43   C     C_R   0.476284 0.999975 0.409258 -0.037813
C44   C     C_R   0.568758 0.999708 0.434332 -0.036523
C45   C     C_R   0.887152 0.434823 0.472699 0.052948
C46   C     C_R   0.101443 0.565280 0.577159 0.051755
C47   C     C_R   0.102947 0.432466 0.572100 0.044158
C48   C     C_R   0.870969 0.562801 0.514745 0.049018
C49   C     C_R   0.399489 0.933604 0.414010 0.044331
C50   C     C_R   0.633002 0.066055 0.467663 0.061415
C51   C     C_R   0.631886 0.933220 0.469712 0.062421
C52   C     C_R   0.399578 0.066610 0.414697 0.049052
C53   C     C_R   0.840526 0.435657 0.459200 -0.104103
C54   C     C_R   0.155765 0.565028 0.563457 -0.115070
C55   C     C_R   0.156316 0.434234 0.562003 -0.102522
C56   C     C_R   0.831136 0.563026 0.485109 -0.103900
C57   C     C_R   0.343879 0.934634 0.435180 -0.105291
C58   C     C_R   0.671321 0.064354 0.501543 -0.099166
C59   C     C_R   0.670708 0.935348 0.502799 -0.093779
C60   C     C_R   0.343934 0.065439 0.435423 -0.113669
C61   C     C_R   0.816963 0.500220 0.457498 -0.273982
C62   C     C_R   0.180766 0.499829 0.561203 -0.271361
C63   C     C_R   0.318045 0.999976 0.441973 -0.271192
C64   C     C_R   0.687594 0.999984 0.520712 -0.295446
H9    H     H_    0.784412 0.500711 0.440109 0.203329
H10   H     H_    0.222083 0.500136 0.550874 0.204688
H11   H     H_    0.275387 0.999893 0.459426 0.206109
H12   H     H_    0.715485 0.000163 0.548208 0.198749
C65   C     C_R   0.900859 0.498840 0.503384 0.069279
C66   C     C_R   0.077786 0.498620 0.572847 0.075515
C67   C     C_R   0.425462 0.000084 0.411067 0.079522
C68   C     C_R   0.611065 0.999649 0.457734 0.068021
C69   C     C_R   0.074783 0.367194 0.576396 -0.194021
C70   C     C_R   0.882262 0.623709 0.554962 -0.199787
C71   C     C_R   0.918854 0.371881 0.461003 -0.203993
C72   C     C_R   0.070077 0.629135 0.593413 -0.183191
C73   C     C_R   0.613342 0.868393 0.446537 -0.242386
C74   C     C_R   0.430209 0.131352 0.398994 -0.189774
C75   C     C_R   0.429888 0.868866 0.397603 -0.202222
C76   C     C_R   0.615952 0.130587 0.442020 -0.235949
H13   H     H_    0.084739 0.315872 0.595100 0.208006
H14   H     H_    0.855702 0.669953 0.580364 0.183751
H15   H     H_    0.915746 0.324358 0.426442 0.202782
H16   H     H_    0.082170 0.679554 0.611368 0.197049
H17   H     H_    0.630008 0.815739 0.442987 0.183445
H18   H     H_    0.416327 0.182264 0.386150 0.198810
H19   H     H_    0.415918 0.818129 0.383940 0.202595
H20   H     H_    0.634594 0.182537 0.435140 0.179215
C77   C     C_R   0.721521 0.271645 0.953626 0.002574
C78   C     C_R   0.286798 0.748121 0.038158 0.001801
C79   C     C_R   0.274658 0.280036 0.050530 0.004472
C80   C     C_R   0.712480 0.749286 0.962733 0.001430
C81   C     C_R   0.224969 0.779489 0.949979 0.004157
C82   C     C_R   0.781506 0.232505 0.043048 0.003624
C83   C     C_R   0.774443 0.780253 0.050882 0.000327
C84   C     C_R   0.212616 0.249266 0.962482 0.001634
C85   C     C_R   0.777978 0.255187 0.903098 0.086771
C86   C     C_R   0.235184 0.781831 0.084966 0.089080
C87   C     C_R   0.219207 0.259267 0.100970 0.086768
C88   C     C_R   0.764425 0.782280 0.915886 0.099006
C89   C     C_R   0.280186 0.757973 0.899719 0.085529
C90   C     C_R   0.725124 0.249122 0.093246 0.095225
C91   C     C_R   0.719039 0.759316 0.101222 0.092429
C92   C     C_R   0.264513 0.282446 0.915578 0.088324
C93   C     C_R   0.807647 0.230919 0.947553 -0.079935
C94   C     C_R   0.201006 0.787728 0.044311 -0.075470
C95   C     C_R   0.190381 0.234259 0.055527 -0.074444
C96   C     C_R   0.798459 0.788013 0.956704 -0.077702
C97   C     C_R   0.308754 0.732661 0.945261 -0.072956
C98   C     C_R   0.695708 0.273848 0.048945 -0.078228
C99   C     C_R   0.690204 0.734318 0.055785 -0.077841
C100  C     C_R   0.298715 0.287941 0.956158 -0.075537
C101  C     C_R   0.636967 0.312719 0.955794 -0.032543
C102  C     C_R   0.365297 0.691028 0.041692 -0.028746
C103  C     C_R   0.360126 0.317730 0.046577 -0.037619
C104  C     C_R   0.633909 0.692361 0.958924 -0.030393
C105  C     C_R   0.139884 0.818158 0.953529 -0.036071
C106  C     C_R   0.865279 0.189936 0.042344 -0.035965
C107  C     C_R   0.859975 0.818050 0.046749 -0.038312
C108  C     C_R   0.134014 0.192268 0.958771 -0.028453
C109  C     C_R   0.609755 0.335633 0.907194 -0.199436
C110  C     C_R   0.390569 0.665525 0.092780 -0.210657
C111  C     C_R   0.388570 0.337896 0.094020 -0.197728
C112  C     C_R   0.608944 0.666170 0.907638 -0.212720
C113  C     C_R   0.111602 0.838301 0.905823 -0.198283
C114  C     C_R   0.891671 0.165778 0.091777 -0.202872
C115  C     C_R   0.888468 0.838110 0.094120 -0.200502
C116  C     C_R   0.109006 0.166116 0.907516 -0.210566
C117  C     C_R   0.628552 0.312419 0.819850 0.225440
C118  C     C_R   0.374033 0.692520 0.178696 0.226390
C119  C     C_R   0.370236 0.314001 0.180837 0.232581
C120  C     C_R   0.625812 0.692476 0.821409 0.217958
C121  C     C_R   0.129911 0.814186 0.819039 0.231260
C122  C     C_R   0.872514 0.188576 0.179516 0.233616
C123  C     C_R   0.870175 0.814224 0.180914 0.226009
C124  C     C_R   0.125769 0.192623 0.821383 0.224346
C125  C     C_R   0.683098 0.292191 0.769956 -0.250582
C126  C     C_R   0.324846 0.729625 0.223601 -0.241953
C127  C     C_R   0.315670 0.293949 0.231362 -0.243332
C128  C     C_R   0.675169 0.729544 0.776480 -0.239439
C129  C     C_R   0.184353 0.793869 0.768712 -0.242372
C130  C     C_R   0.818059 0.209423 0.228835 -0.243015
C131  C     C_R   0.815676 0.793923 0.231371 -0.244954
C132  C     C_R   0.175049 0.229836 0.776522 -0.240952
C133  C     C_R   0.716318 0.287371 0.813221 0.039207
C134  C     C_R   0.297314 0.753368 0.174791 0.048912
C135  C     C_R   0.281530 0.290434 0.189668 0.039206
C136  C     C_R   0.702662 0.753579 0.825443 0.050694
C137  C     C_R   0.218357 0.790078 0.810647 0.038240
C138  C     C_R   0.785636 0.215484 0.184297 0.045915
C139  C     C_R   0.781557 0.790305 0.189652 0.045584
C140  C     C_R   0.202524 0.253898 0.825475 0.048306
C141  C     C_R   0.691326 0.289226 0.907868 0.075128
C142  C     C_R   0.316486 0.730655 0.084909 0.071159
C143  C     C_R   0.305651 0.294927 0.095318 0.074621
C144  C     C_R   0.682964 0.731646 0.915700 0.072876
C145  C     C_R   0.194171 0.794784 0.905005 0.074711
C146  C     C_R   0.811160 0.214147 0.089528 0.073178
C147  C     C_R   0.805534 0.795133 0.095497 0.075245
C148  C     C_R   0.183006 0.231695 0.915571 0.071780
C149  C     C_R   0.612556 0.316547 0.049717 -0.171447
C150  C     C_R   0.387550 0.679073 0.948470 -0.179675
C151  C     C_R   0.385056 0.317914 0.952330 -0.169683
C152  C     C_R   0.611171 0.681103 0.052279 -0.177108
C153  C     C_R   0.114978 0.818705 0.047815 -0.169763
C154  C     C_R   0.890261 0.186831 0.948301 -0.173503
C155  C     C_R   0.884876 0.818022 0.952545 -0.175034
C156  C     C_R   0.111327 0.180979 0.052110 -0.177839
C157  C     C_R   0.641849 0.303000 0.095651 0.275778
C158  C     C_R   0.358971 0.694528 0.901869 0.273890
C159  C     C_R   0.355864 0.301303 0.906691 0.273788
C160  C     C_R   0.639600 0.696708 0.099213 0.277746
C161  C     C_R   0.143999 0.801872 0.093606 0.274547
C162  C     C_R   0.861819 0.202442 0.901320 0.279804
C163  C     C_R   0.855574 0.800892 0.907294 0.295551
C164  C     C_R   0.139738 0.196746 0.099015 0.276407
C165  C     C_R   0.773548 0.284288 0.765992 -0.157569
C166  C     C_R   0.253191 0.802694 0.209826 -0.141274
C167  C     C_R   0.224291 0.284530 0.238125 -0.153874
C168  C     C_R   0.747340 0.802321 0.790163 -0.161588
C169  C     C_R   0.275555 0.783631 0.762424 -0.151309
C170  C     C_R   0.728558 0.218859 0.230491 -0.156831
C171  C     C_R   0.724429 0.783988 0.237976 -0.158280
C172  C     C_R   0.246961 0.302997 0.790371 -0.140227
C173  C     C_R   0.803552 0.270364 0.810169 -0.118045
C174  C     C_R   0.221806 0.814335 0.167718 -0.121870
C175  C     C_R   0.193931 0.269347 0.194736 -0.121498
C176  C     C_R   0.778575 0.813976 0.832569 -0.138013
C177  C     C_R   0.305648 0.767842 0.805962 -0.118913
C178  C     C_R   0.699017 0.233389 0.185909 -0.129705
C179  C     C_R   0.693883 0.769089 0.194905 -0.128623
C180  C     C_R   0.278269 0.314702 0.832681 -0.120576
H21   H     H_    0.570380 0.332274 0.089024 0.222857
H22   H     H_    0.428011 0.657753 0.908813 0.226182
H23   H     H_    0.428641 0.325811 0.913110 0.220425
H24   H     H_    0.570531 0.659898 0.091528 0.225095
H25   H     H_    0.071471 0.826966 0.087039 0.220740
H26   H     H_    0.932319 0.170274 0.909651 0.220453
H27   H     H_    0.928494 0.825564 0.913210 0.220329
H28   H     H_    0.070698 0.159766 0.091449 0.225531
H29   H     H_    0.796273 0.296065 0.694998 0.171693
H30   H     H_    0.243043 0.836154 0.267799 0.180979
H31   H     H_    0.201729 0.293806 0.309689 0.175234
H32   H     H_    0.758167 0.835310 0.731749 0.185148
H33   H     H_    0.298342 0.792918 0.690918 0.177617
H34   H     H_    0.705719 0.206687 0.300865 0.150651
H35   H     H_    0.702237 0.792695 0.309194 0.153460
H36   H     H_    0.257493 0.336128 0.732146 0.181295
H37   H     H_    0.847198 0.274387 0.770169 0.182199
H38   H     H_    0.188413 0.852266 0.198706 0.179823
H39   H     H_    0.150183 0.268247 0.235716 0.178974
H40   H     H_    0.812608 0.851140 0.801234 0.176601
H41   H     H_    0.349392 0.766128 0.765120 0.181763
H42   H     H_    0.655277 0.229818 0.225270 0.168321
H43   H     H_    0.650164 0.767766 0.236015 0.169397
H44   H     H_    0.311987 0.352355 0.801647 0.180386
O33   O     O_R   0.062020 0.072840 0.007170 -0.632850
O34   O     O_R   0.937980 0.927160 0.992830 -0.627784
O35   O     O_R   0.937980 0.072840 0.992830 -0.629650
O36   O     O_R   0.062020 0.927160 0.007170 -0.628060
O37   O     O_R   0.562020 0.572840 0.007170 -0.629784
O38   O     O_R   0.437980 0.427160 0.992830 -0.628148
O39   O     O_R   0.437980 0.572840 0.992830 -0.634490
O40   O     O_R   0.562020 0.427160 0.007170 -0.625707
O41   O     O_R   0.947860 0.073950 0.109290 -0.552737
O42   O     O_R   0.052140 0.926050 0.890710 -0.552729
O43   O     O_R   0.052140 0.073950 0.890710 -0.552918
O44   O     O_R   0.947860 0.926050 0.109290 -0.554903
O45   O     O_R   0.447860 0.573950 0.109290 -0.550923
O46   O     O_R   0.552140 0.426050 0.890710 -0.552925
O47   O     O_R   0.552140 0.573950 0.890710 -0.550583
O48   O     O_R   0.447860 0.426050 0.109290 -0.553733
C181  C     C_R   0.070529 0.104604 0.937853 0.898875
C182  C     C_R   0.929779 0.895331 0.061696 0.904312
C183  C     C_R   0.931063 0.105837 0.060676 0.895428
C184  C     C_R   0.070318 0.895440 0.938117 0.907126
C185  C     C_R   0.570458 0.604662 0.937940 0.902425
C186  C     C_R   0.429811 0.395273 0.061671 0.901713
C187  C     C_R   0.429236 0.604363 0.062437 0.901444
C188  C     C_R   0.569631 0.394701 0.938725 0.899192
Zn9   Zn    Zn3+2 0.505960 0.500000 0.080520 1.145417
Zn10  Zn    Zn3+2 0.494040 0.500000 0.919480 1.139425
Zn11  Zn    Zn3+2 0.005960 1.000000 0.080520 1.133794
Zn12  Zn    Zn3+2 0.994040 0.000000 0.919480 1.130830
N1    N     N_R   0.591604 0.309519 0.783388 0.226488
O49   O     O_R   0.591355 0.361353 0.731624 -0.321166
O50   O     O_R   0.550958 0.264159 0.817485 -0.372122
N2    N     N_R   0.409198 0.686012 0.218230 0.216394
O51   O     O_R   0.405170 0.630773 0.268766 -0.332231
O52   O     O_R   0.448164 0.732977 0.197764 -0.407598
N3    N     N_R   0.407892 0.309089 0.215735 0.215772
O53   O     O_R   0.447270 0.262118 0.181062 -0.402988
O54   O     O_R   0.409746 0.360017 0.267499 -0.333148
N4    N     N_R   0.590868 0.685053 0.781506 0.225695
O55   O     O_R   0.550080 0.729221 0.805332 -0.376879
O56   O     O_R   0.595489 0.629666 0.730533 -0.325702
N5    N     N_R   0.092302 0.809156 0.784004 0.216321
O57   O     O_R   0.090561 0.860098 0.732464 -0.335596
O58   O     O_R   0.052930 0.761894 0.818200 -0.394906
N6    N     N_R   0.908946 0.190177 0.217023 0.222591
O59   O     O_R   0.908301 0.137810 0.268857 -0.333038
O60   O     O_R   0.949982 0.234940 0.183903 -0.391097
N7    N     N_R   0.907819 0.809629 0.215860 0.227590
O61   O     O_R   0.947710 0.763455 0.180433 -0.370135
O62   O     O_R   0.909361 0.860604 0.267843 -0.326237
N8    N     N_R   0.090784 0.185451 0.781535 0.218616
O63   O     O_R   0.052726 0.233124 0.799868 -0.391037
O64   O     O_R   0.094860 0.129910 0.731105 -0.331785
N9    N     N_R   0.619004 0.330340 0.185870 0.189860
O65   O     O_R   0.647763 0.373395 0.207564 -0.343384
O66   O     O_R   0.567040 0.323990 0.240613 -0.393074
N10   N     N_R   0.378665 0.662326 0.814600 0.190391
O67   O     O_R   0.430490 0.663191 0.757349 -0.349976
O68   O     O_R   0.346431 0.621576 0.798166 -0.367995
N11   N     N_R   0.386337 0.289695 0.811297 0.200931
O69   O     O_R   0.428432 0.330159 0.762048 -0.341507
O70   O     O_R   0.377577 0.231871 0.775919 -0.358793
N12   N     N_R   0.619411 0.664892 0.186684 0.190404
O71   O     O_R   0.567483 0.665603 0.243251 -0.387338
O72   O     O_R   0.651181 0.623991 0.203563 -0.341757
N13   N     N_R   0.113373 0.790799 0.189056 0.200443
O73   O     O_R   0.071740 0.831853 0.238059 -0.346288
O74   O     O_R   0.121459 0.732939 0.224765 -0.361866
N14   N     N_R   0.886228 0.178233 0.809741 0.187079
O75   O     O_R   0.937571 0.190740 0.755398 -0.366254
O76   O     O_R   0.860075 0.132803 0.785407 -0.374652
N15   N     N_R   0.885830 0.786153 0.812812 0.190033
O77   O     O_R   0.928664 0.824626 0.761419 -0.395764
O78   O     O_R   0.875970 0.726989 0.781183 -0.410795
N16   N     N_R   0.119369 0.165381 0.186732 0.189275
O79   O     O_R   0.067555 0.167724 0.243843 -0.367622
O80   O     O_R   0.150771 0.123925 0.203836 -0.369524

loop_
_geom_bond_atom_site_label_1
_geom_bond_atom_site_label_2
_geom_bond_distance
_ccdc_geom_bond_type
O4    C4    1.250877 A    
C155  H27   1.082549 S    
O5    C5    1.254994 A    
C138  C146  1.412140 A    
C159  N11   1.437735 S    
C59   C64   1.367014 A    
C23   C70   1.392787 A    
O7    Zn7   2.018878 S    
O31   Zn4   2.073207 S    
C111  C119  1.380025 A    
O8    Zn8   2.018878 S    
C86   C174  1.401632 A    
O33   C181  1.232092 A    
C113  C184  1.463780 S    
C114  C183  1.470366 S    
C103  C143  1.404134 A    
C77   C98   1.420525 A    
C110  C118  1.392211 A    
C96   C163  1.423358 A    
C167  H31   1.079773 S    
C80   C99   1.419346 A    
C38   C40   1.402242 A    
C81   C94   1.415718 A    
C100  C159  1.425705 A    
C135  C143  1.410246 A    
C120  N4    1.439848 S    
C133  C141  1.411184 A    
O30   C6    1.291517 A    
C116  C124  1.392803 A    
C2    C126  1.481247 S    
C139  C171  1.408056 A    
C104  C144  1.405748 A    
O20   C12   1.300882 A    
C47   C55   1.420623 A    
C6    C130  1.468578 S    
C89   C177  1.408665 A    
C108  C148  1.405815 A    
N12   O71   1.301370 A    
C36   C43   1.402484 A    
C136  C144  1.415949 A    
C87   C95   1.433711 A    
C49   C57   1.420233 A    
O2    C2    1.253041 A    
C83   C91   1.417223 A    
C140  C148  1.415620 A    
C25   C27   1.396943 A    
O6    Zn6   2.018207 S    
C29   C31   1.398819 A    
C106  C114  1.432286 A    
C176  H40   1.081774 S    
N11   O69   1.301507 A    
O23   C15   1.286369 A    
C150  H22   1.076798 S    
C38   C42   1.406013 A    
C45   C53   1.430714 A    
N15   O78   1.300747 A    
C102  C150  1.411578 A    
O27   C3    1.287587 A    
N8    O63   1.300566 A    
C4    C128  1.481431 S    
C156  C164  1.399915 A    
C7    C131  1.458210 S    
C8    C132  1.481597 S    
C158  N10   1.436582 S    
O23   Zn7   2.018363 S    
H2    C31   1.083707 S    
N2    O51   1.302645 A    
O30   Zn1   2.072981 S    
C34   C36   1.408209 A    
C48   C56   1.427906 A    
H6    C27   1.083303 S    
O24   Zn8   2.018363 S    
C149  H21   1.080521 S    
C3    C127  1.458384 S    
O47   C185  1.272369 A    
C51   C59   1.444881 A    
C136  C168  1.416198 A    
C115  C123  1.379794 A    
C129  C137  1.439812 A    
C174  H38   1.081481 S    
C15   C56   1.438157 S    
C45   C71   1.417990 A    
C106  C146  1.404566 A    
C50   C68   1.413501 A    
H7    C26   1.083487 S    
C156  H28   1.077364 S    
O9    C9    1.237060 A    
O48   Zn9   1.992009 S    
C50   C58   1.441888 A    
C60   C63   1.382564 A    
C135  C167  1.410212 A    
C149  C157  1.401034 A    
C119  N3    1.440445 S    
C133  C165  1.406754 A    
C93   C162  1.432160 A    
O12   C12   1.232708 A    
O13   C13   1.262405 A    
C78   C142  1.436855 A    
C82   C90   1.421501 A    
O44   C182  1.272850 A    
C104  C152  1.411011 A    
C97   C158  1.422043 A    
C11   C60   1.463193 S    
C82   C146  1.436065 A    
C163  N15   1.434163 S    
C13   C54   1.467331 S    
N15   O77   1.301346 A    
C118  C126  1.392882 A    
C162  N14   1.435334 S    
C40   C41   1.400537 A    
C74   H18   1.079374 S    
C99   C160  1.422390 A    
O33   Zn11  1.982785 S    
O7    C7    1.252843 A    
O34   Zn12  1.982786 S    
O9    Zn6   2.103027 S    
O8    C8    1.250992 A    
N8    O64   1.302666 A    
O11   Zn8   2.107162 S    
C91   C99   1.433772 A    
C109  C188  1.470328 S    
C21   C29   1.402106 A    
C110  C187  1.475871 S    
O16   Zn3   2.107162 S    
C107  C155  1.404164 A    
C111  C186  1.462393 S    
C114  C122  1.383234 A    
C23   C31   1.404884 A    
C34   C44   1.404302 A    
O22   Zn6   2.011799 S    
C26   C28   1.396077 A    
C102  C142  1.407066 A    
C55   C62   1.384487 A    
C52   C74   1.416322 A    
O35   Zn12  1.985841 S    
O43   Zn12  1.992008 S    
C80   C144  1.435202 A    
C30   C32   1.397041 A    
O45   Zn9   1.998122 S    
C18   C26   1.401131 A    
C72   H16   1.080430 S    
O2    Zn2   2.018207 S    
N5    O58   1.300735 A    
H8    C25   1.083735 S    
O6    C6    1.259276 A    
C161  N13   1.437687 S    
C62   H10   1.083872 S    
C101  C109  1.431964 A    
O34   C182  1.228380 A    
C132  C140  1.446297 A    
N13   O74   1.301625 A    
H1    C32   1.083645 S    
C179  H43   1.079097 S    
C45   C65   1.413475 A    
C180  H44   1.081531 S    
H3    C30   1.083613 S    
C109  C117  1.380920 A    
C33   C35   1.408629 A    
N6    O60   1.300733 A    
O21   C13   1.291244 A    
H5    C28   1.083740 S    
C14   C53   1.456312 S    
N4    O56   1.302724 A    
C52   C60   1.423173 A    
C164  N16   1.436307 S    
C177  H41   1.079553 S    
O24   C16   1.286242 A    
C48   C65   1.406710 A    
N14   O75   1.301625 A    
O17   Zn1   2.011799 S    
C16   C55   1.457218 S    
N11   O70   1.301625 A    
N10   O68   1.301599 A    
C49   C67   1.411680 A    
O37   Zn9   1.982785 S    
N1    O49   1.302434 A    
O40   Zn9   1.985843 S    
O42   Zn12  1.998123 S    
O3    C3    1.252938 A    
C52   C67   1.412942 A    
C153  H25   1.082291 S    
C46   C54   1.424302 A    
C105  C153  1.405431 A    
C41   C65   1.410349 A    
C19   C33   1.405016 A    
N16   O80   1.301576 A    
N7    O62   1.302419 A    
C43   C67   1.409052 A    
C104  C112  1.436127 A    
C19   C27   1.401437 A    
C64   H12   1.086085 S    
C171  H35   1.072785 S    
C107  C115  1.426698 A    
C12   C59   1.451618 S    
C108  C116  1.436377 A    
C123  N7    1.440361 S    
C126  C134  1.446781 A    
C137  C169  1.410462 A    
C20   C28   1.407095 A    
C151  C159  1.403659 A    
C166  C174  1.392029 A    
C153  C161  1.404823 A    
C108  C156  1.410978 A    
C44   C68   1.419787 A    
C24   C32   1.403344 A    
C46   C66   1.412485 A    
C47   C69   1.419114 A    
C77   C141  1.435386 A    
C78   C86   1.416200 A    
C50   C76   1.428294 A    
O43   C181  1.272083 A    
O48   C186  1.273057 A    
O12   Zn7   2.107162 S    
O13   Zn2   2.103027 S    
N12   O72   1.301584 A    
C84   C148  1.435393 A    
C20   C73   1.393662 A    
O25   C1    1.290658 A    
C117  N1    1.440099 S    
C85   C173  1.412304 A    
C24   C69   1.389751 A    
O10   C10   1.262825 A    
C137  C145  1.410268 A    
O14   C14   1.247946 A    
O45   C187  1.274253 A    
O46   C188  1.275954 A    
C42   C66   1.406915 A    
C77   C85   1.422967 A    
C124  N8    1.439739 S    
C76   H20   1.068578 S    
C119  C127  1.394302 A    
C53   C61   1.370129 A    
C134  C142  1.415180 A    
C117  C125  1.395509 A    
N9    O66   1.301245 A    
O10   Zn5   2.103027 S    
C120  C128  1.393218 A    
O44   Zn11  1.992009 S    
C121  C129  1.394219 A    
C83   C147  1.428362 A    
C124  C132  1.392862 A    
C115  C182  1.461492 S    
C103  C111  1.427049 A    
C21   C39   1.406250 A    
C112  C120  1.392456 A    
N2    O52   1.300535 A    
C57   C63   1.383136 A    
C113  C121  1.379577 A    
O16   C16   1.256559 A    
C160  N12   1.436668 S    
O19   C11   1.287134 A    
O46   Zn10  1.998123 S    
C9    C58   1.449266 S    
C81   C89   1.417617 A    
C17   C76   1.393791 A    
C151  H23   1.082453 S    
O25   Zn6   2.072981 S    
C19   C74   1.398757 A    
C37   C41   1.407956 A    
O27   Zn8   2.073207 S    
C21   C72   1.401524 A    
C101  C149  1.402311 A    
C155  C163  1.402875 A    
N3    O53   1.300748 A    
O32   Zn3   2.073207 S    
C154  C162  1.403204 A    
C152  C160  1.400166 A    
C102  C110  1.439009 A    
O35   C183  1.231796 A    
O47   Zn10  1.992008 S    
O15   Zn4   2.107162 S    
O36   Zn11  1.985843 S    
O22   C14   1.300379 A    
O36   C184  1.227237 A    
C79   C100  1.415889 A    
C118  N2    1.439925 S    
C54   C62   1.384367 A    
O18   Zn2   2.011799 S    
O5    Zn5   2.018207 S    
C166  H30   1.076653 S    
O3    Zn3   2.018878 S    
C90   C98   1.433199 A    
C71   H15   1.079593 S    
C69   H13   1.078233 S    
C170  H34   1.073452 S    
O38   Zn10  1.982786 S    
C24   C38   1.399153 A    
O39   C187  1.230323 A    
C91   C179  1.407228 A    
C48   C70   1.424335 A    
C165  C173  1.394523 A    
C134  C166  1.416190 A    
C94   C161  1.426007 A    
O18   C10   1.286826 A    
C20   C34   1.396316 A    
C79   C143  1.428469 A    
C112  C185  1.474135 S    
C98   C157  1.430182 A    
C10   C57   1.460931 S    
C33   C43   1.401598 A    
O41   Zn11  1.998122 S    
O28   C4    1.302825 A    
C175  H39   1.079479 S    
N5    O57   1.302402 A    
C39   C42   1.398729 A    
O29   C5    1.290282 A    
C157  N9    1.437106 S    
C1    C125  1.463377 S    
C88   C96   1.426757 A    
C89   C97   1.434113 A    
C84   C92   1.415398 A    
C168  H32   1.076199 S    
C87   C175  1.409061 A    
C5    C129  1.458760 S    
N7    O61   1.300741 A    
C92   C100  1.427432 A    
C22   C30   1.403677 A    
N13   O73   1.301498 A    
C172  H36   1.076543 S    
O15   C15   1.243802 A    
C49   C75   1.415649 A    
C22   C40   1.402911 A    
C80   C88   1.414886 A    
O1    C1    1.257294 A    
C51   C73   1.429283 A    
C58   C64   1.367735 A    
C35   C44   1.405267 A    
C79   C87   1.417573 A    
O4    Zn4   2.018878 S    
C101  C141  1.406477 A    
C131  C139  1.439069 A    
C56   C61   1.375188 A    
C17   C35   1.396460 A    
O14   Zn1   2.103027 S    
C105  C113  1.429494 A    
C17   C25   1.406824 A    
C18   C75   1.396987 A    
C171  C179  1.393701 A    
C51   C68   1.414872 A    
C23   C37   1.397203 A    
C22   C71   1.394327 A    
O26   C2    1.305228 A    
O31   C7    1.287545 A    
C90   C178  1.410086 A    
C121  N5    1.440473 S    
O11   C11   1.259137 A    
O39   Zn10  1.985841 S    
C130  C138  1.439420 A    
C61   H9    1.085338 S    
N1    O50   1.300735 A    
C85   C93   1.438494 A    
C95   C164  1.422368 A    
O28   Zn7   2.073207 S    
C122  C130  1.395824 A    
O38   C186  1.228761 A    
C81   C145  1.429792 A    
O29   Zn2   2.072981 S    
C37   C39   1.405795 A    
C47   C66   1.407687 A    
H4    C29   1.083236 S    
O41   C183  1.275571 A    
O42   C184  1.274757 A    
C103  C151  1.404782 A    
C173  H37   1.077811 S    
C88   C176  1.401237 A    
C107  C147  1.403996 A    
C116  C181  1.474041 S    
C92   C180  1.401638 A    
C139  C147  1.407923 A    
O37   C185  1.231851 A    
C154  H26   1.081172 S    
N3    O54   1.302375 A    
C106  C154  1.402679 A    
C86   C94   1.429181 A    
C170  C178  1.391223 A    
C105  C145  1.404797 A    
O26   Zn5   2.072981 S    
N6    O59   1.302419 A    
C73   H17   1.067513 S    
N4    O55   1.300704 A    
C165  H29   1.080518 S    
C127  C135  1.439209 A    
C125  C133  1.439733 A    
C123  C131  1.393934 A    
C169  H33   1.079580 S    
C138  C170  1.403019 A    
O40   C188  1.230156 A    
C167  C175  1.394638 A    
C150  C158  1.400390 A    
O20   Zn4   2.018363 S    
N10   O67   1.301535 A    
C84   C95   1.419490 A    
C152  H24   1.077354 S    
O21   Zn5   2.011799 S    
C78   C97   1.418867 A    
C83   C96   1.412713 A    
O1    Zn1   2.018207 S    
C122  N6    1.439968 S    
O32   C8    1.302907 A    
C82   C93   1.422587 A    
N9    O65   1.301668 A    
C75   H19   1.079590 S    
O17   C9    1.300363 A    
C168  C176  1.390967 A    
C178  H42   1.078645 S    
C18   C36   1.404790 A    
O19   Zn3   2.018363 S    
N14   O76   1.301577 A    
C140  C172  1.415806 A    
C128  C136  1.446697 A    
N16   O79   1.301560 A    
C172  C180  1.391551 A    
C63   H11   1.083830 S    
C169  C177  1.394598 A    
C70   H14   1.077021 S    
C46   C72   1.416329 A    
