data_mof_unit_53631.cif
_audit_creation_date              2013-03-05T16:31:20-0500
_audit_creation_method            fapswitch 2.2
_symmetry_space_group_name_H-M    P1
_symmetry_Int_Tables_number       1
_space_group_crystal_system       triclinic
_cell_length_a                    13.087176
_cell_length_b                    14.227205
_cell_length_c                    14.997601
_cell_angle_alpha                 91.806616
_cell_angle_beta                  91.991571
_cell_angle_gamma                 70.187954
_cell_volume                      2625.00911942

loop_
_atom_site_label
_atom_site_type_symbol
_atom_site_description
_atom_site_fract_x
_atom_site_fract_y
_atom_site_fract_z
_atom_type_partial_charge
O1    O     O_R   0.499990 0.420530 0.630930 -0.614902
O2    O     O_R   0.499990 0.579480 0.630940 -0.564806
C1    C     C_R   0.500515 0.501107 0.672345 1.006747
O3    O     O_R   0.653620 0.381060 0.499970 -0.590265
O4    O     O_R   0.653620 0.540010 0.499980 -0.561665
C2    C     C_R   0.704726 0.444131 0.501081 0.984793
Zn1   Zn    Zn3+2 0.500000 0.393860 0.499990 1.034715
Zn2   Zn    Zn3+2 0.500000 0.606140 0.500010 0.999325
O5    O     O_R   0.500010 0.420520 0.369060 -0.540417
O6    O     O_R   0.500010 0.579470 0.369070 -0.624028
O7    O     O_R   0.346380 0.459990 0.500020 -0.573195
O8    O     O_R   0.346380 0.618940 0.500030 -0.628673
C3    C     C_R   0.501837 0.498360 0.327886 0.934528
C4    C     C_R   0.295595 0.555710 0.500841 0.935412
C5    C     C_R   0.038109 0.666959 0.622322 -0.237924
H1    H     H_    0.005109 0.722235 0.674385 0.143270
C6    C     C_R   0.179686 0.591047 0.517315 -0.186686
C7    C     C_R   0.875940 0.321520 0.443921 0.528445
C8    C     C_R   0.985067 0.299982 0.424465 -0.291013
C9    C     C_R   0.039226 0.364453 0.453887 -0.182034
C10   C     C_R   0.985987 0.451181 0.505256 0.040350
C11   C     C_R   0.884004 0.461323 0.539121 -0.183738
C12   C     C_R   0.032401 0.525798 0.527246 -0.057892
C13   C     C_R   0.988713 0.595836 0.597660 -0.078466
C14   C     C_R   0.898732 0.591141 0.643796 0.039890
C15   C     C_R   0.847439 0.523384 0.615115 0.608392
C16   C     C_R   0.120236 0.534233 0.480386 0.466612
C17   C     C_R   0.135281 0.663443 0.584204 0.036268
C18   C     C_R   0.823512 0.405798 0.498273 -0.220939
H2    H     H_    0.123908 0.343036 0.438955 0.203388
H3    H     H_    0.026661 0.235453 0.383145 0.154933
C19   C     C_R   0.577082 0.421081 0.906945 -0.381940
H4    H     H_    0.628655 0.358543 0.944979 0.169718
C20   C     C_R   0.570355 0.416269 0.813739 0.491968
C21   C     C_R   0.504701 0.502546 0.768892 -0.208094
C22   C     C_R   0.443301 0.589610 0.815969 -0.105797
C23   C     C_R   0.448179 0.591254 0.908989 0.529589
C24   C     C_R   0.516301 0.506987 0.953087 -0.041596
C25   C     C_R   0.585594 0.535787 0.100634 -0.235750
H5    H     H_    0.642242 0.564625 0.069678 0.145877
C26   C     C_R   0.584191 0.531573 0.192856 0.051638
C27   C     C_R   0.509137 0.495054 0.231962 -0.048458
C28   C     C_R   0.437911 0.460653 0.179024 -0.002887
C29   C     C_R   0.442076 0.462580 0.086131 0.054113
C30   C     C_R   0.514355 0.502415 0.048447 0.155518
C31   C     C_R   0.587271 0.867744 0.542930 0.333696
C32   C     C_R   0.576718 0.772359 0.549724 0.484809
N1    N     N_R   0.500000 0.747530 0.500020 -0.171202
C33   C     C_R   0.421413 0.819342 0.454508 -0.242335
H6    H     H_    0.358387 0.799619 0.418245 0.187086
C34   C     C_R   0.417637 0.919799 0.457974 0.396414
C35   C     C_R   0.503492 0.945498 0.501020 -0.125295
C36   C     C_R   0.473644 0.109399 0.425547 -0.442372
H7    H     H_    0.454827 0.075516 0.364455 0.219225
C37   C     C_R   0.460927 0.212550 0.427924 0.657415
N2    N     N_R   0.499940 0.252470 0.500020 -0.148280
C38   C     C_R   0.534838 0.197384 0.574786 -0.271005
H8    H     H_    0.560868 0.230893 0.632661 0.218603
C39   C     C_R   0.532010 0.099305 0.579683 0.511644
C40   C     C_R   0.505035 0.051791 0.502289 0.044026
N3    N     N_3   0.191200 0.729784 0.615748 -0.429586
H9    H     H_    0.188395 0.778203 0.563981 0.187293
H10   H     H_    0.150303 0.774700 0.668784 0.163659
O9    O     O_3   0.633578 0.334089 0.763314 -0.614708
C41   C     C_3   0.656958 0.242291 0.806839 -0.338242
H11   H     H_    0.724604 0.231753 0.856556 0.162062
H12   H     H_    0.685459 0.180640 0.756727 0.208080
H13   H     H_    0.583689 0.235446 0.837713 0.173544
N4    N     N_3   0.372137 0.674320 0.769241 -0.423246
H14   H     H_    0.292364 0.683416 0.785585 0.196389
H15   H     H_    0.388368 0.738046 0.792226 0.205769
O10   O     O_3   0.392643 0.677880 0.956044 -0.611161
C42   C     C_3   0.288985 0.676651 0.977984 -0.335017
H16   H     H_    0.292015 0.648158 0.046373 0.185961
H17   H     H_    0.254973 0.632399 0.930273 0.141151
H18   H     H_    0.231475 0.754622 0.978254 0.185031
N5    N     N_3   0.659457 0.563455 0.246878 -0.443725
H19   H     H_    0.738174 0.520467 0.228489 0.179486
H20   H     H_    0.647445 0.637925 0.232433 0.191545
N6    N     N_3   0.358817 0.428252 0.219848 -0.392861
H21   H     H_    0.367755 0.356722 0.194697 0.206969
H22   H     H_    0.281678 0.476212 0.200877 0.160618
N7    N     N_3   0.372472 0.426195 0.029165 -0.476407
H23   H     H_    0.291562 0.465284 0.044318 0.163482
H24   H     H_    0.389275 0.350444 0.041302 0.180379
O11   O     O_3   0.677013 0.885128 0.581194 -0.546763
C43   C     C_3   0.764816 0.845977 0.523391 -0.307665
H25   H     H_    0.746134 0.882251 0.457214 0.147070
H26   H     H_    0.787948 0.763414 0.515074 0.177636
H27   H     H_    0.836218 0.861850 0.553146 0.184486
O12   O     O_3   0.641105 0.704912 0.609714 -0.552145
C44   C     C_3   0.603750 0.737923 0.696404 -0.159840
H28   H     H_    0.513645 0.762946 0.699666 0.117772
H29   H     H_    0.632663 0.799422 0.720472 0.172496
H30   H     H_    0.636789 0.675164 0.742985 0.212973
N8    N     N_3   0.859662 0.651978 0.721850 -0.427642
H31   H     H_    0.834744 0.727135 0.704584 0.215792
H32   H     H_    0.923050 0.637804 0.769448 0.162965
O13   O     O_3   0.331233 0.991068 0.416489 -0.596762
C45   C     C_3   0.249153 0.031032 0.479278 -0.345145
H33   H     H_    0.277015 0.070679 0.534997 0.158172
H34   H     H_    0.220571 0.972172 0.505600 0.155267
H35   H     H_    0.178675 0.086607 0.445623 0.183293
O14   O     O_3   0.409376 0.274755 0.358613 -0.560282
C46   C     C_3   0.316228 0.253620 0.326155 -0.306508
H36   H     H_    0.255203 0.323045 0.300839 0.218646
H37   H     H_    0.275466 0.225970 0.378285 0.158759
H38   H     H_    0.338346 0.198751 0.269665 0.157392
O15   O     O_3   0.557827 0.050882 0.660003 -0.559877
C47   C     C_3   0.461880 0.072529 0.708368 -0.366797
H39   H     H_    0.402184 0.043832 0.672560 0.149585
H40   H     H_    0.424895 0.154131 0.722915 0.159862
H41   H     H_    0.482606 0.034256 0.773196 0.194222
O16   O     O_3   0.151447 0.486126 0.399135 -0.616484
C48   C     C_3   0.084747 0.545091 0.331572 -0.369594
H42   H     H_    0.099265 0.617436 0.326771 0.162184
H43   H     H_    0.997089 0.558388 0.342105 0.175211
H44   H     H_    0.105432 0.504476 0.266769 0.180199
O17   O     O_3   0.818452 0.265637 0.403325 -0.597645
C49   C     C_3   0.840781 0.176503 0.450681 -0.284461
H45   H     H_    0.820038 0.192016 0.522323 0.163890
H46   H     H_    0.927196 0.128016 0.444438 0.139017
H47   H     H_    0.789537 0.134536 0.421614 0.191323
O18   O     O_3   0.767323 0.511993 0.666978 -0.584330
C50   C     C_3   0.816852 0.436423 0.729115 -0.324821
H48   H     H_    0.893893 0.441396 0.759554 0.137975
H49   H     H_    0.831911 0.361517 0.697218 0.184290
H50   H     H_    0.761089 0.445121 0.784904 0.213065

loop_
_geom_bond_atom_site_label_1
_geom_bond_atom_site_label_2
_geom_bond_distance
_ccdc_geom_bond_type
C43   H25   1.114024 S    
C11   C18   1.409176 A    
C42   H16   1.109233 S    
C21   C22   1.409989 A    
C37   N2    1.368163 A    
C29   N7    1.437120 S    
C8    H3    1.082587 S    
O16   C48   1.410030 S    
C38   H8    1.077115 S    
C25   C26   1.387326 A    
C9    H2    1.074827 S    
C36   H7    1.081408 S    
C49   H45   1.114252 S    
Zn1   O7    1.909172 S    
C46   H37   1.114084 S    
C22   C23   1.394150 A    
C7    C8    1.394759 A    
C26   N5    1.434104 S    
O4    C2    1.300216 A    
O7    C4    1.297082 A    
C38   C39   1.412627 A    
C41   H12   1.108807 S    
C48   H42   1.113035 S    
C31   C35   1.412345 A    
N2    C38   1.362842 A    
N3    H10   1.045563 S    
C20   C21   1.412202 A    
C26   C27   1.408523 A    
N4    H15   1.044853 S    
O5    C3    1.292444 A    
C47   H39   1.112953 S    
C3    C27   1.443345 S    
C24   C30   1.435190 S    
C35   C40   1.518722 S    
C32   N1    1.363931 A    
C33   C34   1.412606 A    
N8    H32   1.045443 S    
C50   H50   1.105734 S    
C12   C13   1.422830 A    
C12   C16   1.408770 A    
C49   H47   1.109503 S    
C25   C30   1.390375 A    
C17   N3    1.437434 S    
C41   H13   1.113718 S    
N5    H20   1.045643 S    
C39   C40   1.418694 A    
C10   C11   1.404310 A    
C42   H17   1.116214 S    
C4    C6    1.454683 S    
N4    H14   1.044507 S    
C15   O18   1.382171 S    
Zn1   N2    2.011864 S    
O3    Zn1   1.956255 S    
C20   O9    1.398393 S    
O14   C46   1.418260 S    
C36   C40   1.401269 A    
C49   H46   1.112692 S    
C36   C37   1.419233 A    
C34   O13   1.381140 S    
C46   H38   1.110463 S    
C34   C35   1.423418 A    
C6    C16   1.390534 A    
C13   C14   1.408130 A    
N6    H22   1.044520 S    
O12   C44   1.414197 S    
O11   C43   1.409651 S    
O10   C42   1.412940 S    
C48   H43   1.113737 S    
C14   C15   1.399061 A    
N5    H19   1.045663 S    
C37   O14   1.386892 S    
C45   H35   1.108666 S    
O1    C1    1.288479 A    
C19   C20   1.398549 A    
C28   C29   1.397621 A    
Zn2   N1    2.011580 S    
C23   C24   1.397868 A    
N7    H23   1.044866 S    
C1    C21   1.446870 S    
Zn2   O8    1.956256 S    
C48   H44   1.108424 S    
N8    H31   1.044975 S    
C44   H29   1.110881 S    
C7    C18   1.411568 A    
C47   H41   1.109200 S    
O3    C2    1.287600 A    
N1    C33   1.360291 A    
N7    H24   1.044952 S    
O8    C4    1.287510 A    
C41   H11   1.110573 S    
C19   C24   1.389719 A    
C10   C12   1.416269 A    
C50   H48   1.115488 S    
C42   H18   1.109514 S    
C43   H27   1.109522 S    
C27   C28   1.404304 A    
C25   H5    1.084259 S    
C22   N4    1.434573 S    
C45   H34   1.113752 S    
Zn1   O5    2.011654 S    
C31   C32   1.416967 A    
C5    C13   1.407774 A    
O1    Zn1   1.988324 S    
C6    C17   1.405194 A    
C32   O12   1.376216 S    
O2    Zn2   2.011651 S    
C29   C30   1.398627 A    
N6    H21   1.043933 S    
O6    C3    1.284956 A    
O4    Zn2   1.909169 S    
O17   C49   1.410362 S    
C46   H36   1.106990 S    
O13   C45   1.409431 S    
C19   H4    1.082001 S    
C8    C9    1.389917 A    
C43   H26   1.113255 S    
O2    C1    1.291174 A    
C28   N6    1.429743 S    
O15   C47   1.408824 S    
O9    C41   1.412238 S    
C5    C17   1.397200 A    
C44   H28   1.112676 S    
C39   O15   1.380622 S    
C44   H30   1.108551 S    
N3    H9    1.045586 S    
C47   H40   1.113631 S    
C16   O16   1.383009 S    
C2    C18   1.464345 S    
C9    C10   1.412837 A    
C14   N8    1.434812 S    
Zn2   O6    1.988325 S    
C33   H6    1.082109 S    
C11   C15   1.412667 A    
C23   O10   1.385212 S    
C50   H49   1.111505 S    
C45   H33   1.112643 S    
C7    O17   1.382734 S    
C5    H1    1.081264 S    
O18   C50   1.411857 S    
C31   O11   1.382390 S    
