data_mof_unit_67119.cif
_audit_creation_date              2012-12-11T17:44:45-0500
_audit_creation_method            fapswitch 2.2
_symmetry_space_group_name_H-M    P1
_symmetry_Int_Tables_number       1
_space_group_crystal_system       triclinic
_cell_length_a                    8.196282
_cell_length_b                    12.653631
_cell_length_c                    14.922735
_cell_angle_alpha                 96.934745
_cell_angle_beta                  97.727194
_cell_angle_gamma                 98.398676
_cell_volume                      1501.54053167

loop_
_atom_site_label
_atom_site_type_symbol
_atom_type_description
_atom_site_fract_x
_atom_site_fract_y
_atom_site_fract_z
_atom_type_partial_charge
Ba1   Ba    Ba6+2 0.843760 0.550230 0.455610 1.637847
Ba2   Ba    Ba6+2 0.346080 0.449860 0.544400 1.646071
C1    C     C_3   0.504166 0.906089 0.181644 -0.404637
C2    C     C_R   0.109136 0.469448 0.206837 0.052079
C3    C     C_R   0.919029 0.477206 0.766515 -0.288162
C4    C     C_3   0.063284 0.763308 0.203677 0.366151
C5    C     C_R   0.817216 0.443456 0.828812 -0.011021
C6    C     C_R   0.879335 0.458760 0.922046 -0.162511
C7    C     C_R   0.048137 0.503996 0.954997 0.020505
C8    C     C_R   0.146607 0.547448 0.891282 -0.005262
C9    C     C_R   0.121334 0.508809 0.049177 0.016076
C10   C     C_R   0.290329 0.560041 0.078110 -0.014309
C11   C     C_R   0.379516 0.607278 0.015039 -0.095514
C12   C     C_3   0.573276 0.828722 0.241306 0.330200
C13   C     C_R   0.308418 0.602955 0.924521 -0.040357
C14   C     C_R   0.033949 0.462694 0.115411 -0.132469
C15   C     C_R   0.272658 0.521666 0.233287 -0.295332
C16   C     C_3   0.025293 0.786064 0.106137 -0.380476
C17   C     C_R   0.080209 0.533897 0.795969 0.053942
C18   C     C_R   0.771530 0.180813 0.535650 -0.275272
C19   C     C_R   0.421472 0.808261 0.460843 -0.275820
C20   C     C_R   0.388421 0.986715 0.429540 -0.104518
C21   C     C_R   0.322820 0.878482 0.424581 -0.007752
C22   C     C_R   0.580236 0.847208 0.511196 0.057970
C23   C     C_3   0.408439 0.283042 0.265911 0.277711
C24   C     C_R   0.646702 0.958994 0.520299 -0.054917
C25   C     C_R   0.549615 0.028807 0.477283 -0.063338
C26   C     C_R   0.614739 0.139637 0.485088 0.035520
C27   C     C_R   0.870613 0.113002 0.574547 -0.013748
C28   C     C_3   0.316270 0.783760 0.668611 0.283468
C29   C     C_R   0.807380 0.003348 0.569503 -0.090554
C30   C     C_3   0.248105 0.884601 0.646162 -0.372284
C31   C     C_3   0.929945 0.220102 0.348705 0.279150
C32   C     C_3   0.901578 0.097777 0.328092 -0.370827
C33   C     C_3   0.776675 0.700982 0.731949 0.299429
C34   C     C_3   0.353109 0.247446 0.164017 -0.357157
C35   C     C_3   0.821849 0.738649 0.834365 -0.406857
C36   C     C_R   0.993189 0.116769 0.945849 -0.037249
C37   C     C_R   0.991714 0.045503 0.011096 -0.073212
C38   C     C_R   0.893776 0.055151 0.080300 -0.062296
C39   C     C_R   0.793684 0.135211 0.084357 -0.040149
C40   C     C_R   0.792632 0.206061 0.019724 -0.063182
C41   C     C_R   0.893099 0.197863 0.951434 -0.034482
C42   C     C_2   0.283823 0.133116 0.919873 0.915505
C43   C     C_3   0.070518 0.164026 0.791207 0.262228
C44   C     C_3   0.105620 0.103558 0.873714 -0.142805
C45   C     C_3   0.587417 0.171368 0.738430 0.369308
C46   C     C_3   0.587202 0.059752 0.766407 -0.370041
C47   C     C_R   0.365334 0.564410 0.170249 -0.001907
H1    H     H_    0.672416 0.874746 0.295934 0.073923
H2    H     H_    0.885835 0.674372 0.705586 0.032185
H3    H     H_    0.670820 0.632812 0.719909 0.055193
H4    H     H_    0.448998 0.966354 0.223267 0.102891
H5    H     H_    0.714799 0.769059 0.861210 0.122167
H6    H     H_    0.931596 0.804424 0.848284 0.133449
H7    H     H_    0.852596 0.671233 0.870780 0.061890
H8    H     H_    0.469970 0.792137 0.274663 -0.047677
H9    H     H_    0.406779 0.860364 0.126138 0.122223
H10   H     H_    0.300178 0.306546 0.296000 0.025551
H11   H     H_    0.510250 0.353679 0.275744 0.060018
H12   H     H_    0.213124 0.928424 0.707820 0.150234
H13   H     H_    0.250185 0.177434 0.152518 0.130924
H14   H     H_    0.308420 0.314314 0.131341 0.089140
H15   H     H_    0.459325 0.223923 0.131825 0.132051
H16   H     H_    0.604859 0.948536 0.150227 0.121058
H17   H     H_    0.036600 0.715204 0.057383 0.076009
H18   H     H_    0.096049 0.252927 0.812690 0.053239
H19   H     H_    0.937237 0.137317 0.762663 -0.055264
H20   H     H_    0.083254 0.016176 0.845538 0.067957
H21   H     H_    0.708335 0.197738 0.715887 -0.087799
H22   H     H_    0.485393 0.165391 0.680068 0.099825
H23   H     H_    0.342048 0.939070 0.619175 0.065911
H24   H     H_    0.682661 0.061641 0.826534 0.129264
H25   H     H_    0.614104 0.003355 0.709666 0.059653
H26   H     H_    0.974695 0.691247 0.211526 0.105661
H27   H     H_    0.463793 0.029093 0.783566 0.164181
H28   H     H_    0.330441 0.525664 0.303466 0.072529
H29   H     H_    0.506774 0.648199 0.034453 0.102477
H30   H     H_    0.907813 0.420630 0.098300 0.087333
H31   H     H_    0.868773 0.464571 0.694500 0.068797
H32   H     H_    0.793472 0.432869 0.966671 0.083044
H33   H     H_    0.384558 0.642756 0.880908 0.093137
H34   H     H_    0.136501 0.862268 0.593590 0.149317
H35   H     H_    0.309299 0.037013 0.397588 0.106573
H36   H     H_    0.886481 0.954600 0.603321 0.103014
H37   H     H_    0.821215 0.265678 0.540007 0.061142
H38   H     H_    0.192578 0.745881 0.215214 -0.071480
H39   H     H_    0.370392 0.723385 0.454097 0.074341
H40   H     H_    0.896555 0.804018 0.091964 0.149496
H41   H     H_    0.115712 0.855813 0.095996 0.106036
H42   H     H_    0.446821 0.808335 0.702695 0.052024
H43   H     H_    0.312090 0.728869 0.604217 0.014633
H44   H     H_    0.068128 0.982921 0.008089 0.084294
H45   H     H_    0.818708 0.246746 0.372070 0.005965
H46   H     H_    0.895315 0.000336 0.130498 0.091181
H47   H     H_    0.715495 0.141865 0.136940 0.086364
H48   H     H_    0.711584 0.266213 0.021873 0.096459
H49   H     H_    0.888348 0.252511 0.901724 0.048637
H50   H     H_    0.490006 0.078933 0.972552 0.303923
H51   H     H_    0.038875 0.245665 0.403498 0.085169
H52   H     H_    0.785026 0.068990 0.279108 0.097754
H53   H     H_    0.889857 0.062001 0.391363 0.098940
H54   H     H_    0.008676 0.070721 0.298842 0.145499
O1    O     O_2   0.827930 0.435360 0.277760 -0.459072
O2    O     O_2   0.199281 0.118184 0.555514 -0.485170
O3    O     O_3   0.172206 0.136614 0.726329 -0.603786
O4    O     O_3   0.100310 0.439010 0.391180 -0.499178
O5    O     O_3   0.587770 0.631830 0.546230 -0.493353
O6    O     O_2   0.332600 0.233710 0.456170 -0.466658
O7    O     O_3   0.464928 0.197118 0.305118 -0.650460
O8    O     O_2   0.469516 0.433788 0.824291 -0.451457
O9    O     O_3   0.561936 0.243887 0.812342 -0.561567
O10   O     O_3   0.625610 0.634200 0.333270 -0.473101
O11   O     O_2   0.706247 0.556072 0.173774 -0.497292
O12   O     O_3   0.732881 0.787829 0.689984 -0.650781
O13   O     O_3   0.957292 0.262685 0.268855 -0.638826
O14   O     O_3   0.643327 0.753577 0.187124 -0.600785
O15   O     O_2   0.857120 0.766320 0.543890 -0.465072
O16   O     O_3   0.056570 0.691100 0.379020 -0.486030
O17   O     O_2   0.984068 0.882549 0.432234 -0.486522
O18   O     O_2   0.345919 0.227714 0.945276 -0.599225
O19   O     O_R   0.373912 0.050651 0.938398 -0.784339
O20   O     O_3   0.045071 0.853312 0.264335 -0.605613
O21   O     O_2   0.361790 0.564680 0.722290 -0.485933
O22   O     O_3   0.089410 0.561080 0.608830 -0.482783
O23   O     O_3   0.564100 0.365890 0.666740 -0.489607
O24   O     O_3   0.224874 0.737548 0.730776 -0.636888
O25   O     O_3   0.601940 0.368260 0.453780 -0.477764
O26   O     O_3   0.133140 0.308990 0.620990 -0.468158
P1    P     P_3+3 0.998770 0.403620 0.291990 0.975846
P2    P     P_3+3 0.687370 0.751000 0.571300 0.960081
P3    P     P_3+3 0.102897 0.828618 0.376215 0.951680
P4    P     P_3+3 0.190950 0.596470 0.708020 0.981134
P5    P     P_3+3 0.090822 0.168777 0.620164 0.952966
P6    P     P_3+3 0.584975 0.624245 0.214586 0.952022
P7    P     P_3+3 0.506800 0.233019 0.423876 0.931410
P8    P     P_3+3 0.602657 0.374999 0.785116 0.999085

loop_
_geom_bond_atom_site_label_1
_geom_bond_atom_site_label_2
_ccdc_geom_bond_type
O23   P8    S    
C29   H36   S    
O20   P3    S    
C39   C40   A    
Ba2   O4    S    
O7    P7    S    
Ba1   O25   S    
C31   H45   S    
C10   C47   A    
C4    H26   S    
Ba2   O6    S    
O12   P2    S    
C43   C44   S    
C24   C25   A    
C32   H53   S    
O21   P4    D    
C33   C35   S    
C22   C24   A    
C30   H12   S    
C8    C13   A    
O25   P7    S    
C36   C37   A    
C39   H47   S    
C45   O9    S    
C42   O18   D    
Ba2   O26   S    
Ba1   Ba2   S    
Ba1   O16   S    
C16   H41   S    
C42   O19   S    
C12   H8    S    
C46   H27   S    
C37   H44   S    
C44   H20   S    
O15   P2    D    
C11   H29   S    
C35   H7    S    
C6    C7    A    
O5    P2    S    
C18   H37   S    
C43   H18   S    
O11   P6    D    
C41   H49   S    
C33   O12   S    
C23   H11   S    
C34   H14   S    
C7    C8    A    
C27   P5    S    
C47   P6    S    
C19   H39   S    
C24   C29   A    
O1    P1    D    
O6    P7    D    
C1    H16   S    
Ba1   O10   S    
C4    O20   S    
O4    P1    S    
C34   H13   S    
C46   H24   S    
C42   C44   S    
O16   P3    S    
C13   H33   S    
C18   C27   A    
C4    C16   S    
C32   H52   S    
C6    H32   S    
Ba2   P4    S    
C46   H25   S    
C5    C6    A    
C28   H43   S    
Ba1   P1    S    
C40   H48   S    
C15   C47   A    
C37   C38   A    
C5    P8    S    
C2    P1    S    
C18   C26   A    
C26   P7    S    
C4    H38   S    
C20   H35   S    
C2    C14   A    
C1    H9    S    
C45   H21   S    
C9    C14   A    
C45   C46   S    
C8    C17   A    
C12   O14   S    
C43   H19   S    
C15   H28   S    
C31   C32   S    
C3    H31   S    
C7    C9    A    
Ba1   O1    S    
C45   H22   S    
C1    C12   S    
C23   O7    S    
Ba1   O4    S    
H50   O19   S    
C35   H5    S    
Ba2   O23   S    
C38   C39   A    
C20   C25   A    
C11   C13   A    
C33   H2    S    
C16   H17   S    
C40   C41   A    
C2    C15   A    
C38   H46   S    
O14   P6    S    
C25   C26   A    
C43   O3    S    
O8    P8    D    
C3    C5    A    
O22   P4    S    
C30   H34   S    
C28   O24   S    
C31   O13   S    
C23   C34   S    
O17   P3    D    
C16   H40   S    
O9    P8    S    
O24   P4    S    
Ba1   O22   S    
C28   H42   S    
Ba1   P2    S    
C9    C10   A    
C3    C17   A    
Ba2   O21   S    
C17   P4    S    
C32   H54   S    
C31   H51   S    
C14   H30   S    
C19   C21   A    
C36   C41   A    
C27   C29   A    
C28   C30   S    
C1    H4    S    
C22   P2    S    
C12   H1    S    
Ba2   O5    S    
C21   P3    S    
Ba1   O15   S    
C36   C44   S    
Ba1   O5    S    
O26   P5    S    
C35   H6    S    
Ba2   O22   S    
O3    P5    S    
O13   P1    S    
C10   C11   A    
O10   P6    S    
C19   C22   A    
C33   H3    S    
C20   C21   A    
C23   H10   S    
C34   H15   S    
O2    P5    D    
C30   H23   S    
Ba2   O25   S    
