data_mof_unit_64388.cif
_audit_creation_date              2012-12-10T21:32:43-0500
_audit_creation_method            fapswitch 2.2
_symmetry_space_group_name_H-M    P1
_symmetry_Int_Tables_number       1
_space_group_crystal_system       triclinic
_cell_length_a                    11.556042
_cell_length_b                    16.109632
_cell_length_c                    16.909977
_cell_angle_alpha                 87.938521
_cell_angle_beta                  90.129185
_cell_angle_gamma                 92.165567
_cell_volume                      3143.73642944

loop_
_atom_site_label
_atom_site_type_symbol
_atom_type_description
_atom_site_fract_x
_atom_site_fract_y
_atom_site_fract_z
_atom_type_partial_charge
C1    C     C_R   0.501853 0.489053 0.652809 0.869262
C2    C     C_R   0.502742 0.510913 0.347170 0.867820
C3    C     C_R   0.508868 0.405283 0.778437 -0.220535
C4    C     C_R   0.520247 0.594492 0.221474 -0.217619
C5    C     C_R   0.448816 0.763124 0.458596 -0.010782
C6    C     C_R   0.551221 0.236899 0.541402 -0.011624
C7    C     C_R   0.451665 0.850306 0.461045 -0.271877
C8    C     C_R   0.548415 0.149715 0.538965 -0.271837
C9    C     C_R   0.522538 0.890947 0.517026 0.330101
C10   C     C_R   0.477548 0.109051 0.482997 0.329953
C11   C     C_R   0.588402 0.841484 0.568682 -0.300340
C12   C     C_R   0.411655 0.158489 0.431341 -0.300822
C13   C     C_R   0.582962 0.754549 0.564179 0.005412
C14   C     C_R   0.417054 0.245424 0.435831 0.002752
C15   C     C_R   0.718295 0.499733 0.500020 0.910816
C16   C     C_R   0.281706 0.500266 0.499982 0.914097
C17   C     C_1   0.838618 0.499328 0.500000 -0.189848
C18   C     C_1   0.161377 0.500672 0.500003 -0.192279
C19   C     C_1   0.940708 0.499652 0.500000 0.002122
C20   C     C_1   0.059285 0.500347 0.500005 0.002028
C21   C     C_R   0.517319 0.482697 0.737904 -0.028450
C22   C     C_R   0.517354 0.516990 0.261973 -0.029307
C23   C     C_R   0.547464 0.554593 0.778550 -0.230812
C24   C     C_R   0.534951 0.444459 0.221125 -0.231545
C25   C     C_R   0.566389 0.549664 0.859108 -0.162743
C26   C     C_R   0.553621 0.448955 0.140562 -0.163421
C27   C     C_R   0.553876 0.472428 0.900521 0.328184
C28   C     C_R   0.553638 0.526475 0.099256 0.327996
C29   C     C_R   0.527276 0.400417 0.859613 -0.193009
C30   C     C_R   0.538380 0.598954 0.140247 -0.192515
H1    H     H_    0.534930 0.383987 0.251310 0.166648
H2    H     H_    0.556941 0.614854 0.748223 0.161431
H3    H     H_    0.517721 0.340843 0.891168 0.139527
H4    H     H_    0.538082 0.658715 0.108780 0.139551
H5    H     H_    0.487192 0.348926 0.747701 0.161652
H6    H     H_    0.507934 0.651271 0.252310 0.160230
H7    H     H_    0.605724 0.267818 0.584267 0.132713
H8    H     H_    0.394308 0.732226 0.415721 0.131083
H9    H     H_    0.601189 0.114980 0.580389 0.154356
H10   H     H_    0.398915 0.885057 0.419618 0.154169
H11   H     H_    0.643841 0.870238 0.612439 0.145856
H12   H     H_    0.356221 0.129715 0.387594 0.146492
H13   H     H_    0.634031 0.717052 0.604357 0.128501
H14   H     H_    0.365963 0.282900 0.395653 0.133006
N1    N     N_2   0.558639 0.465419 0.983642 -0.208428
N2    N     N_2   0.560232 0.533556 0.016157 -0.207480
N3    N     N_R   0.513820 0.716920 0.509720 -0.087449
N4    N     N_R   0.486180 0.283080 0.490280 -0.088226
N5    N     N_2   0.530619 0.979695 0.523808 -0.187183
N6    N     N_2   0.469487 0.020303 0.476225 -0.187240
O1    O     O_R   0.495050 0.422540 0.612660 -0.626414
O2    O     O_R   0.504950 0.577460 0.387340 -0.626116
O3    O     O_R   0.503930 0.561840 0.618900 -0.626348
O4    O     O_R   0.496070 0.438160 0.381100 -0.627887
O5    O     O_R   0.661110 0.430350 0.496870 -0.613539
O6    O     O_R   0.338890 0.569650 0.503130 -0.611797
O7    O     O_R   0.669990 0.569650 0.503110 -0.613270
O8    O     O_R   0.330010 0.430350 0.496890 -0.611882
Zn1   Zn    Zn3+2 0.494070 0.406980 0.495830 0.948485
Zn2   Zn    Zn3+2 0.505930 0.593020 0.504170 0.949753
H15   H     H_    0.566099 0.391567 0.110809 0.149727
H16   H     H_    0.588639 0.606507 0.888863 0.148904

loop_
_geom_bond_atom_site_label_1
_geom_bond_atom_site_label_2
_ccdc_geom_bond_type
C2    C22   S    
C6    C8    A    
C7    H10   S    
C16   O6    A    
C1    C21   S    
C8    H9    S    
O5    Zn1   S    
C25   C27   A    
C4    C22   A    
C26   C28   A    
C19   C20   S    
C3    H5    S    
C25   H16   S    
C28   N2    S    
C23   H2    S    
C27   N1    S    
C28   C30   A    
N3    Zn2   S    
C6    H7    S    
C9    N5    S    
C16   O8    A    
N1    N2    D    
C1    O1    A    
C3    C29   A    
C6    N4    A    
C2    O2    A    
C5    H8    S    
C15   O7    A    
C10   C12   A    
C16   C18   S    
C5    N3    A    
C26   H15   S    
C24   C26   A    
C11   H11   S    
C18   C20   T    
O4    Zn1   S    
C9    C11   A    
C21   C23   A    
C22   C24   A    
C3    C21   A    
C11   C13   A    
O1    Zn1   S    
C30   H4    S    
C12   H12   S    
C10   N6    S    
C29   H3    S    
C13   H13   S    
C23   C25   A    
C24   H1    S    
C4    H6    S    
N4    Zn1   S    
C14   H14   S    
N5    N6    D    
C2    O4    A    
C27   C29   A    
C7    C9    A    
C1    O3    A    
C5    C7    A    
O7    Zn2   S    
C14   N4    A    
O2    Zn2   S    
C17   C19   T    
O8    Zn1   S    
C15   C17   S    
C13   N3    A    
O3    Zn2   S    
C8    C10   A    
C4    C30   A    
O6    Zn2   S    
C12   C14   A    
C15   O5    A    
