data_mof_unit_67078.cif
_audit_creation_date              2012-12-11T17:41:23-0500
_audit_creation_method            fapswitch 2.2
_symmetry_space_group_name_H-M    P1
_symmetry_Int_Tables_number       1
_space_group_crystal_system       triclinic
_cell_length_a                    8.215936
_cell_length_b                    12.946082
_cell_length_c                    14.181624
_cell_angle_alpha                 92.953035
_cell_angle_beta                  91.030675
_cell_angle_gamma                 97.995066
_cell_volume                      1491.28895343

loop_
_atom_site_label
_atom_site_type_symbol
_atom_type_description
_atom_site_fract_x
_atom_site_fract_y
_atom_site_fract_z
_atom_type_partial_charge
Ba1   Ba    Ba6+2 0.855630 0.555280 0.454520 1.697411
Ba2   Ba    Ba6+2 0.334200 0.444810 0.545490 1.674859
Br1   Br    Br    0.285467 0.242293 0.169222 -0.570012
Br2   Br    Br    0.266766 0.062348 0.341147 -0.588281
Br3   Br    Br    0.958368 0.904485 0.035863 -0.549541
C1    C     C_3   0.620626 0.942679 0.187748 -0.282531
C2    C     C_R   0.188452 0.489581 0.194274 0.113336
C3    C     C_R   0.344062 0.538763 0.224778 -0.230458
C4    C     C_3   0.167357 0.857689 0.192829 0.774897
C5    C     C_R   0.457630 0.582542 0.161066 -0.011076
C6    C     C_R   0.415014 0.582873 0.065502 -0.094851
C7    C     C_R   0.258022 0.537620 0.032301 0.057676
C8    C     C_R   0.145441 0.486323 0.095607 0.038475
C9    C     C_R   0.057713 0.498288 0.900203 -0.025022
C10   C     C_R   0.947487 0.444265 0.962899 -0.009346
C11   C     C_R   0.009415 0.500459 0.802816 0.042923
C12   C     C_3   0.639966 0.842143 0.234781 0.338282
C13   C     C_R   0.855149 0.449350 0.772018 -0.292968
C14   C     C_R   0.744201 0.402926 0.835533 0.007952
C15   C     C_R   0.790521 0.398961 0.929914 -0.143298
C16   C     C_3   0.157283 0.934012 0.114263 0.148452
C17   C     C_R   0.211475 0.546589 0.937254 0.013170
C18   C     C_R   0.752151 0.173427 0.539376 -0.291461
C19   C     C_R   0.427907 0.813415 0.460130 -0.318447
C20   C     C_R   0.399978 0.989243 0.419850 0.184034
C21   C     C_R   0.338332 0.883634 0.418361 -0.017039
C22   C     C_R   0.574295 0.846961 0.511539 0.052598
C23   C     C_3   0.487111 0.289534 0.241399 0.643385
C24   C     C_R   0.635910 0.956992 0.519784 -0.086298
C25   C     C_R   0.547572 0.029969 0.473340 -0.069114
C26   C     C_R   0.610100 0.139472 0.484951 0.063844
C27   C     C_R   0.845847 0.103701 0.576647 -0.005823
C28   C     C_3   0.224180 0.758321 0.655718 0.290359
C29   C     C_R   0.785172 0.996229 0.570529 -0.077771
C30   C     C_3   0.238955 0.875638 0.676585 -0.336371
C31   C     C_3   0.959990 0.244811 0.350825 0.360790
C32   C     C_3   0.894775 0.130493 0.325643 -0.352215
C33   C     C_3   0.714448 0.672977 0.737502 0.274565
C34   C     C_3   0.620247 0.303853 0.168508 0.250787
C35   C     C_3   0.738721 0.695951 0.843536 -0.337286
C36   C     C_3   0.053162 0.199580 0.804545 0.297177
C37   C     C_3   0.065365 0.163324 0.904398 -0.282631
C38   C     C_3   0.543884 0.149576 0.766177 0.339966
C39   C     C_3   0.578437 0.056367 0.820400 -0.331551
C40   C     C_R   0.992732 0.437830 0.058438 0.002036
Cl1   Cl    Cl    0.627709 0.190243 0.091590 -0.678019
Cl2   Cl    Cl    0.127983 0.727942 0.144784 -0.691801
H1    H     H_    0.725469 0.860637 0.296873 0.075738
H2    H     H_    0.827421 0.647453 0.708728 0.011298
H3    H     H_    0.609220 0.609786 0.724949 0.064491
H4    H     H_    0.556470 0.993512 0.235185 0.118616
H5    H     H_    0.850009 0.754197 0.858084 0.181420
H6    H     H_    0.754213 0.623706 0.879283 0.061106
H7    H     H_    0.629954 0.727386 0.872863 0.133590
H8    H     H_    0.517816 0.808130 0.259748 -0.059803
H9    H     H_    0.547808 0.924968 0.120773 0.153485
H10   H     H_    0.479035 0.364868 0.280958 -0.153327
H11   H     H_    0.606844 0.372991 0.127481 -0.039602
H12   H     H_    0.328553 0.899225 0.735687 0.115149
H13   H     H_    0.737532 0.314499 0.206576 0.080973
H14   H     H_    0.742804 0.985095 0.172035 0.187920
H15   H     H_    0.263031 0.931075 0.067050 0.057145
H16   H     H_    0.141641 0.272007 0.799348 0.101096
H17   H     H_    0.926283 0.217009 0.792046 -0.053077
H18   H     H_    0.191539 0.146162 0.919880 0.183721
H19   H     H_    0.036480 0.225182 0.955996 0.112052
H20   H     H_    0.976508 0.091690 0.912131 0.160999
H21   H     H_    0.661088 0.183087 0.734640 -0.067932
H22   H     H_    0.452966 0.122416 0.708122 0.072369
H23   H     H_    0.281463 0.918006 0.613676 0.071679
H24   H     H_    0.674159 0.081985 0.876136 0.164329
H25   H     H_    0.622861 0.997110 0.771593 0.069640
H26   H     H_    0.464959 0.020844 0.854373 0.147533
H27   H     H_    0.378427 0.541673 0.298995 0.059102
H28   H     H_    0.502903 0.620770 0.017718 0.067468
H29   H     H_    0.703135 0.360797 0.977134 0.136334
H30   H     H_    0.817560 0.450237 0.698571 0.066730
H31   H     H_    0.907477 0.395145 0.103377 0.090830
H32   H     H_    0.297029 0.591847 0.893247 0.092321
H33   H     H_    0.857339 0.944451 0.604242 0.109814
H34   H     H_    0.117564 0.897468 0.696441 0.146552
H35   H     H_    0.797799 0.256071 0.547002 0.049270
H36   H     H_    0.294739 0.872268 0.221068 -0.189282
H37   H     H_    0.377943 0.731435 0.456872 0.069582
H38   H     H_    0.164664 0.014783 0.145197 0.136595
H39   H     H_    0.345378 0.737470 0.636220 -0.001089
H40   H     H_    0.134916 0.737234 0.595899 0.072089
H41   H     H_    0.864484 0.283510 0.386470 -0.049298
H42   H     H_    0.068291 0.249095 0.398858 0.105996
H43   H     H_    0.764803 0.122512 0.302555 0.114021
H44   H     H_    0.906077 0.082033 0.386857 0.096189
H45   H     H_    0.963385 0.099681 0.266315 0.209460
O1    O     O_2   0.887370 0.460630 0.272300 -0.493494
O2    O     O_2   0.187691 0.112155 0.567101 -0.456853
O3    O     O_3   0.091258 0.120908 0.739966 -0.599139
O4    O     O_3   0.129410 0.451380 0.388510 -0.500227
O5    O     O_3   0.575400 0.626570 0.547370 -0.498065
O6    O     O_2   0.344320 0.238700 0.455090 -0.416619
O7    O     O_3   0.524111 0.211126 0.299567 -0.608204
O8    O     O_2   0.406643 0.410611 0.834982 -0.499369
O9    O     O_3   0.478045 0.220569 0.828128 -0.565675
O10   O     O_3   0.670210 0.653170 0.329170 -0.493225
O11   O     O_2   0.799497 0.591074 0.167571 -0.421219
O12   O     O_3   0.683258 0.764251 0.696082 -0.633742
O13   O     O_3   0.004233 0.292275 0.267225 -0.588989
O14   O     O_3   0.704064 0.774040 0.169494 -0.513985
O15   O     O_2   0.845380 0.761330 0.544970 -0.472310
O16   O     O_3   0.088930 0.704860 0.376040 -0.455382
O17   O     O_2   0.005933 0.880209 0.443580 -0.468107
O18   O     O_3   0.053426 0.873024 0.263359 -0.559481
O19   O     O_2   0.302330 0.539400 0.727760 -0.476894
O20   O     O_3   0.060300 0.548700 0.611500 -0.504190
O21   O     O_3   0.519500 0.346920 0.670840 -0.482933
O22   O     O_3   0.172531 0.708182 0.737292 -0.626113
O23   O     O_3   0.614310 0.373510 0.452640 -0.494351
O24   O     O_3   0.100780 0.295230 0.623970 -0.494708
P1    P     P_3+3 0.054400 0.427280 0.286870 1.019126
P2    P     P_3+3 0.668300 0.742890 0.573060 0.970280
P3    P     P_3+3 0.124820 0.837287 0.373668 1.052427
P4    P     P_3+3 0.135310 0.572810 0.713130 0.969013
P5    P     P_3+3 0.054502 0.157908 0.625302 0.956380
P6    P     P_3+3 0.658238 0.646765 0.206143 1.051464
P7    P     P_3+3 0.527498 0.243260 0.422413 1.003957
P8    P     P_3+3 0.537146 0.347686 0.793265 0.973575

loop_
_geom_bond_atom_site_label_1
_geom_bond_atom_site_label_2
_ccdc_geom_bond_type
C31   H42   S    
C33   C35   S    
C18   H35   S    
C22   C24   A    
C36   C37   S    
C2    P1    S    
C14   C15   A    
C19   C22   A    
C38   C39   S    
Br2   C20   S    
C30   H34   S    
C2    C3    A    
C33   H2    S    
C23   H10   S    
C31   H41   S    
Ba2   O20   S    
C28   O22   S    
C32   H43   S    
C13   H30   S    
C1    H14   S    
C31   C32   S    
C19   C21   A    
C17   H32   S    
C13   C14   A    
C11   P4    S    
Ba1   O20   S    
C25   C26   A    
Ba2   O21   S    
C7    C17   A    
C4    O18   S    
C15   H29   S    
C39   H24   S    
C30   H12   S    
Ba1   Ba2   S    
O5    P2    S    
C33   O12   S    
C29   H33   S    
Ba2   O24   S    
C30   H23   S    
C38   H21   S    
C37   H18   S    
C12   H1    S    
C40   H31   S    
C1    H4    S    
C12   H8    S    
O15   P2    D    
O3    P5    S    
C38   H22   S    
O16   P3    S    
O13   P1    S    
C10   C15   A    
O1    P1    D    
O12   P2    S    
O6    P7    D    
Ba2   O19   S    
C16   H38   S    
C14   P8    S    
O9    P8    S    
O23   P7    S    
O24   P5    S    
C32   H44   S    
O4    P1    S    
C21   P3    S    
Ba2   O5    S    
Ba1   O5    S    
O20   P4    S    
Ba2   P4    S    
C23   C34   S    
C20   C21   A    
C35   H5    S    
C34   H11   S    
C24   C29   A    
O19   P4    D    
O8    P8    D    
C18   C26   A    
C28   H39   S    
C38   O9    S    
C24   C25   A    
Ba2   O23   S    
O14   P6    S    
C3    H27   S    
Ba1   P1    S    
C16   H15   S    
Ba1   O15   S    
C34   Cl1   S    
C23   O7    S    
C11   C13   A    
C4    H36   S    
C4    Cl2   S    
C35   H7    S    
C37   H20   S    
C9    C11   A    
C10   C40   A    
O17   P3    D    
O7    P7    S    
C22   P2    S    
C20   C25   A    
C1    C12   S    
Br1   C23   S    
C32   H45   S    
C31   O13   S    
C27   P5    S    
C3    C5    A    
C1    H9    S    
C5    P6    S    
O18   P3    S    
C6    C7    A    
C33   H3    S    
C18   C27   A    
C9    C17   A    
Ba2   O4    S    
C28   H40   S    
C26   P7    S    
C6    H28   S    
C12   O14   S    
C8    C40   A    
C4    C16   S    
C36   O3    S    
O21   P8    S    
Ba1   O4    S    
C34   H13   S    
C28   C30   S    
C39   H25   S    
Ba1   P2    S    
C19   H37   S    
C39   H26   S    
C5    C6    A    
Ba1   O16   S    
O2    P5    D    
C2    C8    A    
Br3   C16   S    
C7    C8    A    
Ba2   O6    S    
Ba1   O1    S    
C35   H6    S    
C37   H19   S    
C36   H16   S    
C9    C10   A    
Ba1   O23   S    
C36   H17   S    
O10   P6    S    
O11   P6    D    
Ba1   O10   S    
O22   P4    S    
C27   C29   A    
