data_mof_unit_35202.cif
_audit_creation_date              2012-10-26T18:53:19-0400
_audit_creation_method            fapswitch 2.2
_symmetry_space_group_name_H-M    P1
_symmetry_Int_Tables_number       1
_space_group_crystal_system       triclinic
_cell_length_a                    14.726632
_cell_length_b                    14.854769
_cell_length_c                    15.881664
_cell_angle_alpha                 75.835024
_cell_angle_beta                  102.523148
_cell_angle_gamma                 115.589376
_cell_volume                      3013.59145238

loop_
_atom_site_label
_atom_site_type_symbol
_atom_type_description
_atom_site_fract_x
_atom_site_fract_y
_atom_site_fract_z
_atom_type_partial_charge
C1    C     C_R   0.879921 0.312322 0.513173 0.537470
C2    C     C_R   0.188150 0.795919 0.481162 0.047506
C3    C     C_R   0.780403 0.031038 0.600369 0.234406
C4    C     C_R   0.999674 0.499811 0.659552 0.552269
C5    C     C_R   0.847507 0.132191 0.577399 -0.157619
C6    C     C_R   0.706703 0.173820 0.496420 0.215905
C7    C     C_R   0.637727 0.079438 0.534213 0.016479
C8    C     C_R   0.675106 0.004620 0.578686 0.055607
C9    C     C_R   0.531607 0.055068 0.523838 0.028811
C10   C     C_R   0.464503 0.951955 0.531023 -0.031961
C11   C     C_R   0.502934 0.877940 0.573818 -0.159068
C12   C     C_3   0.053826 0.430717 0.076901 -0.171401
C13   C     C_R   0.606227 0.904457 0.599892 -0.096555
C14   C     C_R   0.490630 0.129234 0.512368 0.299929
C15   C     C_R   0.384867 0.101730 0.493328 0.139743
C16   C     C_R   0.120136 0.687806 0.485018 0.563798
C17   C     C_R   0.319347 0.999785 0.489264 0.004266
C18   C     C_R   0.359733 0.925744 0.502102 -0.006890
C19   C     C_R   0.213258 0.969446 0.475654 -0.129548
C20   C     C_R   0.148687 0.868040 0.475434 -0.183989
C21   C     C_R   0.293413 0.827118 0.485523 0.235847
C22   C     C_R   0.722261 0.680696 0.368319 0.295398
C23   C     C_3   0.002424 0.500004 0.083501 0.004597
C24   C     C_R   0.793396 0.638378 0.376362 0.218236
C25   C     C_R   0.719207 0.513008 0.495257 0.037850
C26   C     C_R   0.638756 0.545337 0.484688 -0.086322
C27   C     C_R   0.645871 0.635477 0.424110 0.087198
C28   C     C_R   0.000327 0.500163 0.340442 0.537548
C29   C     C_R   0.551767 0.491892 0.531498 -0.014183
C30   C     C_R   0.472576 0.526845 0.513360 0.011226
C31   C     C_R   0.492819 0.625383 0.466670 -0.099179
C32   C     C_R   0.576837 0.679301 0.421002 0.272853
C33   C     C_R   0.541109 0.405635 0.596013 -0.091813
C34   C     C_3   0.062579 0.608788 0.037235 -0.208203
C35   C     C_R   0.454733 0.353141 0.639616 0.109089
C36   C     C_R   0.370893 0.382308 0.615676 0.017654
C37   C     C_R   0.378011 0.466420 0.547826 -0.005027
C38   C     C_R   0.279844 0.330923 0.655909 0.065907
C39   C     C_R   0.199523 0.364136 0.627229 0.401944
C40   C     C_3   0.050140 0.424250 0.978903 0.222925
C41   C     C_R   0.289298 0.486130 0.513609 0.329931
C42   C     C_3   0.892767 0.465427 0.937619 -0.281271
C43   C     C_3   0.892399 0.460425 0.036092 -0.248755
C44   C     C_1   0.000935 0.500155 0.250906 -0.012758
C45   C     C_3   0.063162 0.608851 0.939082 0.124094
C46   C     C_3   0.002915 0.498966 0.917930 0.149044
C47   C     C_1   0.001514 0.500117 0.175482 -0.061824
C48   C     C_1   0.000432 0.499559 0.824928 0.015251
C49   C     C_1   0.999442 0.499819 0.749141 -0.005436
C50   C     C_R   0.811290 0.204171 0.526418 -0.057766
Cu1   Cu    Cu3+1 0.081750 0.475690 0.522550 1.045851
Cu2   Cu    Cu3+1 0.918250 0.524310 0.477450 0.943728
H1    H     H_    0.016285 0.353985 0.115378 0.109940
H2    H     H_    0.860442 0.520370 0.898285 0.106510
H3    H     H_    0.444789 0.663083 0.467383 0.169281
H4    H     H_    0.600590 0.378204 0.616574 0.119798
H5    H     H_    0.841439 0.391142 0.917754 0.135128
H6    H     H_    0.849306 0.380812 0.066415 0.133022
H7    H     H_    0.852601 0.506509 0.043292 0.135403
H8    H     H_    0.022904 0.656717 0.899055 0.151343
H9    H     H_    0.140948 0.639377 0.072090 0.137266
H10   H     H_    0.186762 0.407849 0.004663 0.219995
H11   H     H_    0.150833 0.439315 0.898132 0.267594
H12   H     H_    0.133805 0.461153 0.108701 0.135320
H13   H     H_    0.389791 0.805792 0.435594 0.317176
H14   H     H_    0.312514 0.185539 0.413710 0.227533
H15   H     H_    0.397736 0.247285 0.490142 0.292439
H16   H     H_    0.891018 0.989354 0.655735 0.330049
H17   H     H_    0.724382 0.271947 0.388488 0.334926
H18   H     H_    0.026559 0.273312 0.995998 0.230433
H19   H     H_    0.920215 0.289589 0.990012 0.221118
H20   H     H_    0.605264 0.222817 0.576711 0.315856
H21   H     H_    0.537980 0.794707 0.379141 0.314609
H22   H     H_    0.238704 0.574762 0.426195 0.394025
H23   H     H_    0.026509 0.659591 0.041213 0.110855
H24   H     H_    0.120676 0.273969 0.722606 0.333835
H25   H     H_    0.515678 0.293694 0.754306 0.227364
H26   H     H_    0.462207 0.215981 0.678937 0.257043
H27   H     H_    0.787447 0.795493 0.278373 0.345004
H28   H     H_    0.838594 0.615862 0.274204 0.259784
H29   H     H_    0.934218 0.699162 0.335755 0.269861
H30   H     H_    0.320570 0.266487 0.778883 0.268540
H31   H     H_    0.268152 0.186102 0.702593 0.281506
H32   H     H_    0.208754 0.635355 0.963067 0.359037
H33   H     H_    0.631937 0.845399 0.634205 0.179846
H34   H     H_    0.067605 0.846370 0.469837 0.146041
H35   H     H_    0.927936 0.154527 0.599504 0.158913
H36   H     H_    0.453082 0.799367 0.591606 0.171342
H37   H     H_    0.179289 0.023002 0.468640 0.158950
H38   H     H_    0.723537 0.450433 0.544704 0.150492
N1    N     N_R   0.795410 0.560790 0.443550 -0.244273
N2    N     N_R   0.204590 0.439170 0.556520 -0.227542
N3    N     N_3   0.153864 0.453555 0.960229 -0.605546
N4    N     N_3   0.342539 0.176265 0.479677 -0.620287
N5    N     N_3   0.988228 0.319534 0.963077 -0.628738
N6    N     N_3   0.453523 0.268372 0.706650 -0.651575
N7    N     N_3   0.858243 0.673834 0.309450 -0.644508
N8    N     N_3   0.265627 0.245272 0.725241 -0.652221
O1    O     O_R   0.977910 0.338120 0.529720 -0.451771
O2    O     O_3   0.815769 0.958150 0.646256 -0.700550
O3    O     O_3   0.670521 0.231550 0.426976 -0.636437
O4    O     O_3   0.550366 0.226091 0.528909 -0.684258
O5    O     O_3   0.593254 0.775688 0.374444 -0.615522
O6    O     O_3   0.285919 0.542854 0.431178 -0.695260
O7    O     O_3   0.112229 0.319370 0.667293 -0.652565
O8    O     O_3   0.722503 0.762409 0.303495 -0.616862
O9    O     O_3   0.161798 0.654121 0.914461 -0.681450
O10   O     O_R   0.839850 0.379180 0.491640 -0.483353
O11   O     O_R   0.069060 0.479460 0.639610 -0.441634
O12   O     O_R   0.931000 0.520530 0.601530 -0.514113
O13   O     O_R   0.160150 0.620820 0.508360 -0.468171
O14   O     O_R   0.022090 0.661880 0.470280 -0.533875
O15   O     O_R   0.069000 0.479470 0.398470 -0.499975
O16   O     O_R   0.930940 0.520540 0.360390 -0.517028
O17   O     O_3   0.328514 0.763458 0.465383 -0.722451

loop_
_geom_bond_atom_site_label_1
_geom_bond_atom_site_label_2
_ccdc_geom_bond_type
C4    O11   A    
C45   H8    S    
H24   O7    S    
H28   N7    S    
C18   C21   A    
H30   N8    S    
C19   C20   A    
C40   N3    S    
C38   N8    S    
C1    O1    A    
C15   N4    S    
C7    C8    A    
C45   C46   S    
C40   C46   S    
C12   C23   S    
C26   C27   A    
Cu1   O15   S    
H29   N7    S    
C36   C37   A    
C30   C31   A    
C12   H12   S    
C14   O4    S    
H19   N5    S    
Cu2   O14   S    
C29   C33   A    
H32   O9    S    
C23   C43   S    
C15   C17   A    
C42   C46   S    
C6    O3    S    
C43   H6    S    
C17   C19   A    
C3    O2    S    
C35   C36   A    
H26   N6    S    
H31   N8    S    
C20   H34   S    
H15   N4    S    
C35   N6    S    
C2    C16   S    
C9    C10   A    
C12   H1    S    
C44   C47   T    
C43   H7    S    
C34   H23   S    
H14   N4    S    
C33   H4    S    
Cu1   O11   S    
H13   O17   S    
C42   H5    S    
Cu1   O1    S    
C46   C48   S    
C25   N1    A    
C23   C47   S    
C2    C20   A    
C24   N7    S    
C3    C8    A    
C28   O15   A    
C25   C26   A    
C22   O8    S    
C28   C44   S    
C34   H9    S    
Cu1   Cu2   S    
C30   C37   A    
C12   C40   S    
C9    C14   A    
H16   O2    S    
C29   C30   A    
C19   H37   S    
Cu1   N2    S    
C31   C32   A    
Cu2   O12   S    
C11   H36   S    
C23   C34   S    
C2    C21   A    
C17   C18   A    
C25   H38   S    
C32   O5    S    
C34   C45   S    
C6    C50   A    
Cu2   O10   S    
C28   O16   A    
C48   C49   T    
H17   O3    S    
C22   C27   A    
C22   C24   A    
C5    C50   A    
C42   C43   S    
C40   N5    S    
C24   N1    A    
C39   N2    A    
C16   O14   A    
H22   O6    S    
C1    C50   S    
C39   O7    S    
C4    O12   A    
Cu1   O13   S    
C27   C32   A    
C3    C5    A    
C6    C7    A    
Cu2   O16   S    
H11   N3    S    
H25   N6    S    
C21   O17   S    
C41   O6    S    
C4    C49   S    
C36   C38   A    
H18   N5    S    
C42   H2    S    
C11   C13   A    
C38   C39   A    
H20   O4    S    
C10   C18   A    
C33   C35   A    
C37   C41   A    
C10   C11   A    
C1    O10   A    
C5    H35   S    
C8    C13   A    
C7    C9    A    
H21   O5    S    
C41   N2    A    
H27   O8    S    
C26   C29   A    
H10   N3    S    
C13   H33   S    
C14   C15   A    
Cu2   N1    S    
C31   H3    S    
C45   O9    S    
C16   O13   A    
