data_mof_unit_23057.cif
_audit_creation_date              2012-12-10T16:48:07-0500
_audit_creation_method            fapswitch 2.2
_symmetry_space_group_name_H-M    P1
_symmetry_Int_Tables_number       1
_space_group_crystal_system       triclinic
_cell_length_a                    15.835021
_cell_length_b                    8.727107
_cell_length_c                    7.437736
_cell_angle_alpha                 102.158396
_cell_angle_beta                  94.210057
_cell_angle_gamma                 92.23392
_cell_volume                      1000.51938255

loop_
_atom_site_label
_atom_site_type_symbol
_atom_type_description
_atom_site_fract_x
_atom_site_fract_y
_atom_site_fract_z
_atom_type_partial_charge
C1    C     C_R   0.499064 0.200666 0.455227 0.874024
C2    C     C_R   0.500936 0.799334 0.544773 0.874023
C3    C     C_R   0.339947 0.499845 0.502306 0.823514
C4    C     C_R   0.660053 0.500155 0.497694 0.823514
C5    C     C_2   0.512569 0.037899 0.435955 0.019491
C6    C     C_2   0.487431 0.962101 0.564045 0.019491
C7    C     C_3   0.972249 0.397961 0.595196 0.321827
C8    C     C_3   0.027751 0.602039 0.404804 0.321827
C9    C     C_3   0.023077 0.355168 0.423883 -0.189582
C10   C     C_3   0.976923 0.644831 0.576117 -0.189582
C11   C     C_1   0.250430 0.500347 0.506979 -0.095255
C12   C     C_1   0.749570 0.499653 0.493021 -0.095255
C13   C     C_3   0.033487 0.541973 0.676489 -0.203279
C14   C     C_3   0.966513 0.458027 0.323511 -0.203279
C15   C     C_3   0.083075 0.500241 0.504194 0.041385
C16   C     C_3   0.916925 0.499759 0.495806 0.041386
C17   C     C_1   0.174846 0.500444 0.507286 0.055733
C18   C     C_1   0.825154 0.499556 0.492714 0.055733
Cu1   Cu    Cu3+1 0.509330 0.517380 0.684380 1.051786
Cu2   Cu    Cu3+1 0.490670 0.482620 0.315620 1.051786
H1    H     H_    0.043031 0.236162 0.362831 0.206208
H2    H     H_    0.956969 0.763838 0.637169 0.206209
H3    H     H_    0.938092 0.424856 0.178804 0.210013
H4    H     H_    0.061908 0.575144 0.821196 0.210013
H5    H     H_    0.431115 0.385336 0.950522 0.262002
H6    H     H_    0.568885 0.614663 0.049478 0.262002
N1    N     N_2   0.476600 0.456420 0.038510 -0.189797
N2    N     N_2   0.523400 0.543580 0.961490 -0.189797
O1    O     O_R   0.506070 0.286130 0.619780 -0.573371
O2    O     O_R   0.493930 0.713870 0.380220 -0.573371
O3    O     O_R   0.490300 0.256770 0.308360 -0.536825
O4    O     O_R   0.509700 0.743230 0.691640 -0.536826
O5    O     O_R   0.386960 0.514660 0.655680 -0.578903
O6    O     O_R   0.613040 0.485340 0.344320 -0.578904
O7    O     O_R   0.371190 0.485310 0.344260 -0.571590
O8    O     O_R   0.628810 0.514690 0.655740 -0.571590
Br1   Br    Br    0.931385 0.249549 0.733626 -0.475567
Br2   Br    Br    0.068614 0.750450 0.266374 -0.475567
Br3   Br    Br    0.582848 0.951803 0.241007 -0.451815
Br4   Br    Br    0.417152 0.048197 0.758992 -0.451815

loop_
_geom_bond_atom_site_label_1
_geom_bond_atom_site_label_2
_ccdc_geom_bond_type
C14   H3    S    
C8    C14   S    
C9    C14   S    
C4    O8    A    
C15   C17   S    
Cu2   N1    S    
C4    C12   S    
H6    N2    S    
Cu1   Cu2   S    
C3    O7    A    
C2    O2    A    
Cu2   O6    S    
C1    O1    A    
C7    Br1   S    
Cu2   O2    S    
C10   H2    S    
Cu1   N2    S    
C9    H1    S    
C2    C6    S    
C8    Br2   S    
C1    C5    S    
Cu1   O4    S    
C16   C18   S    
C7    C16   S    
C8    C15   S    
C14   C16   S    
Cu1   O8    S    
C13   C15   S    
C1    O3    A    
C9    C15   S    
C5    C6    D    
Cu2   O3    S    
C4    O6    A    
C3    C11   S    
C3    O5    A    
Cu1   O1    S    
C7    C13   S    
C6    Br4   S    
C2    O4    A    
Cu1   O5    S    
C12   C18   T    
N1    N2    D    
C7    C9    S    
C5    Br3   S    
C11   C17   T    
C10   C16   S    
Cu2   O7    S    
C10   C13   S    
C8    C10   S    
C13   H4    S    
H5    N1    S    
