data_mof_unit_19136.cif
_audit_creation_date              2012-12-11T14:52:39-0500
_audit_creation_method            fapswitch 2.2
_symmetry_space_group_name_H-M    P1
_symmetry_Int_Tables_number       1
_space_group_crystal_system       triclinic
_cell_length_a                    20.588617
_cell_length_b                    7.249466
_cell_length_c                    20.303161
_cell_angle_alpha                 89.99993
_cell_angle_beta                  101.678877
_cell_angle_gamma                 89.99996
_cell_volume                      2967.64192942

loop_
_atom_site_label
_atom_site_type_symbol
_atom_type_description
_atom_site_fract_x
_atom_site_fract_y
_atom_site_fract_z
_atom_type_partial_charge
O1    O     O_R   0.673670 0.377510 0.185950 -0.547254
O2    O     O_R   0.326330 0.622490 0.814050 -0.544622
O3    O     O_R   0.826330 0.877510 0.314050 -0.547254
O4    O     O_R   0.173670 0.122490 0.685950 -0.544621
O5    O     O_R   0.806260 0.705340 0.185590 -0.534126
O6    O     O_R   0.193740 0.294660 0.814410 -0.538847
O7    O     O_R   0.693740 0.205340 0.314410 -0.534126
O8    O     O_R   0.306260 0.794660 0.685590 -0.538848
C1    C     C_R   0.825555 0.538541 0.170799 0.713490
C2    C     C_R   0.174536 0.461219 0.829301 0.723199
C3    C     C_R   0.674445 0.038541 0.329201 0.713491
C4    C     C_R   0.325464 0.961219 0.670698 0.723199
O9    O     O_R   0.672940 0.707120 0.178050 -0.530909
O10   O     O_R   0.327060 0.292880 0.821950 -0.514875
O11   O     O_R   0.827060 0.207120 0.321950 -0.530910
O12   O     O_R   0.172940 0.792880 0.678050 -0.514876
O13   O     O_R   0.692060 0.879040 0.306460 -0.525340
O14   O     O_R   0.307940 0.120960 0.693540 -0.531326
O15   O     O_R   0.807940 0.379040 0.193540 -0.525340
O16   O     O_R   0.192060 0.620960 0.806460 -0.531327
C5    C     C_R   0.648245 0.539906 0.161581 0.765128
C6    C     C_R   0.351041 0.460618 0.839119 0.757074
C7    C     C_R   0.851755 0.039906 0.338419 0.765128
C8    C     C_R   0.148959 0.960619 0.660881 0.757073
O17   O     O_3   0.756430 0.544390 0.292140 -0.383389
O18   O     O_3   0.243570 0.455610 0.707860 -0.378017
O19   O     O_3   0.743570 0.044390 0.207860 -0.383389
O20   O     O_3   0.256430 0.955610 0.792140 -0.378017
V1    V     V_3+5 0.748810 0.818610 0.242180 1.442045
V2    V     V_3+5 0.251190 0.181390 0.757820 1.459407
V3    V     V_3+5 0.751190 0.318610 0.257820 1.442044
V4    V     V_3+5 0.248810 0.681390 0.742180 1.459406
C9    C     C_R   0.087695 0.962216 0.607555 -0.204574
C10   C     C_R   0.914096 0.039361 0.390715 -0.220723
C11   C     C_R   0.412305 0.462215 0.892446 -0.204574
C12   C     C_R   0.585904 0.539362 0.109285 -0.220724
C13   C     C_R   0.023336 0.170112 0.438549 0.334057
C14   C     C_R   0.980856 0.820530 0.557699 0.356327
C15   C     C_R   0.476665 0.670115 0.061450 0.334056
C16   C     C_R   0.519144 0.320528 0.942302 0.356327
C17   C     C_R   0.964657 0.170029 0.388240 0.318924
C18   C     C_R   0.034783 0.843306 0.612622 0.314730
C19   C     C_R   0.535344 0.670032 0.111759 0.318923
C20   C     C_R   0.465216 0.343303 0.887378 0.314730
C21   C     C_R   0.921131 0.919163 0.445956 -0.266237
C22   C     C_R   0.083433 0.071084 0.549834 -0.266255
C23   C     C_R   0.578868 0.419163 0.054044 -0.266239
C24   C     C_R   0.416567 0.571085 0.950166 -0.266253
C25   C     C_R   0.976517 0.931398 0.499814 -0.041426
C26   C     C_R   0.027952 0.058481 0.496161 -0.053472
C27   C     C_R   0.523483 0.431398 0.000186 -0.041424
C28   C     C_R   0.472048 0.558482 0.003838 -0.053472
H1    H     H_    0.124028 0.163579 0.546646 0.184162
H2    H     H_    0.881678 0.821821 0.448138 0.189337
H3    H     H_    0.375972 0.663582 0.953353 0.184163
H4    H     H_    0.618321 0.321819 0.051863 0.189336
C29   C     C_3   0.559906 0.058658 0.534373 0.359963
C30   C     C_3   0.442973 0.931791 0.467512 0.346398
C31   C     C_3   0.940094 0.558660 0.965626 0.359963
C32   C     C_3   0.057026 0.431789 0.032487 0.346399
C33   C     C_3   0.525197 0.881441 0.551109 0.406498
C34   C     C_3   0.477377 0.109650 0.451329 0.406449
C35   C     C_3   0.974802 0.381444 0.948891 0.406498
C36   C     C_3   0.022623 0.609648 0.048671 0.406448
H5    H     H_    0.516583 0.686638 0.455671 0.181478
H6    H     H_    0.486790 0.304730 0.547196 0.185602
H7    H     H_    0.983415 0.186638 0.044327 0.181478
H8    H     H_    0.013211 0.804732 0.952804 0.185601
C37   C     C_1   0.371045 0.968729 0.624991 -0.180817
C38   C     C_1   0.628977 0.029167 0.375010 -0.147861
C39   C     C_1   0.128954 0.468729 0.875009 -0.180816
C40   C     C_1   0.871023 0.529167 0.124990 -0.147862
C41   C     C_3   0.493153 0.165624 0.526520 -0.402338
C42   C     C_3   0.509695 0.826089 0.475810 -0.293401
C43   C     C_3   0.006847 0.665625 0.973480 -0.402339
C44   C     C_3   0.990305 0.326089 0.024189 -0.293400
C45   C     C_3   0.458529 0.984525 0.542816 -0.118329
C46   C     C_3   0.543675 0.006163 0.459311 -0.056050
C47   C     C_3   0.041471 0.484526 0.957183 -0.118329
C48   C     C_3   0.956324 0.506163 0.040688 -0.056051
C49   C     C_1   0.410137 0.975153 0.587632 0.051058
C50   C     C_1   0.590528 0.019432 0.412965 0.128315
C51   C     C_1   0.089863 0.475153 0.912368 0.051057
C52   C     C_1   0.909472 0.519432 0.087035 0.128314
O21   O     O_3   0.036040 0.748882 0.671961 -0.556562
C53   C     C_3   0.000777 0.852612 0.712150 0.086604
H9    H     H_    0.946571 0.830008 0.694736 0.168312
H10   H     H_    0.011436 0.003627 0.711338 0.096885
C54   C     C_3   0.020906 0.788113 0.784559 -0.700589
H11   H     H_    0.073579 0.824278 0.804733 0.223543
H12   H     H_    0.989552 0.855001 0.816152 0.201256
H13   H     H_    0.014919 0.636552 0.786743 0.208014
O22   O     O_3   0.959798 0.284676 0.332771 -0.554055
C55   C     C_3   0.951493 0.470625 0.351158 0.139771
H14   H     H_    0.972513 0.502986 0.404895 0.120780
H15   H     H_    0.897798 0.504229 0.341546 0.139260
C56   C     C_3   0.984895 0.596940 0.308222 -0.647610
H16   H     H_    0.964218 0.572692 0.254087 0.215584
H17   H     H_    0.976528 0.743298 0.320297 0.169655
H18   H     H_    0.039075 0.569775 0.318384 0.231206
O23   O     O_3   0.463960 0.248877 0.828040 -0.556562
C57   C     C_3   0.499224 0.352601 0.787851 0.086609
H19   H     H_    0.553430 0.329996 0.805267 0.168312
H20   H     H_    0.488565 0.503617 0.788661 0.096884
C58   C     C_3   0.479096 0.288094 0.715442 -0.700591
H21   H     H_    0.426425 0.324266 0.695266 0.223542
H22   H     H_    0.510454 0.354971 0.683851 0.201256
H23   H     H_    0.485081 0.136532 0.713261 0.208013
O24   O     O_3   0.540203 0.784681 0.167227 -0.554055
C59   C     C_3   0.548508 0.970629 0.148840 0.139772
H24   H     H_    0.527488 0.002988 0.095102 0.120780
H25   H     H_    0.602203 0.004232 0.158451 0.139261
C60   C     C_3   0.515106 0.096947 0.191775 -0.647612
H26   H     H_    0.535783 0.072701 0.245910 0.215583
H27   H     H_    0.523473 0.243304 0.179699 0.169656
H28   H     H_    0.460926 0.069782 0.181613 0.231204
O25   O     O_3   0.074639 0.288678 0.432993 -0.558721
C61   C     C_3   0.115824 0.200575 0.394810 0.098675
H29   H     H_    0.088803 0.178741 0.342054 0.158794
H30   H     H_    0.134031 0.065159 0.417338 0.124539
C62   C     C_3   0.175863 0.321834 0.393485 -0.666916
H31   H     H_    0.204371 0.344042 0.445478 0.222470
H32   H     H_    0.208588 0.253993 0.363460 0.193025
H33   H     H_    0.159683 0.457432 0.370427 0.223858
O26   O     O_3   0.929591 0.700376 0.562217 -0.552148
C63   C     C_3   0.951888 0.516088 0.560961 0.099466
H34   H     H_    0.976060 0.471623 0.612472 0.169333
H35   H     H_    0.987433 0.496513 0.526702 0.112630
C64   C     C_3   0.892516 0.391348 0.536535 -0.693564
H36   H     H_    0.869373 0.425628 0.483656 0.210011
H37   H     H_    0.908693 0.245164 0.539098 0.186179
H38   H     H_    0.855308 0.409237 0.568726 0.252226
O27   O     O_3   0.425362 0.788684 0.067005 -0.558722
C65   C     C_3   0.384177 0.700587 0.105190 0.098674
H39   H     H_    0.411199 0.678760 0.157946 0.158796
H40   H     H_    0.365970 0.565168 0.082665 0.124538
C66   C     C_3   0.324138 0.821848 0.106513 -0.666914
H41   H     H_    0.295629 0.844047 0.054520 0.222470
H42   H     H_    0.291413 0.754012 0.136539 0.193023
H43   H     H_    0.340317 0.957450 0.129568 0.223858
O28   O     O_3   0.570409 0.200375 0.937784 -0.552149
C67   C     C_3   0.548113 0.016086 0.939040 0.099465
H44   H     H_    0.523943 0.971618 0.887527 0.169331
H45   H     H_    0.512566 0.996509 0.973296 0.112631
C68   C     C_3   0.607485 0.891351 0.963468 -0.693556
H46   H     H_    0.630628 0.925641 0.016347 0.210011
H47   H     H_    0.591308 0.745166 0.960908 0.186179
H48   H     H_    0.644694 0.909236 0.931276 0.252223
O29   O     O_3   0.552984 0.751385 0.600688 -0.527048
C69   C     C_3   0.554923 0.823029 0.665679 0.116826
H49   H     H_    0.506684 0.796953 0.680521 0.106066
H50   H     H_    0.566045 0.973404 0.669290 0.150884
C70   C     C_3   0.609014 0.725183 0.715588 -0.605282
H51   H     H_    0.658189 0.754179 0.703308 0.256317
H52   H     H_    0.609021 0.775065 0.767321 0.164472
H53   H     H_    0.600422 0.574023 0.713697 0.218216
O30   O     O_3   0.454052 0.224281 0.395381 -0.540901
C71   C     C_3   0.399874 0.330012 0.406765 0.135138
H54   H     H_    0.417847 0.443967 0.442476 0.153272
H55   H     H_    0.363273 0.245507 0.427162 0.154357
C72   C     C_3   0.364264 0.412914 0.340422 -0.603425
H56   H     H_    0.347286 0.301459 0.303392 0.218910
H57   H     H_    0.320359 0.492484 0.348215 0.212826
H58   H     H_    0.398203 0.506470 0.320151 0.233013
O31   O     O_3   0.947015 0.251390 0.899310 -0.527048
C73   C     C_3   0.945077 0.323037 0.834320 0.116825
H59   H     H_    0.993316 0.296960 0.819478 0.106066
H60   H     H_    0.933956 0.473411 0.830709 0.150884
C74   C     C_3   0.890985 0.225193 0.784410 -0.605282
H61   H     H_    0.841811 0.254191 0.796690 0.256317
H62   H     H_    0.890979 0.275077 0.732677 0.164474
H63   H     H_    0.899577 0.074033 0.786300 0.218215
O32   O     O_3   0.045949 0.724277 0.104620 -0.540901
C75   C     C_3   0.100126 0.830007 0.093236 0.135138
H64   H     H_    0.082153 0.943963 0.057525 0.153274
H65   H     H_    0.136728 0.745503 0.072839 0.154358
C76   C     C_3   0.135736 0.912909 0.159580 -0.603426
H66   H     H_    0.152714 0.801454 0.196609 0.218910
H67   H     H_    0.179640 0.992479 0.151787 0.212826
H68   H     H_    0.101796 0.006464 0.179850 0.233013
Cl1   Cl    Cl    0.638100 0.143260 0.578031 -0.608360
Cl2   Cl    Cl    0.365319 0.848264 0.422301 -0.700640
Cl3   Cl    Cl    0.861900 0.643266 0.921969 -0.608359
Cl4   Cl    Cl    0.134680 0.348259 0.077699 -0.700639

loop_
_geom_bond_atom_site_label_1
_geom_bond_atom_site_label_2
_ccdc_geom_bond_type
C32   Cl4   S    
C24   H3    S    
C71   H55   S    
C4    C37   S    
C32   C47   S    
O1    C5    A    
O31   C73   S    
O19   V1    S    
O25   C61   S    
O13   V1    S    
C74   H61   S    
O3    C7    A    
C1    C40   S    
C48   C52   S    
O15   V3    S    
C14   O26   S    
C65   C66   S    
C29   Cl1   S    
C72   H56   S    
C3    C38   S    
C14   C25   A    
C35   C47   S    
O32   C75   S    
H8    C43   S    
O7    C3    A    
C6    C11   S    
C58   H22   S    
O22   C55   S    
O26   C63   S    
C12   C23   A    
C9    C18   A    
O9    V1    S    
C14   C18   A    
C24   C28   A    
C15   O27   S    
O4    C8    A    
C53   H10   S    
C35   C44   S    
C56   H16   S    
O1    V3    S    
C57   C58   S    
O2    V4    S    
C29   C41   S    
O3    V1    S    
C61   H29   S    
C31   Cl3   S    
C62   H33   S    
C71   C72   S    
C72   H57   S    
C75   H64   S    
C1    O15   A    
O30   C71   S    
C17   O22   S    
C70   H51   S    
C2    O16   A    
C76   H67   S    
C69   C70   S    
O2    C6    A    
C34   C41   S    
O14   V2    S    
C45   C49   S    
C70   H52   S    
O24   C59   S    
C39   C51   T    
C30   C45   S    
C60   H28   S    
C2    C39   S    
C7    C10   S    
O11   C7    A    
C15   C28   A    
C66   H41   S    
O12   C8    A    
C16   O28   S    
C73   H60   S    
C9    C22   A    
C36   C48   S    
C67   C68   S    
C73   H59   S    
C57   H19   S    
C10   C17   A    
O10   V2    S    
C11   C24   A    
C68   H47   S    
C68   H46   S    
O5    V1    S    
C15   C19   A    
C66   H43   S    
O7    V3    S    
C27   C28   A    
O8    V4    S    
O23   C57   S    
C56   H17   S    
C33   C45   S    
C5    C12   S    
C53   H9    S    
C65   H40   S    
C55   C56   S    
O21   C53   S    
H6    C41   S    
O11   V3    S    
C32   C44   S    
H5    C42   S    
C59   H24   S    
C70   H53   S    
C61   C62   S    
C57   H20   S    
O5    C1    A    
C66   H42   S    
C46   C50   S    
C59   C60   S    
C21   C25   A    
O8    C4    A    
C76   H68   S    
C34   O30   S    
O9    C5    A    
C18   O21   S    
C36   C43   S    
C58   H23   S    
C54   H13   S    
C55   H15   S    
C11   C20   A    
C75   C76   S    
C62   H31   S    
C40   C52   T    
C10   C21   A    
C30   C34   S    
C61   H30   S    
O6    V2    S    
C21   H2    S    
C76   H66   S    
C71   H54   S    
C74   H63   S    
C69   H50   S    
C54   H12   S    
C54   H11   S    
C31   C43   S    
C72   H58   S    
C68   H48   S    
C30   C42   S    
O17   V3    S    
C60   H26   S    
O16   V4    S    
C3    O13   A    
C63   H35   S    
C56   H18   S    
C67   H44   S    
C29   C46   S    
C34   C46   S    
C44   C48   S    
C53   C54   S    
C31   C48   S    
O6    C2    A    
C23   C27   A    
C20   O23   S    
C29   C33   S    
C65   H39   S    
O18   V4    S    
C33   C42   S    
O12   V4    S    
C16   C27   A    
C58   H21   S    
C22   C26   A    
C31   C35   S    
C8    C9    S    
C63   C64   S    
C30   Cl2   S    
C32   C36   S    
C64   H38   S    
O20   V2    S    
C64   H36   S    
O29   C69   S    
C47   C51   S    
C13   C26   A    
O10   C6    A    
O27   C65   S    
C43   C47   S    
C63   H34   S    
C22   H1    S    
C75   H65   S    
C67   H45   S    
C13   C17   A    
C55   H14   S    
C38   C50   T    
C59   H25   S    
C62   H32   S    
C37   C49   T    
C35   O31   S    
C16   C20   A    
C13   O25   S    
C73   C74   S    
C25   C26   A    
C42   C46   S    
C4    O14   A    
C41   C45   S    
C69   H49   S    
C12   C19   A    
H7    C44   S    
C19   O24   S    
C60   H27   S    
C36   O32   S    
O28   C67   S    
C33   O29   S    
O4    V2    S    
C23   H4    S    
C64   H37   S    
C74   H62   S    
