data_mof_unit_23045.cif
_audit_creation_date              2012-12-10T20:30:13-0500
_audit_creation_method            fapswitch 2.2
_symmetry_space_group_name_H-M    P1
_symmetry_Int_Tables_number       1
_space_group_crystal_system       triclinic
_cell_length_a                    9.893074
_cell_length_b                    10.684868
_cell_length_c                    13.075757
_cell_angle_alpha                 89.977429
_cell_angle_beta                  71.951719
_cell_angle_gamma                 89.709611
_cell_volume                      1314.1610645

loop_
_atom_site_label
_atom_site_type_symbol
_atom_type_description
_atom_site_fract_x
_atom_site_fract_y
_atom_site_fract_z
_atom_type_partial_charge
C1    C     C_R   0.501104 0.740039 0.496708 0.898649
C2    C     C_R   0.384365 0.419343 0.808743 -0.209941
C3    C     C_R   0.386862 0.937132 0.477085 0.075520
C4    C     C_R   0.425130 0.472219 0.698940 0.908256
C5    C     C_R   0.507868 0.871539 0.479319 -0.108860
C6    C     C_R   0.637351 0.934690 0.460700 -0.206454
C7    C     C_R   0.637741 0.064128 0.460628 -0.182378
C8    C     C_R   0.508662 0.128755 0.479125 -0.158168
C9    C     C_R   0.387255 0.064932 0.476957 0.118450
C10   C     C_3   0.238395 0.073124 0.551505 0.257715
C11   C     C_3   0.237747 0.931207 0.551177 -0.542104
C12   C     C_R   0.445775 0.405983 0.974058 0.091878
C13   C     C_R   0.890921 0.521742 0.592608 0.203219
C14   C     C_R   0.964864 0.467416 0.410597 -0.107567
C15   C     C_R   0.108538 0.467533 0.410563 -0.059774
C16   C     C_R   0.501741 0.260071 0.496436 0.869068
C17   C     C_R   0.032967 0.520454 0.592946 0.325712
C18   C     C_3   0.010222 0.634069 0.662293 -0.519777
C19   C     C_3   0.857599 0.636926 0.660224 -0.511114
C20   C     C_R   0.577394 0.498862 0.296137 0.871510
C21   C     C_R   0.802794 0.444372 0.010857 -0.181619
C22   C     C_R   0.621793 0.480747 0.180308 -0.046868
C23   C     C_R   0.488106 0.401233 0.861136 0.039129
C24   C     C_R   0.242788 0.387855 0.864695 0.370921
C25   C     C_R   0.201982 0.371522 0.975954 -0.187615
C26   C     C_R   0.300267 0.388694 0.031314 -0.254682
C27   C     C_R   0.551677 0.426283 0.024074 0.092212
C28   C     C_R   0.697482 0.418951 0.962909 0.172482
C29   C     C_R   0.735517 0.385806 0.854860 -0.243697
C30   C     C_R   0.631895 0.375492 0.804635 -0.180941
C31   C     C_R   0.516504 0.460583 0.131701 -0.249046
C32   C     C_R   0.765408 0.473589 0.119603 -0.210828
Cl1   Cl    Cl    0.119939 0.140080 0.487343 -0.610486
Cl2   Cl    Cl    0.121913 0.347794 0.796163 -0.714093
H1    H     H_    0.848318 0.489822 0.156030 0.153320
H2    H     H_    0.778714 0.619851 0.740276 0.225499
H3    H     H_    0.845225 0.371869 0.807832 0.219450
H4    H     H_    0.833333 0.718690 0.616105 0.222451
H5    H     H_    0.913591 0.442673 0.964354 0.185895
H6    H     H_    0.406786 0.474085 0.178490 0.151309
H7    H     H_    0.262039 0.378150 0.117634 0.148820
H8    H     H_    0.094023 0.345800 0.020084 0.165196
H9    H     H_    0.665683 0.345348 0.721603 0.192328
H10   H     H_    0.735659 0.885266 0.453877 0.180538
H11   H     H_    0.736187 0.112416 0.453798 0.202241
H12   H     H_    0.230941 0.115026 0.630932 0.155312
H13   H     H_    0.231203 0.890062 0.630704 0.178921
H14   H     H_    0.164566 0.889913 0.510918 0.237235
H15   H     H_    0.940945 0.442806 0.337885 0.143473
H16   H     H_    0.191790 0.442599 0.337828 0.142979
H17   H     H_    0.019211 0.613205 0.743233 0.234809
H18   H     H_    0.073893 0.714592 0.620818 0.209509
N1    N     N_R   0.856940 0.500860 0.500710 -0.114923
N2    N     N_R   0.142580 0.500820 0.500710 -0.107173
O1    O     O_R   0.385310 0.683210 0.499990 -0.615046
O2    O     O_R   0.614650 0.683240 0.500000 -0.619784
O3    O     O_R   0.328390 0.499940 0.653610 -0.560425
O4    O     O_R   0.557730 0.499980 0.653620 -0.630172
O5    O     O_R   0.385350 0.316760 0.500000 -0.571233
O6    O     O_R   0.614690 0.316790 0.500010 -0.629194
O7    O     O_R   0.442270 0.500020 0.346380 -0.629914
O8    O     O_R   0.671610 0.500060 0.346390 -0.625477
Zn1   Zn    Zn3+2 0.346870 0.499980 0.499990 0.999275
Zn2   Zn    Zn3+2 0.653130 0.500020 0.500010 0.946070

loop_
_geom_bond_atom_site_label_1
_geom_bond_atom_site_label_2
_ccdc_geom_bond_type
C25   H8    S    
C10   H12   S    
C2    C4    S    
O2    Zn2   S    
C6    C7    A    
C3    C9    A    
C19   H4    S    
C9    C10   S    
C11   H13   S    
C21   H5    S    
C13   C17   A    
O6    Zn2   S    
C17   C18   S    
C1    O1    A    
C18   H18   S    
C7    C8    A    
C8    C16   S    
C6    H10   S    
C24   C25   A    
C2    C24   A    
C12   C23   A    
C11   H14   S    
C29   C30   A    
C22   C32   A    
C1    C5    S    
C7    H11   S    
C28   C29   A    
N1    Zn2   S    
C21   C28   A    
C20   C22   S    
C18   H17   S    
O3    Zn1   S    
C10   Cl1   S    
C13   N1    A    
C19   H2    S    
C20   O8    A    
C5    C6    A    
C21   C32   A    
C30   H9    S    
C14   H15   S    
C3    C11   S    
C22   C31   A    
C13   C19   S    
C12   C27   A    
C27   C31   A    
C23   C30   A    
C3    C5    A    
C20   O7    A    
C14   N1    A    
C31   H6    S    
C26   H7    S    
C15   N2    A    
C10   C11   S    
C15   H16   S    
C29   H3    S    
C2    C23   A    
O7    Zn1   S    
N2    Zn1   S    
C18   C19   S    
O8    Zn2   S    
O4    Zn2   S    
C4    O4    A    
C25   C26   A    
C14   C15   A    
C16   O6    A    
O5    Zn1   S    
C17   N2    A    
C1    O2    A    
C24   Cl2   S    
C32   H1    S    
C4    O3    A    
C12   C26   A    
C8    C9    A    
C27   C28   A    
C16   O5    A    
O1    Zn1   S    
