data_mof_unit_26756.cif
_audit_creation_date              2012-10-26T19:27:18-0400
_audit_creation_method            fapswitch 2.2
_symmetry_space_group_name_H-M    P1
_symmetry_Int_Tables_number       1
_space_group_crystal_system       triclinic
_cell_length_a                    13.855536
_cell_length_b                    14.990736
_cell_length_c                    17.222842
_cell_angle_alpha                 89.421038
_cell_angle_beta                  87.349454
_cell_angle_gamma                 89.1674
_cell_volume                      3572.90120795

loop_
_atom_site_label
_atom_site_type_symbol
_atom_type_description
_atom_site_fract_x
_atom_site_fract_y
_atom_site_fract_z
_atom_type_partial_charge
C1    C     C_R   0.499602 0.670987 0.499823 0.515676
C2    C     C_R   0.546693 0.904775 0.559329 0.010769
C3    C     C_R   0.504534 0.046951 0.499417 -0.022745
C4    C     C_R   0.504213 0.953444 0.498601 -0.025084
C5    C     C_R   0.554182 0.092186 0.557369 -0.011712
C6    C     C_R   0.461935 0.908365 0.436829 -0.011716
C7    C     C_R   0.409627 0.050498 0.382449 0.241594
C8    C     C_R   0.589825 0.949757 0.620190 0.236577
C9    C     C_R   0.422811 0.957864 0.374859 0.033126
C10   C     C_R   0.601983 0.042679 0.615291 0.028640
C11   C     C_R   0.207688 0.525231 0.434825 0.359203
C12   C     C_R   0.500614 0.329120 0.500778 0.523542
C13   C     C_R   0.792221 0.490445 0.568220 0.374470
C14   C     C_R   0.202995 0.467044 0.563599 0.346666
C15   C     C_R   0.798044 0.519709 0.432947 0.342466
C16   C     C_R   0.488461 0.497893 0.649716 0.527236
C17   C     C_R   0.511369 0.500644 0.349941 0.536835
C18   C     C_R   0.099897 0.475217 0.568392 -0.053868
C19   C     C_R   0.901082 0.507709 0.428657 -0.055595
C20   C     C_R   0.051804 0.491977 0.499160 -0.041628
C21   C     C_R   0.948923 0.490855 0.498036 -0.039914
C22   C     C_R   0.106686 0.511781 0.431110 -0.039929
C23   C     C_R   0.551319 0.185826 0.557141 -0.107996
C24   C     C_R   0.894015 0.478887 0.567402 -0.030156
C25   C     C_R   0.043232 0.463704 0.638726 -0.006034
C26   C     C_R   0.958310 0.515605 0.358113 -0.000342
C27   C     C_R   0.941817 0.462692 0.636580 -0.098719
C28   C     C_R   0.059721 0.518497 0.360661 -0.112828
C29   C     C_R   0.484841 0.488444 0.733861 0.007754
C30   C     C_R   0.513102 0.505647 0.264983 0.009628
C31   C     C_R   0.407532 0.524999 0.778814 -0.124559
C32   C     C_R   0.426173 0.496573 0.227123 -0.116047
C33   C     C_R   0.405770 0.515929 0.859310 -0.113364
C34   C     C_R   0.457314 0.815055 0.440217 -0.121833
C35   C     C_R   0.424211 0.507415 0.147381 -0.103404
C36   C     C_R   0.479884 0.468263 0.894586 0.065382
C37   C     C_R   0.509242 0.526264 0.104043 0.067011
C38   C     C_R   0.555994 0.430275 0.849809 -0.113762
C39   C     C_R   0.596696 0.534145 0.140772 -0.118902
C40   C     C_R   0.558868 0.440841 0.769621 -0.133274
C41   C     C_R   0.598716 0.523596 0.221189 -0.141402
C42   C     C_2   0.480489 0.461274 0.979595 0.268682
C43   C     C_2   0.506063 0.533837 0.018982 0.272966
C44   C     C_3   0.262908 0.652242 0.373479 0.016147
C45   C     C_R   0.502192 0.232763 0.500664 -0.036207
C46   C     C_3   0.176891 0.697982 0.335554 -0.290981
C47   C     C_3   0.194015 0.797078 0.321845 -0.486970
C48   C     C_3   0.733341 0.598506 0.651748 0.022076
C49   C     C_3   0.819729 0.638093 0.691254 -0.314333
C50   C     C_3   0.798873 0.734224 0.715823 -0.458021
C51   C     C_3   0.255054 0.327327 0.600252 0.031085
C52   C     C_3   0.180122 0.272399 0.647137 -0.283582
C53   C     C_3   0.196062 0.172697 0.633294 -0.485680
C54   C     C_3   0.765903 0.658281 0.384903 0.012810
C55   C     C_3   0.697377 0.709820 0.333080 -0.240543
C56   C     C_R   0.499779 0.767529 0.499780 -0.033709
C57   C     C_3   0.703171 0.810233 0.345487 -0.460556
C58   C     C_2   0.086461 0.462477 0.716173 0.221273
C59   C     C_2   0.915355 0.514807 0.280658 0.236068
C60   C     C_3   0.507901 0.690170 0.017446 0.001253
C61   C     C_3   0.398978 0.709202 0.013775 -0.282857
C62   C     C_3   0.369781 0.794264 0.057333 -0.470074
C63   C     C_3   0.401868 0.323333 0.984863 0.003045
C64   C     C_3   0.297290 0.354322 0.003129 -0.275913
C65   C     C_3   0.225696 0.293936 0.965229 -0.458740
C66   C     C_3   0.268154 0.124441 0.356351 -0.007362
C67   C     C_R   0.454744 0.188467 0.443600 -0.125897
C68   C     C_3   0.193733 0.051783 0.344647 -0.282474
C69   C     C_3   0.092523 0.082495 0.372215 -0.468069
C70   C     C_3   0.552126 0.873884 0.734023 -0.013100
C71   C     C_3   0.534587 0.940972 0.799777 -0.270167
C72   C     C_3   0.457718 0.908102 0.859144 -0.480208
C73   C     C_2   0.400460 0.916878 0.299559 0.204624
C74   C     C_2   0.667376 0.084477 0.670273 0.227886
C75   C     C_R   0.546668 0.811550 0.557585 -0.138540
C76   C     C_R   0.455103 0.095427 0.442067 0.014047
Cu1   Cu    Cu3+1 0.402580 0.500010 0.500000 0.990618
Cu2   Cu    Cu3+1 0.597420 0.499990 0.500000 1.014237
H1    H     H_    0.349883 0.561755 0.751848 0.124555
H2    H     H_    0.347182 0.546101 0.894132 0.096282
H3    H     H_    0.583174 0.223739 0.602202 0.168871
H4    H     H_    0.420894 0.778274 0.397111 0.145726
H5    H     H_    0.419532 0.227494 0.399472 0.153223
H6    H     H_    0.581629 0.772370 0.601760 0.131641
H7    H     H_    0.330059 0.671492 0.340230 0.172236
H8    H     H_    0.268387 0.677417 0.433792 0.141141
H9    H     H_    0.164731 0.666716 0.278682 0.189068
H10   H     H_    0.110999 0.690827 0.374169 0.157940
H11   H     H_    0.216746 0.828859 0.375901 0.137814
H12   H     H_    0.359236 0.481218 0.258900 0.176007
H13   H     H_    0.126432 0.830155 0.303514 0.150135
H14   H     H_    0.250419 0.805955 0.274741 0.171322
H15   H     H_    0.668455 0.608550 0.691208 0.165205
H16   H     H_    0.719343 0.636786 0.597479 0.135697
H17   H     H_    0.836161 0.597572 0.743515 0.191296
H18   H     H_    0.884022 0.637825 0.650344 0.152934
H19   H     H_    0.781207 0.775975 0.664600 0.184497
H20   H     H_    0.863560 0.761908 0.742115 0.158485
H21   H     H_    0.737557 0.736808 0.759623 0.163716
H22   H     H_    0.327646 0.302428 0.615735 0.167105
H23   H     H_    0.899515 0.453367 0.690450 0.199792
H24   H     H_    0.248239 0.314575 0.536896 0.130664
H25   H     H_    0.185432 0.285987 0.710107 0.193746
H26   H     H_    0.106435 0.290949 0.629502 0.182814
H27   H     H_    0.190030 0.157362 0.570728 0.141350
H28   H     H_    0.140479 0.134475 0.667511 0.165704
H29   H     H_    0.268624 0.151233 0.651844 0.143557
H30   H     H_    0.841471 0.677340 0.368294 0.128308
H31   H     H_    0.749604 0.677999 0.446472 0.139216
H32   H     H_    0.716406 0.694897 0.271121 0.165575
H33   H     H_    0.621928 0.688321 0.346299 0.193893
H34   H     H_    0.102631 0.524347 0.306760 0.184357
H35   H     H_    0.683646 0.826854 0.406977 0.163168
H36   H     H_    0.651906 0.845551 0.307727 0.197562
H37   H     H_    0.777386 0.833794 0.330403 0.143276
H38   H     H_    0.156758 0.491050 0.723799 0.151875
H39   H     H_    0.845205 0.485705 0.273562 0.150364
H40   H     H_    0.546980 0.745745 0.987443 0.154543
H41   H     H_    0.531346 0.690922 0.078269 0.144578
H42   H     H_    0.379874 0.716349 0.952031 0.162909
H43   H     H_    0.357302 0.652902 0.040062 0.152009
H44   H     H_    0.384911 0.786838 0.119878 0.188638
H45   H     H_    0.666618 0.530283 0.248814 0.167122
H46   H     H_    0.291216 0.807293 0.052322 0.148168
H47   H     H_    0.410042 0.852163 0.032421 0.149881
H48   H     H_    0.411201 0.255784 0.010796 0.163308
H49   H     H_    0.416822 0.314784 0.921380 0.129686
H50   H     H_    0.282560 0.353495 0.067120 0.172330
H51   H     H_    0.286236 0.423613 0.981677 0.153137
H52   H     H_    0.237743 0.295598 0.900998 0.160647
H53   H     H_    0.150810 0.317523 0.979978 0.174158
H54   H     H_    0.233898 0.224213 0.986642 0.144016
H55   H     H_    0.246199 0.185259 0.323858 0.160779
H56   H     H_    0.618216 0.410892 0.735505 0.175718
H57   H     H_    0.267025 0.143353 0.418893 0.112990
H58   H     H_    0.193350 0.034551 0.282058 0.165322
H59   H     H_    0.213477 0.991197 0.378245 0.145307
H60   H     H_    0.090867 0.098743 0.435068 0.151697
H61   H     H_    0.040472 0.028310 0.363323 0.152209
H62   H     H_    0.069929 0.142318 0.338675 0.155790
H63   H     H_    0.574801 0.809034 0.759621 0.148855
H64   H     H_    0.482777 0.861376 0.705724 0.123471
H65   H     H_    0.603042 0.951179 0.829475 0.169863
H66   H     H_    0.510082 0.005897 0.775381 0.143727
H67   H     H_    0.613503 0.393689 0.877120 0.136500
H68   H     H_    0.387777 0.899760 0.831220 0.147454
H69   H     H_    0.447429 0.957454 0.906554 0.146303
H70   H     H_    0.480558 0.843314 0.884608 0.149278
H71   H     H_    0.346901 0.947376 0.263389 0.142120
H72   H     H_    0.674570 0.056605 0.728038 0.138007
H73   H     H_    0.662896 0.547956 0.107164 0.137143
H74   H     H_    0.356398 0.500891 0.119206 0.103584
N1    N     N_R   0.256180 0.500070 0.500030 -0.228274
N2    N     N_R   0.743820 0.499930 0.499970 -0.226962
O1    O     O_R   0.417720 0.629750 0.499980 -0.516743
O2    O     O_3   0.745031 0.505048 0.639499 -0.561145
O3    O     O_3   0.248967 0.418932 0.620386 -0.563902
O4    O     O_3   0.754227 0.565665 0.374085 -0.573074
O5    O     O_2   0.042904 0.431051 0.773105 -0.527546
O6    O     O_2   0.958904 0.545164 0.223273 -0.530448
O7    O     O_3   0.535124 0.610585 0.977921 -0.594788
O8    O     O_3   0.468344 0.380019 0.019365 -0.588548
O9    O     O_3   0.361056 0.097783 0.326162 -0.588199
O10   O     O_3   0.627870 0.902467 0.681666 -0.604817
O11   O     O_2   0.445926 0.852173 0.274409 -0.570627
O12   O     O_R   0.582280 0.370250 0.500020 -0.477210
O13   O     O_2   0.719086 0.146545 0.650039 -0.515819
O14   O     O_R   0.582260 0.629730 0.499990 -0.522157
O15   O     O_R   0.417740 0.370270 0.500010 -0.521490
O16   O     O_R   0.408190 0.500030 0.613590 -0.457593
O17   O     O_R   0.591810 0.499970 0.386410 -0.451649
O18   O     O_R   0.572730 0.500000 0.613600 -0.475375
O19   O     O_R   0.427270 0.500000 0.386400 -0.466463
O20   O     O_3   0.257627 0.558115 0.369780 -0.573135

loop_
_geom_bond_atom_site_label_1
_geom_bond_atom_site_label_2
_ccdc_geom_bond_type
C69   H61   S    
C63   O8    S    
C66   C68   S    
C52   H25   S    
C34   C56   A    
C23   C45   A    
C70   H63   S    
C47   H14   S    
C14   C18   A    
C36   C42   S    
C24   C27   A    
Cu2   O14   S    
C6    C9    A    
C62   H46   S    
C65   H52   S    
C57   H37   S    
Cu1   Cu2   S    
C28   H34   S    
C51   H24   S    
C15   C19   A    
C50   H21   S    
C48   H16   S    
C35   C37   A    
C1    C56   S    
C44   O20   S    
C58   O5    D    
C12   O12   A    
C75   H6    S    
C39   H73   S    
C69   H60   S    
C33   C36   A    
C60   H41   S    
C61   H43   S    
C1    O1    A    
C19   C26   A    
C16   O18   A    
C15   N2    A    
Cu1   N1    S    
C46   C47   S    
C53   H28   S    
C32   H12   S    
C42   C43   D    
C17   O19   A    
C68   C69   S    
C50   H19   S    
C45   C67   A    
C31   C33   A    
C30   C41   A    
C60   H40   S    
C70   C71   S    
C26   C59   S    
C7    C76   A    
C73   H71   S    
C69   H62   S    
C48   O2    S    
C59   H39   S    
C56   C75   A    
C22   C28   A    
C61   H42   S    
C58   H38   S    
C17   C30   S    
C47   H11   S    
C68   H59   S    
C18   C25   A    
C9    C73   S    
C44   H8    S    
C74   O13   D    
C65   H53   S    
C44   C46   S    
C46   H10   S    
C37   C39   A    
C70   H64   S    
Cu2   O12   S    
C48   H15   S    
C14   O3    S    
C51   C52   S    
C32   C35   A    
C40   H56   S    
C68   H58   S    
C15   O4    S    
C39   C41   A    
C8    O10   S    
C50   H20   S    
Cu2   N2    S    
C57   H35   S    
C1    O14   A    
C64   H50   S    
C16   C29   S    
C72   H70   S    
C7    O9    S    
C27   H23   S    
C6    C34   A    
C54   H31   S    
C60   C61   S    
C37   C43   S    
C2    C4    A    
C13   O2    S    
C16   O16   A    
C54   O4    S    
C66   H55   S    
C59   O6    D    
C53   H29   S    
C5    C23   A    
C66   H57   S    
Cu2   O18   S    
C60   O7    S    
C67   H5    S    
C49   H17   S    
C3    C76   A    
C12   O15   A    
C43   O7    S    
C73   O11   D    
C48   C49   S    
C20   C22   A    
C55   C57   S    
C14   N1    A    
C4    C6    A    
C35   H74   S    
C3    C4    A    
C17   O17   A    
C62   H44   S    
C65   H54   S    
C52   C53   S    
C71   H65   S    
C46   H9    S    
C51   H22   S    
C7    C9    A    
C54   C55   S    
C52   H26   S    
C11   O20   S    
Cu1   O19   S    
C23   H3    S    
C55   H33   S    
C38   H67   S    
C47   H13   S    
C8    C10   A    
C2    C8    A    
C12   C45   S    
C3    C5    A    
C70   O10   S    
C62   H47   S    
C42   O8    S    
C33   H2    S    
C31   H1    S    
C57   H36   S    
C64   H51   S    
C25   C27   A    
C72   H69   S    
C11   C22   A    
C26   C28   A    
C54   H30   S    
C64   C65   S    
C41   H45   S    
C36   C38   A    
C5    C10   A    
C29   C31   A    
Cu1   O1    S    
C30   C32   A    
C10   C74   S    
C38   C40   A    
C72   H68   S    
C29   C40   A    
Cu2   O17   S    
C51   O3    S    
C66   O9    S    
C18   C20   A    
C49   H18   S    
C61   C62   S    
C13   N2    A    
C63   H48   S    
C11   N1    A    
C63   C64   S    
C55   H32   S    
C53   H27   S    
C71   C72   S    
C20   C21   A    
C13   C24   A    
Cu1   O15   S    
C49   C50   S    
C25   C58   S    
C21   C24   A    
C74   H72   S    
C67   C76   A    
C34   H4    S    
Cu1   O16   S    
C63   H49   S    
C2    C75   A    
C44   H7    S    
C71   H66   S    
C19   C21   A    
