data_mof_unit_14048.cif
_audit_creation_date              2012-12-11T17:08:33-0500
_audit_creation_method            fapswitch 2.2
_symmetry_space_group_name_H-M    P1
_symmetry_Int_Tables_number       1
_space_group_crystal_system       triclinic
_cell_length_a                    7.040536
_cell_length_b                    14.569271
_cell_length_c                    16.04592
_cell_angle_alpha                 90.049893
_cell_angle_beta                  89.056508
_cell_angle_gamma                 90.835643
_cell_volume                      1645.51939052

loop_
_atom_site_label
_atom_site_type_symbol
_atom_type_description
_atom_site_fract_x
_atom_site_fract_y
_atom_site_fract_z
_atom_type_partial_charge
O1    O     O_R   0.505700 0.583890 0.413310 -0.534710
O2    O     O_R   0.175960 0.594920 0.586080 -0.545343
O3    O     O_R   0.005660 0.416110 0.586690 -0.545345
C1    C     C_R   0.344709 0.618338 0.613263 0.693776
O4    O     O_R   0.175980 0.594920 0.413930 -0.550572
O5    O     O_R   0.005680 0.416110 0.413310 -0.549135
C2    C     C_R   0.346669 0.618272 0.386685 0.707426
O6    O     O_R   0.505680 0.583890 0.586690 -0.545945
O7    O     O_3   0.339200 0.441330 0.500000 -0.371538
V1    V     V_3+5 0.064350 0.510880 0.500000 1.352332
O8    O     O_R   0.675960 0.405080 0.413920 -0.535209
C3    C     C_R   0.844755 0.382526 0.386150 0.716836
O9    O     O_R   0.675940 0.405080 0.586070 -0.514693
C4    C     C_R   0.841469 0.383474 0.614826 0.751664
V2    V     V_3+5 0.564340 0.489120 0.500000 1.416157
O10   O     O_3   0.839360 0.558670 0.500000 -0.392339
C5    C     C_R   0.992471 0.249754 0.680749 -0.029104
C6    C     C_R   0.841617 0.308800 0.677591 -0.237925
C7    C     C_R   0.687537 0.287690 0.732438 0.389615
C8    C     C_R   0.699938 0.210478 0.787198 0.383516
C9    C     C_R   0.878247 0.180178 0.811291 -0.248949
C10   C     C_R   0.013129 0.191045 0.747943 -0.050478
C11   C     C_3   0.216435 0.203857 0.746380 -0.242639
C12   C     C_3   0.196891 0.269360 0.673831 -0.278520
H1    H     H_    0.267977 0.137164 0.725275 0.190046
H2    H     H_    0.265330 0.236233 0.805198 0.217114
H3    H     H_    0.260363 0.243838 0.614447 0.156648
H4    H     H_    0.225612 0.342483 0.688806 0.219843
C13   C     C_R   0.724869 0.239287 0.196766 -0.009448
C14   C     C_R   0.881864 0.184172 0.182857 -0.112120
C15   C     C_R   0.030998 0.194535 0.240484 -0.202517
C16   C     C_R   0.017721 0.258013 0.307540 -0.201761
C17   C     C_R   0.855813 0.313411 0.318819 -0.114422
C18   C     C_R   0.711303 0.299407 0.261606 0.005618
C19   C     C_3   0.511345 0.322517 0.242552 0.311447
C20   C     C_3   0.530006 0.256895 0.166804 0.305440
H5    H     H_    0.415366 0.296740 0.293300 -0.015713
H6    H     H_    0.439599 0.193561 0.169466 -0.004473
C21   C     C_R   0.489655 0.759946 0.680835 0.013025
C22   C     C_R   0.351287 0.689320 0.679578 -0.142435
C23   C     C_R   0.214001 0.688663 0.744925 -0.141211
C24   C     C_R   0.228110 0.750371 0.812799 -0.120683
H7    H     H_    0.128789 0.744363 0.864604 0.167834
C25   C     C_R   0.377913 0.814959 0.817151 -0.119194
C26   C     C_R   0.505907 0.817342 0.749955 -0.064852
C27   C     C_3   0.718123 0.815862 0.745131 0.312846
C28   C     C_3   0.700532 0.761073 0.664038 0.219953
H8    H     H_    0.780525 0.885393 0.735198 0.092062
H9    H     H_    0.771066 0.693011 0.664477 0.084642
C29   C     C_R   0.529817 0.711158 0.278896 0.016788
C30   C     C_R   0.360481 0.691868 0.322824 -0.139732
C31   C     C_R   0.204598 0.748804 0.306391 -0.283288
C32   C     C_R   0.213489 0.815813 0.242110 0.431905
C33   C     C_R   0.377680 0.823319 0.189696 -0.192242
C34   C     C_R   0.536983 0.774204 0.214103 -0.021944
C35   C     C_3   0.682216 0.719946 0.166667 0.362644
C36   C     C_3   0.674253 0.650265 0.238522 -0.465711
H10   H     H_    0.807793 0.649328 0.274433 0.147805
O11   O     O_R   0.229000 0.916070 0.913330 -0.535443
O12   O     O_R   0.558770 0.905070 0.086080 -0.535186
O13   O     O_R   0.729000 0.083900 0.086690 -0.543888
C37   C     C_R   0.388630 0.885099 0.116028 0.742677
O14   O     O_R   0.558720 0.905070 0.913930 -0.522723
O15   O     O_R   0.728960 0.083900 0.913310 -0.504628
C38   C     C_R   0.389870 0.882069 0.886444 0.702722
O16   O     O_R   0.229050 0.916070 0.086710 -0.516067
O17   O     O_3   0.395460 0.058650 0.000020 -0.382214
V3    V     V_3+5 0.670340 0.989120 0.000000 1.519468
O18   O     O_R   0.058670 0.094960 0.913900 -0.548313
C39   C     C_R   0.891917 0.115282 0.883578 0.734242
O19   O     O_R   0.058720 0.094960 0.086050 -0.553812
C40   C     C_R   0.890029 0.116654 0.114391 0.703424
V4    V     V_3+5 0.170330 0.010930 0.999970 1.457524
O20   O     O_3   0.895340 0.941350 0.999980 -0.357033
O21   O     O_3   0.534755 0.345123 0.736789 -0.556801
C41   C     C_3   0.554774 0.402820 0.806774 -0.317706
H11   H     H_    0.550049 0.362726 0.865770 0.151338
H12   H     H_    0.434074 0.450937 0.808698 0.155112
H13   H     H_    0.688059 0.444804 0.802379 0.127569
O22   O     O_3   0.538641 0.303447 0.089515 -0.526380
C42   C     C_3   0.360215 0.297786 0.051099 -0.166875
H14   H     H_    0.337570 0.228598 0.023974 0.157360
H15   H     H_    0.357988 0.348306 0.999501 0.129228
H16   H     H_    0.240968 0.314079 0.094639 0.120826
H17   H     H_    0.101386 0.637224 0.745863 0.122542
O23   O     O_3   0.811699 0.770104 0.811122 -0.557839
C43   C     C_3   0.724396 0.687433 0.839965 -0.231927
H18   H     H_    0.660612 0.644765 0.790229 0.103040
H19   H     H_    0.617105 0.702338 0.889275 0.177106
H20   H     H_    0.834364 0.645029 0.869314 0.144285
O24   O     O_3   0.747638 0.819257 0.595853 -0.567074
C44   C     C_3   0.785653 0.767174 0.523913 -0.192720
H21   H     H_    0.662388 0.722552 0.507913 0.155038
H22   H     H_    0.917021 0.726931 0.531532 0.159784
H23   H     H_    0.810935 0.814790 0.470849 0.134921
H24   H     H_    0.073536 0.740393 0.342014 0.140380
O25   O     O_3   0.549107 0.150388 0.797370 -0.554767
C45   C     C_3   0.578113 0.072877 0.744400 -0.223061
H25   H     H_    0.462160 0.021906 0.755891 0.133379
H26   H     H_    0.711852 0.036457 0.756578 0.119478
H27   H     H_    0.575806 0.093310 0.677596 0.123300
O26   O     O_3   0.055930 0.868259 0.226627 -0.557733
C46   C     C_3   0.042197 0.937085 0.288105 -0.255283
H28   H     H_    0.173436 0.980649 0.289552 0.118903
H29   H     H_    0.011115 0.907157 0.350683 0.132841
H30   H     H_    0.922404 0.982286 0.272552 0.153171
H31   H     H_    0.820504 0.757183 0.163368 0.139318
O27   O     O_3   0.627129 0.690989 0.085389 -0.548394
C47   C     C_3   0.469372 0.629907 0.083344 -0.235778
H32   H     H_    0.355069 0.647278 0.128814 0.134356
H33   H     H_    0.516490 0.558254 0.092106 0.191358
H34   H     H_    0.406469 0.633587 0.020527 0.134669
H35   H     H_    0.617844 0.581133 0.224040 0.218546
H36   H     H_    0.154868 0.151778 0.235492 0.114204
H37   H     H_    0.131450 0.262029 0.351893 0.127897
O28   O     O_3   0.494626 0.415616 0.219743 -0.536579
C48   C     C_3   0.311195 0.445786 0.241751 -0.223270
H38   H     H_    0.198849 0.403467 0.211884 0.141255
H39   H     H_    0.294545 0.517280 0.220162 0.126681
H40   H     H_    0.290922 0.445265 0.310482 0.160759

loop_
_geom_bond_atom_site_label_1
_geom_bond_atom_site_label_2
_ccdc_geom_bond_type
C43   H18   S    
O14   C38   A    
V4    O20   S    
C4    C6    S    
C7    C8    A    
C12   H3    S    
C1    O6    A    
O25   C45   S    
C28   H9    S    
C26   C27   S    
O27   C47   S    
C13   C20   S    
O15   V3    S    
C9    C10   A    
C19   H5    S    
C41   H12   S    
C18   C19   S    
C48   H39   S    
O5    C3    A    
C14   C15   A    
V3    O20   S    
V2    O10   S    
C35   C36   S    
O12   C37   A    
C6    C7    A    
C23   C24   A    
C11   H2    S    
C35   O27   S    
C33   C34   A    
O8    V2    S    
C8    O25   S    
C1    C22   S    
C11   C12   S    
C41   H13   S    
O18   V4    S    
O17   V4    S    
C5    C10   A    
O15   C39   A    
O7    V1    S    
O11   V4    S    
C15   H36   S    
C21   C26   A    
O9    C4    A    
C25   C38   S    
O26   C46   S    
C24   C25   A    
C42   H15   S    
C29   C30   A    
C27   H8    S    
C5    C12   S    
C37   O16   A    
C30   C31   A    
C41   H11   S    
C20   O22   S    
C48   H40   S    
C21   C22   A    
O4    C2    A    
O23   C43   S    
C36   H35   S    
C33   C37   S    
C32   C33   A    
O16   V4    S    
C13   C18   A    
C44   H23   S    
C42   H14   S    
O17   V3    S    
C19   C20   S    
O2    C1    A    
O21   C41   S    
C35   H31   S    
C13   C14   A    
C15   C16   A    
C32   O26   S    
C34   C35   S    
C44   H22   S    
C5    C6    A    
C19   O28   S    
C46   H29   S    
O3    C4    A    
O1    V2    S    
O13   C40   A    
C22   C23   A    
O6    V2    S    
C45   H26   S    
O9    V2    S    
C47   H34   S    
C24   H7    S    
C20   H6    S    
O2    V1    S    
O24   C44   S    
C42   H16   S    
C31   C32   A    
C21   C28   S    
C27   C28   S    
O1    C2    A    
C29   C36   S    
C28   O24   S    
C25   C26   A    
C12   H4    S    
O22   C42   S    
O5    V1    S    
C14   C40   S    
O8    C3    A    
C45   H27   S    
C23   H17   S    
O14   V3    S    
C29   C34   A    
C9    C39   S    
C16   C17   A    
C47   H33   S    
O7    V2    S    
C2    C30   S    
O4    V1    S    
O3    V1    S    
V1    O10   S    
C48   H38   S    
O11   C38   A    
O13   V3    S    
C36   H10   S    
C7    O21   S    
C44   H21   S    
C17   C18   A    
O28   C48   S    
C31   H24   S    
C46   H30   S    
C11   H1    S    
C16   H37   S    
O18   C39   A    
O19   C40   A    
C8    C9    A    
O12   V3    S    
C45   H25   S    
C43   H20   S    
O19   V4    S    
C46   H28   S    
C43   H19   S    
C10   C11   S    
C3    C17   S    
C47   H32   S    
C27   O23   S    
