data_mof_unit_64740.cif
_audit_creation_date              2012-12-11T15:32:11-0500
_audit_creation_method            fapswitch 2.2
_symmetry_space_group_name_H-M    P1
_symmetry_Int_Tables_number       1
_space_group_crystal_system       triclinic
_cell_length_a                    8.496504
_cell_length_b                    16.416302
_cell_length_c                    19.074308
_cell_angle_alpha                 107.578522
_cell_angle_beta                  85.783351
_cell_angle_gamma                 97.649178
_cell_volume                      2512.13875503

loop_
_atom_site_label
_atom_site_type_symbol
_atom_type_description
_atom_site_fract_x
_atom_site_fract_y
_atom_site_fract_z
_atom_type_partial_charge
Ba1   Ba    Ba6+2 0.640410 0.457420 0.526150 1.252350
Ba2   Ba    Ba6+2 0.169770 0.542590 0.473910 1.587494
C1    C     C_3   0.731969 0.219868 0.752348 1.607303
C2    C     C_3   0.785729 0.255659 0.686958 0.999110
C3    C     C_3   0.964155 0.267935 0.287752 1.118261
C4    C     C_3   0.984071 0.188356 0.222602 0.370970
C5    C     C_3   0.433564 0.778502 0.362455 0.921707
C6    C     C_3   0.444050 0.868941 0.354371 0.622062
C7    C     C_3   0.993582 0.753266 0.318227 0.929917
C8    C     C_3   0.044437 0.788257 0.252734 0.889278
C9    C     C_2   0.705059 0.753070 0.519771 0.385764
C10   C     C_R   0.100287 0.248641 0.474587 0.223490
C11   C     C_2   0.520390 0.859321 0.576723 -0.286021
C12   C     C_3   0.324981 0.223359 0.648133 1.200273
C13   C     C_2   0.554526 0.778137 0.559435 0.146762
C14   C     C_2   0.818245 0.811245 0.503983 0.138953
C15   C     C_3   0.796472 0.906625 0.533158 -0.198515
C16   C     C_3   0.623268 0.925194 0.548939 0.356543
C17   C     C_2   0.880126 0.965272 0.491165 0.405971
C18   C     C_2   0.944744 0.046556 0.529034 0.238382
C19   C     C_R   0.176343 0.082376 0.453630 0.046571
C20   C     C_R   0.034764 0.106577 0.491916 -0.093543
C21   C     C_R   0.280049 0.140326 0.426933 -0.130438
C22   C     C_R   0.247118 0.225055 0.440837 0.154188
C23   C     C_3   0.286555 0.138447 0.667048 1.181935
C24   C     C_R   0.996007 0.190892 0.502141 0.085221
C25   C     C_R   0.086426 0.460832 0.695329 0.168088
C26   C     C_R   0.962058 0.509223 0.726014 -0.002561
C27   C     C_R   0.914968 0.520820 0.800532 0.408606
C28   C     C_R   0.006931 0.492586 0.846864 0.011494
C29   C     C_R   0.147415 0.454130 0.816051 0.439171
C30   C     C_R   0.183763 0.436787 0.740180 0.005968
C31   C     C_R   0.943838 0.432460 0.954716 0.514223
C32   C     C_R   0.889890 0.440475 0.027181 -0.038906
C33   C     C_R   0.852034 0.519621 0.074522 -0.055799
C34   C     C_3   0.350165 0.645398 0.705859 0.213482
C35   C     C_R   0.869347 0.591251 0.047340 0.347801
C36   C     C_R   0.923413 0.583380 0.974396 0.663319
C37   C     C_R   0.957610 0.503166 0.926339 -0.274848
C38   C     C_R   0.660923 0.561222 0.184349 0.590635
C39   C     C_R   0.616229 0.567276 0.258174 -0.094665
C40   C     C_R   0.848748 0.500863 0.268642 0.190027
C41   C     C_R   0.894217 0.495098 0.195364 0.469375
C42   C     C_R   0.802830 0.527027 0.152798 -0.064628
C43   C     C_R   0.715158 0.540604 0.300733 0.005264
C44   C     C_3   0.341792 0.669576 0.789921 0.986802
C45   C     C_3   0.484420 0.331067 0.282201 0.995767
C46   C     C_3   0.533791 0.283298 0.202981 1.400353
C47   C     C_3   0.882166 0.727468 0.670135 0.573761
C48   C     C_3   0.965798 0.819082 0.702392 0.736233
H1    H     H_    0.431466 0.725264 0.813453 0.065396
H2    H     H_    0.930474 0.700929 0.613168 0.098882
H3    H     H_    0.914876 0.848786 0.758530 0.087059
H4    H     H_    0.052692 0.207306 0.177018 0.107393
H5    H     H_    0.866721 0.154878 0.202264 0.161481
H6    H     H_    0.229455 0.088821 0.619849 -0.045222
H7    H     H_    0.324644 0.765486 0.394298 -0.016855
H8    H     H_    0.340006 0.873487 0.324334 0.074653
H9    H     H_    0.954036 0.763032 0.209701 0.088784
H10   H     H_    0.410818 0.877272 0.606965 0.206608
H11   H     H_    0.389092 0.120102 0.397964 0.134330
H12   H     H_    0.878502 0.384291 0.046555 0.223328
H13   H     H_    0.215901 0.237432 0.627363 -0.966234
H14   H     H_    0.232434 0.615415 0.683595 0.010251
H15   H     H_    0.438361 0.599065 0.684706 0.067411
O1    O     O_2   0.558990 0.288510 0.428270 -0.343128
O2    O     O_3   0.906754 0.677683 0.715435 -0.586160
O3    O     O_3   0.377756 0.289352 0.711294 -0.466337
O4    O     O_2   0.251320 0.711540 0.571760 -0.438419
O5    O     O_3   0.469110 0.603410 0.553990 -0.389655
O6    O     O_3   0.001220 0.659660 0.436740 -0.330024
O7    O     O_3   0.396433 0.720639 0.685920 -0.623072
O8    O     O_3   0.861890 0.456640 0.409240 -0.347903
O9    O     O_3   0.404240 0.616350 0.394030 -0.459229
O10   O     O_2   0.285273 0.561318 0.259787 -0.316019
O11   O     O_3   0.433648 0.717336 0.292499 -0.554107
O12   O     O_3   0.341190 0.396600 0.446070 -0.377955
O13   O     O_3   0.948410 0.543360 0.590820 -0.326964
O14   O     O_2   0.117990 0.459640 0.323300 -0.357159
O15   O     O_3   0.893779 0.326800 0.263142 -0.589690
O16   O     O_2   0.143796 0.811994 0.514183 -0.452586
O17   O     O_3   0.069951 0.807008 0.382227 -0.598581
O18   O     O_3   0.809080 0.340350 0.563320 -0.328136
O19   O     O_2   0.676642 0.187060 0.485001 -0.447200
O20   O     O_3   0.394091 0.271746 0.312929 -0.523746
O21   O     O_3   0.732681 0.194786 0.620600 -0.556888
O22   O     O_2   0.692320 0.540420 0.676730 -0.346474
O23   O     O_3   0.406060 0.383660 0.606030 -0.436165
O24   O     O_2   0.512996 0.447090 0.741547 -0.296286
P1    P     P_3+3 0.391560 0.302240 0.409860 0.677230
P2    P     P_3+3 0.873530 0.566630 0.670640 0.886841
P3    P     P_3+3 0.369402 0.390584 0.699359 1.169330
P4    P     P_3+3 0.418740 0.697770 0.590200 1.141474
P5    P     P_3+3 0.433199 0.613802 0.301241 1.186792
P6    P     P_3+3 0.804169 0.228040 0.543297 1.211349
P7    P     P_3+3 0.933308 0.435687 0.316499 1.085069
P8    P     P_3+3 0.007856 0.772513 0.460051 1.131296
F1    F     F_    0.720458 0.331341 0.697871 -0.677864
F2    F     F_    0.192465 0.691339 0.816580 -0.658794
F3    F     F_    0.374408 0.602095 0.813306 -0.710144
F4    F     F_    0.617679 0.366557 0.321599 -0.742175
O25   O     O_3   0.394207 0.395293 0.279765 -0.709593
H16   H     H_    0.386926 0.434044 0.330451 0.331831
F5    F     F_    0.613957 0.215008 0.202502 -0.699544
F6    F     F_    0.633817 0.338667 0.173063 -0.693809
O26   O     O_3   0.400034 0.252921 0.159344 -0.636022
H17   H     H_    0.347875 0.200751 0.171355 0.320206
O27   O     O_3   0.719856 0.731422 0.668907 -0.757507
H18   H     H_    0.680624 0.751414 0.720928 0.301963
F7    F     F_    0.830296 0.258163 0.810309 -0.594761
F8    F     F_    0.940378 0.869529 0.658979 -0.683837
O28   O     O_3   0.129669 0.818013 0.705195 -0.648908
H19   H     H_    0.148357 0.808785 0.752825 0.334554
O29   O     O_3   0.951423 0.274080 0.684798 -0.742494
H20   H     H_    0.994924 0.223063 0.689190 0.341846
F9    F     F_    0.738206 0.132015 0.732277 -0.612147
F10   F     F_    0.112845 0.300988 0.313117 -0.704023
O30   O     O_3   0.866719 0.242237 0.341699 -0.708819
H21   H     H_    0.843371 0.295065 0.380498 0.336768
F11   F     F_    0.064476 0.131872 0.243456 -0.575979
F12   F     F_    0.579489 0.236396 0.776895 -0.581625
F13   F     F_    0.561235 0.775501 0.401313 -0.711812
O31   O     O_3   0.442084 0.928934 0.424489 -0.732970
H22   H     H_    0.446458 0.986384 0.417032 0.303471
O32   O     O_3   0.585552 0.885354 0.315424 -0.582697
H23   H     H_    0.574904 0.936670 0.299674 0.322858
O33   O     O_3   0.828588 0.752626 0.327572 -0.681945
H24   H     H_    0.790103 0.707115 0.350777 0.333454
F14   F     F_    0.035594 0.670492 0.301200 -0.773659
O34   O     O_3   0.193110 0.764653 0.222581 -0.685062
H25   H     H_    0.174603 0.705128 0.188948 0.342182
O35   O     O_3   0.445621 0.212418 0.593569 -0.716501
H26   H     H_    0.411718 0.231090 0.553098 0.303181
F15   F     F_    0.051550 0.877036 0.274784 -0.563158
F16   F     F_    0.731537 0.669707 0.503660 -0.648125
O36   O     O_3   0.054591 0.328106 0.481900 -0.691602
H27   H     H_    0.080730 0.342968 0.436105 0.355553
O37   O     O_3   0.868761 0.937600 0.415359 -0.620029
H28   H     H_    0.900245 0.986011 0.394588 0.337157
O38   O     O_3   0.940202 0.076200 0.605158 -0.700286
H29   H     H_    0.908583 0.029020 0.627283 0.387908
F17   F     F_    0.026156 0.457280 0.165440 -0.635515
F18   F     F_    0.987371 0.355692 0.913265 -0.505645
O39   O     O_3   0.778406 0.559280 0.825713 -0.575469
H30   H     H_    0.727973 0.537265 0.865866 0.337241
F19   F     F_    0.837444 0.669378 0.091722 -0.507898
F20   F     F_    0.944717 0.654561 0.951029 -0.552086
F21   F     F_    0.565600 0.587353 0.143240 -0.594165
O40   O     O_3   0.254505 0.435332 0.858418 -0.578737
H31   H     H_    0.243301 0.471879 0.909906 0.345987
O41   O     O_3   0.687911 0.557442 0.375130 -0.620162
H32   H     H_    0.594028 0.518199 0.382445 0.356118
O42   O     O_3   0.114036 0.438799 0.620847 -0.652161
H33   H     H_    0.127250 0.376970 0.605935 0.342569
F22   F     F_    0.423459 0.108955 0.679725 -0.628003
F23   F     F_    0.186114 0.148370 0.728724 -0.576818

loop_
_geom_bond_atom_site_label_1
_geom_bond_atom_site_label_2
_ccdc_geom_bond_type
Ba1   O22   S    
C44   F2    S    
C25   O42   S    
Ba1   P1    S    
C45   F4    S    
C2    F1    S    
C23   F22   S    
Ba1   O12   S    
O9    P5    S    
C17   C18   D    
C23   H6    S    
C4    H5    S    
O29   H20   S    
O31   H22   S    
O1    P1    D    
C11   H10   S    
C12   O35   S    
C31   F18   S    
O6    P8    S    
O3    P3    S    
C31   C37   A    
C11   C16   S    
C40   P7    S    
C45   O20   S    
C2    O29   S    
C26   C27   A    
C33   C35   A    
C32   C33   A    
O22   P2    D    
C1    F9    S    
C3    C4    S    
C29   O40   S    
C14   P8    S    
C2    O21   S    
O26   H17   S    
C1    F7    S    
C34   O7    S    
C46   F5    S    
C32   H12   S    
O27   H18   S    
Ba1   Ba2   S    
O30   H21   S    
Ba2   O14   S    
O11   P5    S    
C46   F6    S    
C9    C13   S    
C46   O26   S    
O23   P3    S    
O35   H26   S    
C21   C22   A    
C34   C44   S    
C35   F19   S    
O15   P7    S    
Ba2   O4    S    
C7    C8    S    
Ba2   O9    S    
C7    O17   S    
C6    H8    S    
Ba1   O23   S    
Ba1   P2    S    
C45   O25   S    
C19   C20   A    
C23   F23   S    
Ba1   O13   S    
C40   C43   A    
C4    H4    S    
C4    F11   S    
O28   H19   S    
Ba1   O1    S    
C47   O27   S    
Ba2   P4    S    
O12   P1    S    
C48   H3    S    
C38   F21   S    
C5    C6    S    
O5    P4    S    
O38   H29   S    
O37   H28   S    
C34   H15   S    
C14   C15   S    
C27   O39   S    
C44   H1    S    
C10   C24   A    
O24   P3    D    
O19   P6    D    
C41   C42   A    
C8    O34   S    
C35   C36   A    
Ba2   O13   S    
C9    F16   S    
C9    C14   D    
O34   H25   S    
C45   C46   S    
C21   H11   S    
C28   C29   A    
O41   H32   S    
C47   H2    S    
O18   P6    S    
O2    P2    S    
C15   C16   S    
C7    O33   S    
C3    O15   S    
C33   C42   S    
C5    O11   S    
Ba2   O8    S    
O7    P4    S    
C38   C39   A    
C18   C20   S    
C11   C13   D    
C10   O36   S    
O32   H23   S    
O17   P8    S    
C40   C41   A    
C5    F13   S    
C1    C2    S    
C24   P6    S    
C44   F3    S    
C12   O3    S    
C47   O2    S    
C25   C30   A    
C29   C30   A    
C8    F15   S    
O39   H30   S    
C22   P1    S    
C13   P4    S    
O20   P1    S    
C6    O31   S    
O33   H24   S    
C7    F14   S    
O13   P2    S    
Ba1   O18   S    
C10   C22   A    
O4    P4    D    
Ba1   O5    S    
C3    O30   S    
Ba1   O8    S    
C18   O38   S    
C19   C21   A    
C48   O28   S    
O14   P7    D    
Ba2   O12   S    
Ba2   O5    S    
O40   H31   S    
C36   C37   A    
O16   P8    D    
C17   O37   S    
C12   H13   S    
C48   F8    S    
C15   C17   S    
C31   C32   A    
C28   C37   S    
C8    H9    S    
C26   P2    S    
C12   C23   S    
O25   H16   S    
C36   F20   S    
O21   P6    S    
C30   P3    S    
C27   C28   A    
C1    F12   S    
C6    O32   S    
C38   C42   A    
C47   C48   S    
C20   C24   A    
C3    F10   S    
C25   C26   A    
C39   C43   A    
O36   H27   S    
C41   F17   S    
O8    P7    S    
C43   O41   S    
O42   H33   S    
C34   H14   S    
C5    H7    S    
C39   P5    S    
Ba2   O6    S    
O10   P5    D    
