data_mof_unit_43107.cif
_audit_creation_date              2012-10-26T21:21:08-0400
_audit_creation_method            fapswitch 2.2
_symmetry_space_group_name_H-M    P1
_symmetry_Int_Tables_number       1
_space_group_crystal_system       triclinic
_cell_length_a                    10.806202
_cell_length_b                    10.949753
_cell_length_c                    9.703071
_cell_angle_alpha                 92.059388
_cell_angle_beta                  88.392728
_cell_angle_gamma                 90.328664
_cell_volume                      1146.91241296

loop_
_atom_site_label
_atom_site_type_symbol
_atom_type_description
_atom_site_fract_x
_atom_site_fract_y
_atom_site_fract_z
_atom_type_partial_charge
C1    C     C_R   0.497246 0.265783 0.497308 0.580463
C2    C     C_2   0.481625 0.135037 0.490388 -0.029240
C3    C     C_2   0.427366 0.431233 0.922445 0.121963
C4    C     C_R   0.261821 0.506858 0.503630 0.536079
C5    C     C_2   0.443385 0.415738 0.076935 0.427350
C6    C     C_R   0.500578 0.735083 0.502801 0.537621
C7    C     C_R   0.737419 0.493132 0.497816 0.569708
C8    C     C_R   0.098712 0.458814 0.763646 0.254886
C9    C     C_R   0.042353 0.374342 0.851090 0.237370
C10   C     C_R   0.938132 0.307697 0.807233 0.271736
C11   C     C_R   0.880130 0.339986 0.686509 0.280395
C12   C     C_R   0.055751 0.469442 0.626976 -0.082686
C13   C     C_R   0.934005 0.430941 0.602354 -0.085740
C14   C     C_3   0.638013 0.645693 0.887994 -0.039358
C15   C     C_3   0.396241 0.209077 0.063471 -0.101650
C16   C     C_3   0.139064 0.658510 0.824907 -0.118229
C17   C     C_3   0.026803 0.409340 0.082919 -0.081166
C18   C     C_3   0.955115 0.112165 0.875654 -0.112458
C19   C     C_3   0.810719 0.190560 0.538394 -0.092844
C20   C     C_3   0.435920 0.917305 0.731195 -0.129972
C21   C     C_3   0.690319 0.038032 0.218626 -0.140036
C22   C     C_R   0.126456 0.515662 0.513505 0.008673
C23   C     C_R   0.065489 0.556331 0.398597 -0.178592
C24   C     C_R   0.937996 0.547041 0.392716 -0.185465
C25   C     C_R   0.871528 0.484608 0.494098 0.010750
C26   C     C_2   0.513672 0.930273 0.393735 -0.146458
C27   C     C_2   0.510471 0.868327 0.511300 0.218107
C28   C     C_2   0.536022 0.063667 0.391002 0.247231
Cu1   Cu    Cu3+1 0.500020 0.500020 0.638630 1.038589
Cu2   Cu    Cu3+1 0.499980 0.499980 0.361370 1.008904
H1    H     H_    0.420275 0.098355 0.568380 0.076082
H2    H     H_    0.518383 0.581040 0.110548 0.195972
H3    H     H_    0.044257 0.664010 0.872870 0.089362
H4    H     H_    0.140069 0.696380 0.720178 0.115154
H5    H     H_    0.200694 0.716958 0.889091 0.113163
H6    H     H_    0.928693 0.378048 0.086565 0.160182
H7    H     H_    0.031508 0.510380 0.075222 0.114017
H8    H     H_    0.067942 0.385106 0.181553 0.161032
H9    H     H_    0.047757 0.125199 0.921030 0.138238
H10   H     H_    0.965102 0.078883 0.766259 0.096599
H11   H     H_    0.906540 0.039656 0.933382 0.117940
H12   H     H_    0.116477 0.597179 0.314092 0.126745
H13   H     H_    0.906259 0.153750 0.545652 0.063469
H14   H     H_    0.801127 0.233860 0.437546 0.142405
H15   H     H_    0.747146 0.111014 0.541962 0.175644
H16   H     H_    0.891517 0.587713 0.308255 0.122033
H17   H     H_    0.502635 0.882095 0.295058 0.091566
H18   H     H_    0.443707 0.834907 0.792940 0.141116
H19   H     H_    0.344321 0.917498 0.680941 0.075349
H20   H     H_    0.437897 0.997381 0.804525 0.121158
H21   H     H_    0.642865 0.973900 0.145950 0.108865
H22   H     H_    0.745079 0.987763 0.293665 0.097722
H23   H     H_    0.352000 0.383137 0.872808 0.139076
H24   H     H_    0.756656 0.092740 0.156700 0.167654
H25   H     H_    0.672066 0.667319 0.783201 0.177398
H26   H     H_    0.713343 0.670278 0.959388 0.078586
H27   H     H_    0.557171 0.703701 0.919162 0.073121
H28   H     H_    0.490333 0.196222 0.015301 0.142556
H29   H     H_    0.324078 0.204110 0.984197 0.102791
H30   H     H_    0.379142 0.131655 0.132272 0.149257
N1    N     N_2   0.498640 0.498660 0.846910 -0.073005
N2    N     N_2   0.498610 0.498630 0.153040 -0.298911
O1    O     O_R   0.500020 0.321960 0.617040 -0.491341
O2    O     O_3   0.386621 0.319032 0.143469 -0.510862
O3    O     O_3   0.185111 0.538036 0.821050 -0.532920
O4    O     O_3   0.095997 0.350909 0.974920 -0.561430
O5    O     O_3   0.884052 0.219807 0.888676 -0.522606
O6    O     O_3   0.776677 0.273988 0.647233 -0.496888
O7    O     O_3   0.537591 0.926807 0.636748 -0.582222
O8    O     O_3   0.604530 0.118531 0.285337 -0.553231
O9    O     O_R   0.499980 0.321920 0.382900 -0.401064
O10   O     O_R   0.319670 0.500020 0.617100 -0.474331
O11   O     O_R   0.319630 0.499980 0.382950 -0.487959
O12   O     O_R   0.500020 0.678080 0.617100 -0.514274
O13   O     O_R   0.499980 0.678040 0.382960 -0.554385
O14   O     O_R   0.680370 0.500020 0.617050 -0.446861
O15   O     O_R   0.680330 0.499980 0.382900 -0.512468
O16   O     O_3   0.611490 0.520207 0.899365 -0.485426

loop_
_geom_bond_atom_site_label_1
_geom_bond_atom_site_label_2
_ccdc_geom_bond_type
C14   H26   S    
Cu1   O1    S    
C11   C13   A    
C15   H30   S    
C21   H21   S    
Cu2   O9    S    
C6    O13   A    
Cu1   O14   S    
C10   O5    S    
C19   H14   S    
C17   O4    S    
Cu1   Cu2   S    
C23   H12   S    
C16   H5    S    
C21   H24   S    
C12   C22   A    
C1    C2    S    
C18   H10   S    
C9    O4    S    
C20   H20   S    
C16   H4    S    
Cu2   O15   S    
C8    C9    A    
C15   O2    S    
C17   H6    S    
C9    C10   A    
C27   O7    S    
C7    O15   A    
Cu1   O10   S    
C14   H25   S    
C8    O3    S    
C13   C25   A    
C1    O1    A    
C19   H13   S    
C6    O12   A    
C3    N1    D    
Cu1   N1    S    
C24   C25   A    
C18   H11   S    
Cu2   O11   S    
Cu1   O12   S    
C18   O5    S    
C5    O2    S    
C2    H1    S    
C18   H9    S    
C20   H19   S    
C16   H3    S    
C4    C22   S    
C6    C27   S    
N1    O16   S    
C8    C12   A    
C26   C27   D    
C19   O6    S    
C17   H7    S    
C4    O11   A    
C20   H18   S    
C26   H17   S    
Cu2   N2    S    
C15   H28   S    
C20   O7    S    
C4    O10   A    
C11   O6    S    
C14   H27   S    
C15   H29   S    
C28   O8    S    
C3    C5    S    
C19   H15   S    
C7    O14   A    
C26   C28   S    
C7    C25   S    
C21   O8    S    
C24   H16   S    
H2    N2    S    
Cu2   O13   S    
C3    H23   S    
C1    O9    A    
C5    N2    D    
C17   H8    S    
C14   O16   S    
C10   C11   A    
C23   C24   A    
C12   C13   A    
C22   C23   A    
C2    C28   D    
C16   O3    S    
C21   H22   S    
