data_mof_unit_29660.cif
_audit_creation_date              2012-10-26T19:58:21-0400
_audit_creation_method            fapswitch 2.2
_symmetry_space_group_name_H-M    P1
_symmetry_Int_Tables_number       1
_space_group_crystal_system       triclinic
_cell_length_a                    7.421573
_cell_length_b                    8.718942
_cell_length_c                    13.406537
_cell_angle_alpha                 94.043779
_cell_angle_beta                  77.443703
_cell_angle_gamma                 102.967487
_cell_volume                      824.955270076

loop_
_atom_site_label
_atom_site_type_symbol
_atom_type_description
_atom_site_fract_x
_atom_site_fract_y
_atom_site_fract_z
_atom_type_partial_charge
Br1   Br    Br    0.241108 0.929931 0.405053 -0.483087
C1    C     C_R   0.545590 0.799975 0.500547 0.565925
C2    C     C_R   0.337465 0.495479 0.806682 -0.006503
C3    C     C_2   0.565381 0.966970 0.503896 -0.126380
C4    C     C_R   0.399602 0.498183 0.694482 0.523280
C5    C     C_2   0.439758 0.034533 0.475571 0.106527
C6    C     C_R   0.457680 0.200455 0.492033 0.565491
C7    C     C_R   0.601613 0.511190 0.305903 0.551299
C8    C     C_R   0.879042 0.677366 0.053699 -0.124435
C9    C     C_R   0.662307 0.537195 0.195893 -0.002062
C10   C     C_R   0.152636 0.416741 0.848549 -0.134369
C11   C     C_R   0.098410 0.386468 0.952212 -0.136443
C12   C     C_R   0.417633 0.507620 0.975631 0.033098
C13   C     C_R   0.229177 0.428093 0.014983 -0.119855
C14   C     C_R   0.466209 0.553702 0.872108 0.025923
C15   C     C_R   0.558946 0.544619 0.035752 0.029909
C16   C     C_R   0.739085 0.639096 0.994954 0.047481
C17   C     C_R   0.776108 0.697812 0.897000 -0.139578
C18   C     C_R   0.641088 0.657933 0.837086 -0.122927
C19   C     C_R   0.527125 0.490266 0.135353 -0.121471
C20   C     C_R   0.840477 0.627406 0.154067 -0.133207
Cu1   Cu    Cu3+1 0.321300 0.483160 0.488710 1.012591
Cu2   Cu    Cu3+1 0.678700 0.516840 0.511290 0.981625
H1    H     H_    0.946448 0.664964 0.200084 0.157368
H2    H     H_    0.674568 0.713524 0.763877 0.140649
H3    H     H_    0.681602 0.036145 0.535935 0.114524
H4    H     H_    0.011075 0.617567 0.579207 0.247291
H5    H     H_    0.988880 0.382406 0.420826 0.243811
H6    H     H_    0.910252 0.775322 0.866447 0.110632
H7    H     H_    0.016728 0.749405 0.022795 0.123977
H8    H     H_    0.396133 0.413163 0.169005 0.124300
H9    H     H_    0.050968 0.374094 0.800533 0.140637
H10   H     H_    0.176494 0.399703 0.094381 0.111636
H11   H     H_    0.954936 0.326337 0.983818 0.132614
N1    N     N_2   0.947230 0.542220 0.528320 -0.238418
N2    N     N_2   0.052770 0.457780 0.471680 -0.240912
O1    O     O_R   0.383920 0.714220 0.492660 -0.459503
O2    O     O_R   0.685730 0.742660 0.511730 -0.488168
O3    O     O_R   0.275440 0.478800 0.636790 -0.516310
O4    O     O_R   0.577250 0.507240 0.655860 -0.510559
O5    O     O_R   0.314270 0.257340 0.488270 -0.463453
O6    O     O_R   0.616080 0.285780 0.507340 -0.529756
O7    O     O_R   0.422750 0.492760 0.344140 -0.491313
O8    O     O_R   0.724560 0.521200 0.363210 -0.501883

loop_
_geom_bond_atom_site_label_1
_geom_bond_atom_site_label_2
_ccdc_geom_bond_type
C3    H3    S    
C10   C11   A    
C5    C6    S    
Cu2   O2    S    
Cu1   N2    S    
C1    O2    A    
C1    C3    S    
N1    N2    D    
C7    O7    A    
C15   C19   A    
C13   H10   S    
C6    O5    A    
C16   C17   A    
C17   H6    S    
C12   C13   A    
C14   C18   A    
C1    O1    A    
C8    C20   A    
Cu2   O6    S    
C8    H7    S    
Cu1   O3    S    
C7    C9    S    
C11   C13   A    
C10   H9    S    
Cu2   N1    S    
C12   C14   A    
C9    C20   A    
C18   H2    S    
C6    O6    A    
Cu1   O5    S    
C2    C10   A    
C20   H1    S    
C11   H11   S    
Cu2   O4    S    
C7    O8    A    
C2    C14   A    
H5    N2    S    
C3    C5    D    
C17   C18   A    
C12   C15   A    
C8    C16   A    
C4    O3    A    
Cu1   Cu2   S    
H4    N1    S    
C4    O4    A    
Cu1   O1    S    
Cu1   O7    S    
Cu2   O8    S    
Br1   C5    S    
C9    C19   A    
C15   C16   A    
C2    C4    S    
C19   H8    S    
