data_mof_unit_21314.cif
_audit_creation_date              2013-03-05T15:51:40-0500
_audit_creation_method            fapswitch 2.2
_symmetry_space_group_name_H-M    P1
_symmetry_Int_Tables_number       1
_space_group_crystal_system       triclinic
_cell_length_a                    11.633993
_cell_length_b                    11.558817
_cell_length_c                    19.496025
_cell_angle_alpha                 90.342919
_cell_angle_beta                  90.022277
_cell_angle_gamma                 60.425885
_cell_volume                      2280.11654968

loop_
_atom_site_label
_atom_site_type_symbol
_atom_site_description
_atom_site_fract_x
_atom_site_fract_y
_atom_site_fract_z
_atom_type_partial_charge
O1    O     O_R   0.267750 0.231960 0.575440 -0.488125
O2    O     O_R   0.527290 0.186640 0.570530 -0.498467
C1    C     C_R   0.640183 0.116947 0.599138 0.546669
O3    O     O_R   0.728110 0.003450 0.576380 -0.491976
O4    O     O_R   0.682980 0.789190 0.570500 -0.484010
C2    C     C_R   0.611908 0.746314 0.598488 0.549486
O5    O     O_R   0.499300 0.771880 0.575540 -0.503224
O6    O     O_R   0.285350 0.030870 0.569740 -0.482094
C3    C     C_R   0.241068 0.145015 0.598036 0.571753
O7    O     O_R   0.270960 0.227070 0.423890 -0.461392
O8    O     O_R   0.530270 0.182120 0.430040 -0.536318
C4    C     C_R   0.645781 0.113812 0.403989 0.548386
O9    O     O_R   0.731320 0.998570 0.424830 -0.457442
O10   O     O_R   0.685950 0.784660 0.430010 -0.465254
C5    C     C_R   0.618306 0.733823 0.404824 0.547203
O11   O     O_R   0.502510 0.767000 0.423980 -0.534443
O12   O     O_R   0.288320 0.026340 0.429250 -0.450772
C6    C     C_R   0.300465 0.115330 0.393855 0.559540
Cr1   Cr    Cr6+3 0.404720 0.198220 0.499960 1.066232
Cr2   Cr    Cr6+3 0.698290 0.897110 0.500380 1.114595
Cr3   Cr    Cr6+3 0.396970 0.904720 0.499610 1.084617
O13   O     O_3   0.499990 0.000020 0.499980 -0.316287
C7    C     C_1   0.670788 0.646671 0.860313 0.019595
C8    C     C_1   0.654395 0.683681 0.728391 -0.025217
C9    C     C_1   0.663557 0.666875 0.799757 -0.023439
C10   C     C_1   0.640542 0.703892 0.667858 0.013537
C11   C     C_1   0.126711 0.199174 0.859456 0.019431
C12   C     C_1   0.171547 0.169901 0.727682 -0.024916
C13   C     C_1   0.150215 0.182356 0.799025 -0.022182
C14   C     C_1   0.195342 0.160336 0.667246 0.011973
C15   C     C_1   0.679119 0.190891 0.860947 0.021216
C16   C     C_1   0.658755 0.166851 0.729009 -0.024575
C17   C     C_1   0.666057 0.180452 0.800424 -0.022857
C18   C     C_1   0.653000 0.149337 0.668526 0.012854
C19   C     C_R   0.672171 0.641998 0.199047 -0.025044
C20   C     C_R   0.570849 0.637319 0.234316 -0.006441
C21   C     C_R   0.563076 0.645862 0.303967 -0.071244
C22   C     C_R   0.777587 0.630177 0.309399 0.172682
C23   C     C_R   0.779280 0.632210 0.236976 -0.108378
C24   C     C_3   0.425009 0.715917 0.224316 0.107045
C25   C     C_3   0.414737 0.729061 0.301560 -0.178904
C26   C     C_R   0.659185 0.657242 0.342006 -0.003849
H1    H     H_    0.861638 0.628480 0.210011 0.249609
H2    H     H_    0.364887 0.679473 0.326644 0.219146
C27   C     C_R   0.165149 0.173334 0.186205 0.001769
C28   C     C_R   0.257959 0.207341 0.208187 0.051865
C29   C     C_R   0.313345 0.175984 0.273051 -0.112626
C30   C     C_R   0.174515 0.079796 0.299539 0.174299
C31   C     C_R   0.137475 0.092341 0.230174 0.156700
C32   C     C_3   0.255187 0.337331 0.206947 0.387759
C33   C     C_3   0.328517 0.298044 0.274848 -0.181248
C34   C     C_R   0.260437 0.126340 0.322104 -0.032254
H3    H     H_    0.431467 0.275481 0.269742 0.138931
C35   C     C_R   0.678523 0.199417 0.196095 0.082908
C36   C     C_R   0.679076 0.085776 0.216490 0.074813
C37   C     C_R   0.666400 0.063412 0.282816 -0.051256
C38   C     C_R   0.658138 0.265936 0.317281 -0.103987
C39   C     C_R   0.667633 0.291611 0.247386 -0.076779
C40   C     C_3   0.698864 0.954048 0.193401 0.343207
C41   C     C_3   0.677691 0.932205 0.269796 -0.248226
C42   C     C_R   0.661742 0.146618 0.335362 0.048900
H4    H     H_    0.650771 0.336405 0.356284 0.142050
H5    H     H_    0.673821 0.378540 0.233594 0.140846
H6    H     H_    0.584460 0.932554 0.282510 0.116193
O14   O     O_R   0.821590 0.119350 0.952850 -0.488081
O15   O     O_R   0.037230 0.162540 0.957390 -0.498023
C43   C     C_R   0.081643 0.231428 0.928737 0.550045
O16   O     O_R   0.056530 0.344750 0.951370 -0.488942
O17   O     O_R   0.798000 0.560370 0.957490 -0.486835
C44   C     C_R   0.684254 0.604289 0.929702 0.555396
O18   O     O_R   0.596230 0.579400 0.952760 -0.492586
O19   O     O_R   0.639160 0.321170 0.958690 -0.486115
C45   C     C_R   0.708982 0.206701 0.930283 0.563094
O20   O     O_R   0.821370 0.124220 0.104400 -0.434240
O21   O     O_R   0.037020 0.167050 0.097880 -0.468109
C46   C     C_R   0.085101 0.233206 0.124703 0.569630
O22   O     O_R   0.056310 0.349620 0.102920 -0.456547
O23   O     O_R   0.797790 0.564880 0.097980 -0.470586
C47   C     C_R   0.684755 0.607853 0.126978 0.591658
O24   O     O_R   0.596000 0.584270 0.104310 -0.475077
O25   O     O_R   0.638950 0.325690 0.099180 -0.461878
C48   C     C_R   0.710475 0.213532 0.127296 0.607405
Cr4   Cr    Cr6+3 0.926290 0.152010 0.028150 1.155876
Cr5   Cr    Cr6+3 0.921440 0.451830 0.027490 1.151566
Cr6   Cr    Cr6+3 0.626370 0.446880 0.028730 1.151208
O26   O     O_3   0.824700 0.350240 0.028120 -0.330983
N1    N     N_R   0.889533 0.611699 0.349383 0.122456
O27   O     O_R   0.919020 0.543154 0.405732 -0.284322
O28   O     O_R   0.964614 0.659108 0.329385 -0.238181
N2    N     N_R   0.325337 0.350128 0.147428 0.115707
O29   O     O_R   0.436371 0.249475 0.127822 -0.324858
O30   O     O_R   0.264727 0.448679 0.105111 -0.203580
H7    H     H_    0.274769 0.366396 0.318272 0.203692
N3    N     N_R   0.833639 0.864477 0.168477 0.086990
O31   O     O_R   0.853775 0.802688 0.109921 -0.256617
O32   O     O_R   0.934985 0.841567 0.206057 -0.176530
N4    N     N_R   0.596486 0.965450 0.145496 0.102992
O33   O     O_R   0.504072 0.940518 0.164801 -0.408708
O34   O     O_R   0.600484 0.996039 0.081735 -0.247264
H8    H     H_    0.766327 0.857014 0.296180 0.203210
N5    N     N_R   0.371070 0.635193 0.196228 0.141309
O35   O     O_R   0.305381 0.669856 0.139043 -0.192953
O36   O     O_R   0.392309 0.526133 0.226143 -0.336704
H9    H     H_    0.390951 0.811212 0.196863 0.173078
H10   H     H_    0.378963 0.833155 0.318049 0.138999
N6    N     N_R   0.111403 0.035056 0.347682 0.121454
O37   O     O_R   0.026900 0.118861 0.391757 -0.274871
O38   O     O_R   0.125886 0.916281 0.342499 -0.266927
N7    N     N_R   0.058410 0.036204 0.207775 0.115388
O39   O     O_R   0.105429 0.940380 0.162637 -0.224106
O40   O     O_R   0.949657 0.065567 0.239973 -0.278351
N8    N     N_R   0.122967 0.449703 0.216535 0.089593
O41   O     O_R   0.103671 0.569875 0.210140 -0.162701
O42   O     O_R   0.039082 0.430416 0.251697 -0.378651

loop_
_geom_bond_atom_site_label_1
_geom_bond_atom_site_label_2
_geom_bond_distance
_ccdc_geom_bond_type
C36   C37   1.342550 A    
N5    O35   1.299998 A    
C36   C40   1.489923 S    
C11   C13   1.202350 T    
C19   C20   1.388982 A    
O20   Cr4   2.048706 S    
N1    O27   1.301597 A    
N8    O42   1.299679 A    
O19   Cr6   1.939357 S    
C38   C39   1.412259 A    
C6    C34   1.460486 S    
C38   H4    1.082932 S    
O4    Cr2   1.922648 S    
C2    C10   1.423675 S    
Cr6   O26   2.006880 S    
O8    Cr1   1.938177 S    
O11   Cr3   2.063915 S    
C25   H10   1.106991 S    
C27   C46   1.468607 S    
C20   C21   1.360717 A    
C8    C10   1.199701 T    
C22   C26   1.404420 A    
N7    O40   1.297787 A    
O4    C2    1.278722 A    
C15   C45   1.428538 S    
N6    O37   1.301485 A    
C5    O11   1.260996 A    
O14   C45   1.276130 A    
O12   C6    1.306226 A    
C28   C29   1.385666 A    
C21   C26   1.400311 A    
C24   N5    1.461462 S    
O18   Cr6   2.039499 S    
C32   N2    1.468472 S    
C30   N6    1.438293 S    
O6    C3    1.277131 A    
C15   C17   1.202596 T    
C44   O18   1.275258 A    
C40   N3    1.469261 S    
O15   C43   1.274659 A    
O15   Cr4   1.934488 S    
C40   C41   1.552063 S    
N5    O36   1.300591 A    
Cr3   O13   1.988235 S    
C7    C44   1.423611 S    
O17   C44   1.281406 A    
O20   C48   1.268743 A    
N8    O41   1.299858 A    
N4    O34   1.301532 A    
N4    O33   1.299272 A    
O1    Cr1   2.058730 S    
C43   O16   1.269347 A    
O16   Cr5   2.064952 S    
O10   Cr2   1.937774 S    
C20   C24   1.490795 S    
Cr1   O13   1.992614 S    
O1    C3    1.270336 A    
C8    C9    1.402729 S    
O23   C47   1.283797 A    
C23   H1    1.074995 S    
O22   Cr5   2.051722 S    
C32   C33   1.519985 S    
O5    Cr3   2.046411 S    
O25   C48   1.271567 A    
C37   C41   1.476665 S    
C33   H3    1.097228 S    
C16   C18   1.202656 T    
C19   C23   1.404820 A    
O21   C46   1.260287 A    
O24   Cr6   2.058288 S    
O23   Cr5   1.946814 S    
C24   H9    1.110337 S    
N2    O30   1.301309 A    
C27   C31   1.422061 A    
O7    Cr1   2.055285 S    
C32   N8    1.453727 S    
O6    Cr3   1.946874 S    
C11   C43   1.428241 S    
C46   O22   1.290367 A    
N3    O32   1.300216 A    
C2    O5    1.273887 A    
C3    C14   1.428209 S    
C33   H7    1.112066 S    
C30   C31   1.405616 A    
Cr2   O13   2.007142 S    
N1    O28   1.300228 A    
C40   N4    1.467627 S    
C25   H2    1.111638 S    
C1    O3    1.277903 A    
C12   C13   1.406970 S    
C35   C48   1.423642 S    
C31   N7    1.429443 S    
C35   C39   1.416230 A    
C39   H5    1.077851 S    
C35   C36   1.371670 A    
C24   C25   1.511539 S    
O9    Cr2   2.039239 S    
O2    Cr1   1.938176 S    
C37   C42   1.383544 A    
C5    C26   1.442761 S    
Cr5   O26   1.987575 S    
O19   C45   1.283701 A    
C41   H8    1.097080 S    
C29   C33   1.506034 S    
O8    C4    1.278932 A    
C38   C42   1.406014 A    
C29   C34   1.406561 A    
C28   C32   1.487224 S    
C1    C18   1.428761 S    
C22   N1    1.440858 S    
C41   H6    1.110764 S    
C16   C17   1.407447 S    
C12   C14   1.202335 T    
O2    C1    1.282748 A    
O17   Cr5   1.933738 S    
N7    O39   1.300418 A    
C4    C42   1.429752 S    
O21   Cr4   1.937722 S    
N2    O29   1.296116 A    
C22   C23   1.412613 A    
N6    O38   1.301331 A    
O7    C6    1.297063 A    
C19   C47   1.444943 S    
C7    C9    1.199682 T    
C21   C25   1.505853 S    
N3    O31   1.301356 A    
O12   Cr3   1.929606 S    
O14   Cr4   2.056035 S    
C47   O24   1.269594 A    
O3    Cr2   2.055568 S    
C27   C28   1.385857 A    
C30   C34   1.417707 A    
Cr4   O26   1.993446 S    
C4    O9    1.275722 A    
O10   C5    1.287803 A    
O25   Cr6   1.921115 S    
