data_mof_unit_24152.cif
_audit_creation_date              2012-12-10T17:57:53-0500
_audit_creation_method            fapswitch 2.2
_symmetry_space_group_name_H-M    P1
_symmetry_Int_Tables_number       1
_space_group_crystal_system       triclinic
_cell_length_a                    10.829796
_cell_length_b                    9.51172
_cell_length_c                    15.077566
_cell_angle_alpha                 89.881167
_cell_angle_beta                  89.913282
_cell_angle_gamma                 90.066493
_cell_volume                      1553.13370985

loop_
_atom_site_label
_atom_site_type_symbol
_atom_type_description
_atom_site_fract_x
_atom_site_fract_y
_atom_site_fract_z
_atom_type_partial_charge
C1    C     C_R   0.262046 0.499950 0.499834 0.772892
C2    C     C_R   0.737954 0.500050 0.500165 0.772875
C3    C     C_R   0.394658 0.727494 0.043538 -0.186547
C4    C     C_R   0.605332 0.272511 0.956470 -0.186592
C5    C     C_R   0.063699 0.372716 0.507311 -0.187025
C6    C     C_R   0.936302 0.627284 0.492685 -0.187027
C7    C     C_R   0.935959 0.372801 0.507658 -0.196663
C8    C     C_R   0.064041 0.627199 0.492339 -0.196668
C9    C     C_R   0.871781 0.500079 0.500258 -0.015148
C10   C     C_R   0.128219 0.499921 0.499739 -0.015155
C11   C     C_R   0.420684 0.074504 0.446954 -0.030098
C12   C     C_R   0.579315 0.925496 0.553046 -0.030099
C13   C     C_R   0.579338 0.074366 0.553013 -0.000435
C14   C     C_R   0.420662 0.925634 0.446987 -0.000475
C15   C     C_R   0.497785 0.500180 0.328688 0.845008
C16   C     C_R   0.502216 0.499820 0.671313 0.844984
C17   C     C_R   0.561875 0.387661 0.814871 0.441939
C18   C     C_R   0.438093 0.612311 0.185132 0.441903
C19   C     C_R   0.506432 0.499674 0.768046 -0.176268
C20   C     C_R   0.493573 0.500321 0.231956 -0.176281
C21   C     C_R   0.454364 0.613059 0.813717 -0.326022
C22   C     C_R   0.545676 0.386969 0.186288 -0.326037
C23   C     C_R   0.452097 0.614257 0.905929 0.114970
C24   C     C_R   0.547940 0.385771 0.094076 0.114986
C25   C     C_R   0.502235 0.500019 0.953423 0.020896
C26   C     C_R   0.497796 0.500005 0.046582 0.020889
C27   C     C_R   0.556752 0.385885 0.907955 0.007121
C28   C     C_R   0.443247 0.614118 0.092051 0.007121
C29   C     C_R   0.398985 0.727376 0.951269 -0.207213
C30   C     C_R   0.601036 0.272648 0.048738 -0.207222
Cu1   Cu    Cu3+1 0.500000 0.640660 0.500000 0.955518
Cu2   Cu    Cu3+1 0.500000 0.359340 0.500000 0.955519
H1    H     H_    0.413239 0.699537 0.777255 0.179182
H2    H     H_    0.586817 0.300505 0.222749 0.179176
H3    H     H_    0.360417 0.815740 0.915303 0.147408
H4    H     H_    0.639593 0.184282 0.084701 0.147409
H5    H     H_    0.353065 0.816640 0.076623 0.185567
H6    H     H_    0.646895 0.183350 0.923388 0.185560
H7    H     H_    0.111652 0.273279 0.513293 0.148962
H8    H     H_    0.888348 0.726721 0.486704 0.148959
H9    H     H_    0.887736 0.273421 0.513932 0.145167
H10   H     H_    0.112264 0.726579 0.486066 0.145168
H11   H     H_    0.357183 0.130695 0.404448 0.122900
H12   H     H_    0.642817 0.869305 0.595551 0.122892
H13   H     H_    0.642929 0.130441 0.595370 0.144409
H14   H     H_    0.357072 0.869559 0.404628 0.144440
N1    N     N_R   0.500000 0.852070 0.500000 -0.163059
N2    N     N_R   0.500000 0.147930 0.500000 -0.163055
O1    O     O_R   0.319640 0.618740 0.499990 -0.592870
O2    O     O_R   0.680360 0.381260 0.500010 -0.592889
O3    O     O_R   0.680360 0.618740 0.500010 -0.593484
O4    O     O_R   0.319640 0.381260 0.499990 -0.593485
O5    O     O_R   0.499970 0.618800 0.370260 -0.533487
O6    O     O_R   0.500030 0.381200 0.629740 -0.533455
O7    O     O_R   0.500030 0.618800 0.629740 -0.595291
O8    O     O_R   0.499970 0.381200 0.370260 -0.595297
O9    O     O_3   0.617559 0.277926 0.769802 -0.578873
C31   C     C_3   0.741595 0.314850 0.752738 -0.343121
H15   H     H_    0.748083 0.408091 0.708266 0.154360
H16   H     H_    0.787240 0.225851 0.718452 0.178750
H17   H     H_    0.793146 0.334534 0.815339 0.160624
O10   O     O_3   0.382293 0.721994 0.230201 -0.578900
C32   C     C_3   0.258302 0.684876 0.247296 -0.343013
H18   H     H_    0.212611 0.773756 0.281661 0.178783
H19   H     H_    0.251905 0.591547 0.291716 0.154228
H20   H     H_    0.206745 0.665238 0.184707 0.160688

loop_
_geom_bond_atom_site_label_1
_geom_bond_atom_site_label_2
_ccdc_geom_bond_type
C13   N2    A    
C32   H19   S    
C11   H11   S    
O10   C32   S    
C25   C27   A    
C29   H3    S    
C14   H14   S    
C26   C28   A    
Cu1   Cu2   S    
C30   H4    S    
C15   O8    A    
C4    C27   A    
C31   H17   S    
C5    H7    S    
O9    C31   S    
C32   H20   S    
C5    C10   A    
C12   H12   S    
C25   C26   A    
Cu1   N1    S    
Cu2   O4    S    
Cu1   O5    S    
C13   H13   S    
Cu2   N2    S    
Cu2   O2    S    
C11   N2    A    
C14   N1    A    
Cu1   O1    S    
C12   N1    A    
C23   C29   A    
Cu2   O6    S    
C3    C28   A    
C17   C19   A    
C8    H10   S    
C22   C24   A    
C23   C25   A    
C21   C23   A    
C16   C19   S    
C15   C20   S    
C22   H2    S    
C1    O4    A    
C6    H8    S    
C16   O7    A    
C24   C30   A    
C21   H1    S    
C2    O3    A    
C20   C22   A    
C31   H16   S    
C32   H18   S    
C17   C27   A    
C15   O5    A    
C6    C9    A    
C18   C28   A    
C12   C13   A    
C3    H5    S    
C18   C20   A    
C5    C7    A    
C16   O6    A    
Cu1   O3    S    
C11   C14   A    
C3    C29   A    
C7    C9    A    
C18   O10   S    
C6    C8    A    
C2    O2    A    
Cu1   O7    S    
C31   H15   S    
C17   O9    S    
C2    C9    S    
C1    O1    A    
Cu2   O8    S    
C8    C10   A    
C4    C30   A    
C1    C10   S    
C24   C26   A    
C7    H9    S    
C4    H6    S    
C19   C21   A    
