data_mof_unit_19425.cif
_audit_creation_date              2012-12-10T18:42:31-0500
_audit_creation_method            fapswitch 2.2
_symmetry_space_group_name_H-M    P1
_symmetry_Int_Tables_number       1
_space_group_crystal_system       triclinic
_cell_length_a                    8.575538
_cell_length_b                    10.690286
_cell_length_c                    9.886474
_cell_angle_alpha                 89.943683
_cell_angle_beta                  98.161567
_cell_angle_gamma                 90.783981
_cell_volume                      897.077920009

loop_
_atom_site_label
_atom_site_type_symbol
_atom_type_description
_atom_site_fract_x
_atom_site_fract_y
_atom_site_fract_z
_atom_type_partial_charge
C1    C     C_R   0.502046 0.260261 0.499814 0.894809
C2    C     C_R   0.497954 0.739739 0.500186 0.894810
C3    C     C_R   0.201400 0.499179 0.464467 0.962046
C4    C     C_R   0.798600 0.500821 0.535533 0.962047
C5    C     C_2   0.036474 0.495541 0.445415 -0.388823
C6    C     C_2   0.963525 0.504458 0.554585 -0.388822
C7    C     C_R   0.584178 0.063118 0.407359 0.215459
C8    C     C_R   0.415822 0.936882 0.592641 0.215459
C9    C     C_R   0.582131 0.934450 0.410830 -0.310639
C10   C     C_R   0.417869 0.065550 0.589170 -0.310638
C11   C     C_R   0.497766 0.872174 0.501635 -0.089681
C12   C     C_R   0.502234 0.127825 0.498365 -0.089681
C13   C     C_R   0.618148 0.560613 0.085784 0.285601
C14   C     C_R   0.381852 0.439386 0.914216 0.285601
C15   C     C_R   0.616506 0.559750 0.941186 -0.168612
C16   C     C_R   0.383494 0.440250 0.058814 -0.168612
H1    H     H_    0.975533 0.484076 0.341911 0.207176
H2    H     H_    0.024467 0.515924 0.658089 0.207176
H3    H     H_    0.647525 0.883374 0.343271 0.154638
H4    H     H_    0.352475 0.116626 0.656729 0.154638
H5    H     H_    0.706721 0.607839 0.894501 0.164170
H6    H     H_    0.293279 0.392161 0.105499 0.164170
N1    N     N_R   0.499960 0.499970 0.857200 -0.127455
N2    N     N_R   0.500040 0.500030 0.142800 -0.127455
O1    O     O_R   0.499990 0.316750 0.614620 -0.650071
O2    O     O_R   0.500010 0.683250 0.385380 -0.650071
O3    O     O_R   0.499990 0.316780 0.385290 -0.593700
O4    O     O_R   0.500010 0.683220 0.614710 -0.593700
O5    O     O_R   0.271750 0.499990 0.587840 -0.596923
O6    O     O_R   0.728250 0.500010 0.412160 -0.596923
O7    O     O_R   0.271750 0.500010 0.358510 -0.633113
O8    O     O_R   0.728250 0.499990 0.641490 -0.633113
Zn1   Zn    Zn3+2 0.500000 0.499980 0.653120 0.942694
Zn2   Zn    Zn3+2 0.500000 0.500020 0.346880 0.942694
N3    N     N_2   0.674074 0.126714 0.317341 -0.289161
H7    H     H_    0.788627 0.096115 0.325820 0.213379
C17   C     C_3   0.599814 0.129308 0.176395 -0.733484
H8    H     H_    0.593067 0.033534 0.132049 0.217214
H9    H     H_    0.670144 0.190132 0.116056 0.233884
H10   H     H_    0.479162 0.167785 0.168743 0.251429
N4    N     N_2   0.325926 0.873286 0.682659 -0.289161
H11   H     H_    0.211372 0.903884 0.674179 0.213379
C18   C     C_3   0.400184 0.870692 0.823605 -0.733484
H12   H     H_    0.406930 0.966467 0.867951 0.217214
H13   H     H_    0.520837 0.832217 0.831257 0.251429
H14   H     H_    0.329855 0.809868 0.883943 0.233884
N5    N     N_2   0.739999 0.625231 0.173031 -0.277611
H15   H     H_    0.700481 0.687389 0.239119 0.255377
C19   C     C_3   0.881801 0.666441 0.121184 -0.882372
H16   H     H_    0.969483 0.700085 0.207445 0.255399
H17   H     H_    0.855318 0.745031 0.048312 0.236181
H18   H     H_    0.934547 0.587512 0.071295 0.252187
N6    N     N_2   0.260001 0.374769 0.826969 -0.277611
H19   H     H_    0.299518 0.312611 0.760880 0.255378
C20   C     C_3   0.118199 0.333559 0.878816 -0.882373
H20   H     H_    0.030518 0.299914 0.792555 0.255399
H21   H     H_    0.065453 0.412487 0.928705 0.252187
H22   H     H_    0.144683 0.254968 0.951688 0.236181

loop_
_geom_bond_atom_site_label_1
_geom_bond_atom_site_label_2
_ccdc_geom_bond_type
C14   N1    A    
C3    O7    A    
C20   H20   S    
C17   H8    S    
C18   H13   S    
N4    H11   S    
C16   N2    A    
N5    H15   S    
C13   C15   A    
C18   H12   S    
C19   H18   S    
O8    Zn1   S    
C3    C5    S    
N6    C20   S    
O7    Zn2   S    
C2    O2    A    
N6    H19   S    
C1    O1    A    
C9    C11   A    
C3    O5    A    
C18   H14   S    
C4    O8    A    
C1    C12   S    
C10   C12   A    
C8    C11   A    
C5    C6    D    
C2    C11   S    
C7    N3    S    
C15   N1    A    
N3    C17   S    
C9    H3    S    
O4    Zn1   S    
C17   H10   S    
C7    C9    A    
C20   H21   S    
O3    Zn2   S    
C7    C12   A    
C17   H9    S    
C6    H2    S    
C14   C16   A    
C4    C6    S    
C5    H1    S    
O6    Zn2   S    
O5    Zn1   S    
C15   H5    S    
C14   N6    S    
C8    N4    S    
N5    C19   S    
C19   H16   S    
C20   H22   S    
O1    Zn1   S    
C1    O3    A    
C2    O4    A    
C16   H6    S    
N1    Zn1   S    
C13   N5    S    
O2    Zn2   S    
C8    C10   A    
C4    O6    A    
N4    C18   S    
N3    H7    S    
C13   N2    A    
C10   H4    S    
C19   H17   S    
N2    Zn2   S    
