data_mof_unit_27600.cif
_audit_creation_date              2012-10-26T20:50:48-0400
_audit_creation_method            fapswitch 2.2
_symmetry_space_group_name_H-M    P1
_symmetry_Int_Tables_number       1
_space_group_crystal_system       triclinic
_cell_length_a                    11.022639
_cell_length_b                    10.82177
_cell_length_c                    9.540073
_cell_angle_alpha                 89.906628
_cell_angle_beta                  102.368349
_cell_angle_gamma                 90.165953
_cell_volume                      1111.56552106

loop_
_atom_site_label
_atom_site_type_symbol
_atom_type_description
_atom_site_fract_x
_atom_site_fract_y
_atom_site_fract_z
_atom_type_partial_charge
Br1   Br    Br    0.859070 0.347367 0.329188 -0.491546
C1    C     C_R   0.502370 0.262283 0.500618 0.547809
C2    C     C_R   0.442775 0.408670 0.060408 0.028056
C3    C     C_R   0.442420 0.408889 0.911422 0.016084
C4    C     C_R   0.262691 0.496667 0.442307 0.542198
C5    C     C_R   0.546432 0.598671 0.937857 0.149258
C6    C     C_3   0.675604 0.649452 0.966182 0.263262
C7    C     C_3   0.672899 0.652279 0.124604 -0.201734
C8    C     C_R   0.502458 0.737702 0.500462 0.547652
C9    C     C_R   0.737191 0.495040 0.557536 0.607459
C10   C     C_2   0.128108 0.481863 0.411451 -0.116558
C11   C     C_2   0.069456 0.466226 0.519553 -0.094722
C12   C     C_R   0.515160 0.129234 0.503402 0.018636
C13   C     C_2   0.872444 0.492669 0.588371 0.383714
C14   C     C_2   0.935378 0.446934 0.493477 0.106272
C15   C     C_R   0.519569 0.063341 0.630287 0.037665
C16   C     C_R   0.528932 0.064707 0.379901 -0.137336
C17   C     C_R   0.528832 0.935893 0.379753 -0.148043
C18   C     C_R   0.515185 0.870794 0.503168 0.013549
C19   C     C_R   0.519579 0.936169 0.630151 0.024322
C20   C     C_3   0.436832 0.929006 0.735137 -0.262141
C21   C     C_3   0.436891 0.069340 0.735386 -0.268293
C22   C     C_R   0.545256 0.599291 0.084815 0.093597
Cu1   Cu    Cu3+1 0.499990 0.499980 0.640670 1.033074
Cu2   Cu    Cu3+1 0.500010 0.500020 0.359330 0.987780
F1    F     F_    0.761052 0.564696 0.937962 -0.539698
F2    F     F_    0.934137 0.547257 0.711849 -0.602697
H1    H     H_    0.485142 0.109443 0.839764 0.144316
H2    H     H_    0.533006 0.888072 0.281289 0.132736
H3    H     H_    0.344448 0.888047 0.688086 0.155438
H4    H     H_    0.484838 0.888474 0.839381 0.125773
H5    H     H_    0.344527 0.110083 0.688637 0.141726
H6    H     H_    0.398345 0.333549 0.105173 0.117297
H7    H     H_    0.397292 0.334267 0.844709 0.105825
H8    H     H_    0.682114 0.742023 0.917691 0.108332
H9    H     H_    0.740744 0.588658 0.190968 0.221719
H10   H     H_    0.672879 0.747568 0.167784 0.069745
H11   H     H_    0.120352 0.471752 0.630395 0.192588
H12   H     H_    0.077632 0.480578 0.300395 0.175183
H13   H     H_    0.533414 0.112986 0.281573 0.149152
N1    N     N_R   0.500780 0.500930 0.148120 -0.216977
N2    N     N_R   0.500790 0.500890 0.852210 -0.207694
O1    O     O_R   0.500000 0.319640 0.618810 -0.512313
O2    O     O_R   0.500010 0.319680 0.381230 -0.506929
O3    O     O_R   0.320680 0.500000 0.575130 -0.513391
O4    O     O_R   0.320690 0.500040 0.337550 -0.489250
O5    O     O_R   0.499990 0.680320 0.618770 -0.511419
O6    O     O_R   0.500000 0.680360 0.381190 -0.512497
O7    O     O_R   0.679310 0.499960 0.662450 -0.394354
O8    O     O_R   0.679320 0.500000 0.424870 -0.512628

loop_
_geom_bond_atom_site_label_1
_geom_bond_atom_site_label_2
_ccdc_geom_bond_type
C10   C11   D    
C4    C10   S    
C5    C6    S    
Br1   C14   S    
C13   F2    S    
Cu1   N2    S    
C20   H3    S    
C18   C19   A    
C22   N1    A    
C11   C14   S    
C12   C16   A    
C1    O1    A    
C15   C19   A    
C3    N2    A    
C16   C17   A    
C6    C7    S    
C4    O3    A    
C17   H2    S    
C21   H1    S    
C20   C21   S    
C19   C20   S    
C10   H12   S    
C20   H4    S    
Cu2   O6    S    
C6    F1    S    
C21   H5    S    
Cu1   O3    S    
Cu2   O2    S    
C8    O5    A    
C7    H9    S    
C5    N2    A    
C3    H7    S    
C7    H10   S    
C5    C22   A    
Cu1   O5    S    
C2    C3    A    
C9    O8    A    
C11   H11   S    
C7    C22   S    
Cu1   Cu2   S    
C8    O6    A    
C17   C18   A    
C4    O4    A    
C12   C15   A    
Cu2   N1    S    
Cu1   O7    S    
Cu1   O1    S    
C1    C12   S    
C2    H6    S    
Cu2   O8    S    
C2    N1    A    
C15   C21   S    
C9    C13   S    
C13   C14   D    
C9    O7    A    
C6    H8    S    
Cu2   O4    S    
C8    C18   S    
C1    O2    A    
C16   H13   S    
