data_mof_unit_46799.cif
_audit_creation_date              2012-12-11T17:41:40-0500
_audit_creation_method            fapswitch 2.2
_symmetry_space_group_name_H-M    P1
_symmetry_Int_Tables_number       1
_space_group_crystal_system       triclinic
_cell_length_a                    15.551136
_cell_length_b                    15.131705
_cell_length_c                    15.007758
_cell_angle_alpha                 109.989218
_cell_angle_beta                  121.585798
_cell_angle_gamma                 58.810857
_cell_volume                      2561.44865994

loop_
_atom_site_label
_atom_site_type_symbol
_atom_type_description
_atom_site_fract_x
_atom_site_fract_y
_atom_site_fract_z
_atom_type_partial_charge
C1    C     C_R   0.769650 0.981110 0.790704 0.521858
C2    C     C_R   0.307425 0.295557 0.130041 -0.127491
C3    C     C_R   0.622913 0.675860 0.831522 -0.135405
C4    C     C_R   0.377814 0.195274 0.105667 -0.109750
C5    C     C_R   0.655533 0.743912 0.919466 0.097077
C6    C     C_R   0.333083 0.128135 0.026225 0.114970
C7    C     C_R   0.768984 0.722471 0.978638 -0.163099
C8    C     C_R   0.216768 0.163515 0.970275 -0.187327
C9    C     C_R   0.848770 0.633766 0.950466 -0.069290
C10   C     C_R   0.146582 0.263822 0.995004 -0.053216
C11   C     C_R   0.815665 0.566343 0.862729 -0.114613
C12   C     C_R   0.197626 0.059708 0.224942 0.490880
C13   C     C_R   0.191877 0.329724 0.074954 -0.066432
C14   C     C_R   0.572429 0.855456 0.044832 -0.231704
C15   C     C_R   0.402707 0.001929 0.901102 -0.235333
C16   C     C_R   0.242874 0.289678 0.490390 -0.167059
C17   C     C_R   0.801383 0.726379 0.560022 -0.187201
C18   C     C_R   0.493183 0.946844 0.071375 0.085549
C19   C     C_R   0.486984 0.915882 0.877115 0.072781
C20   C     C_R   0.408105 0.021888 0.999267 0.006726
C21   C     C_R   0.570590 0.839348 0.947020 0.028619
C22   C     C_2   0.146148 0.398928 0.610500 -0.192397
C23   C     C_R   0.209835 0.300561 0.565065 -0.042030
C24   C     C_2   0.980412 0.652888 0.540756 -0.200212
C25   C     C_2   0.133847 0.489204 0.599375 -0.095371
C26   C     C_2   0.040580 0.583653 0.610641 -0.096888
C27   C     C_2   0.865362 0.102735 0.903356 -0.194256
C28   C     C_2   0.017598 0.037644 0.148550 -0.192587
C29   C     C_R   0.230478 0.811011 0.567249 -0.085265
C30   C     C_R   0.758555 0.143212 0.306295 -0.068409
C31   C     C_R   0.320964 0.726964 0.550922 -0.159164
C32   C     C_R   0.666483 0.232329 0.314059 -0.160751
C33   C     C_R   0.303661 0.665092 0.454440 0.102482
C34   C     C_R   0.865651 0.727560 0.522704 -0.018931
C35   C     C_R   0.679316 0.299657 0.406605 0.112986
C36   C     C_R   0.194256 0.684487 0.377307 -0.239652
C37   C     C_R   0.785394 0.277520 0.491345 -0.253388
C38   C     C_R   0.103023 0.767412 0.394037 -0.045406
C39   C     C_R   0.878117 0.186799 0.485062 -0.059276
C40   C     C_R   0.592842 0.216733 0.490068 -0.108399
C41   C     C_R   0.405548 0.771819 0.442180 -0.118250
C42   C     C_R   0.121927 0.831857 0.488880 -0.150609
C43   C     C_R   0.863877 0.120415 0.391172 -0.094664
C44   C     C_R   0.401651 0.480367 0.420868 -0.251247
C45   C     C_R   0.500314 0.297877 0.433867 0.044649
C46   C     C_R   0.577389 0.489936 0.424727 -0.247296
C47   C     C_R   0.494194 0.389615 0.417217 0.051477
C48   C     C_R   0.488653 0.580430 0.437673 0.066268
C49   C     C_R   0.581848 0.393377 0.415363 0.034225
C50   C     C_R   0.398603 0.575757 0.434685 0.036646
C51   C     C_2   0.857188 0.110496 0.990811 -0.153599
C52   C     C_2   0.946215 0.120500 0.093142 -0.134214
C53   C     C_R   0.406618 0.978141 0.707532 -0.042165
C54   C     C_R   0.593030 0.953452 0.268039 -0.116188
C55   C     C_R   0.408391 0.286104 0.409682 -0.137130
C56   C     C_R   0.495753 0.677354 0.461673 0.039660
C57   C     C_R   0.591110 0.694189 0.527779 -0.127603
C58   C     C_R   0.589744 0.910072 0.787935 -0.045960
C59   C     C_R   0.407575 0.019167 0.194626 -0.095986
C60   C     C_R   0.241490 0.200595 0.581763 0.540340
C61   C     C_R   0.803828 0.817833 0.472902 0.496980
C62   C     C_R   0.765405 0.077540 0.702144 -0.188084
C63   C     C_R   0.196105 0.969603 0.313663 -0.228074
C64   C     C_R   0.803953 0.055097 0.803046 -0.029369
C65   C     C_R   0.133173 0.020959 0.223712 0.001070
C66   C     C_2   0.988677 0.782990 0.314137 0.959285
C67   C     C_R   0.495997 0.925096 0.790622 -0.056010
C68   C     C_2   0.988515 0.160724 0.577122 1.010725
C69   C     C_R   0.499204 0.964367 0.174028 -0.018062
C70   C     C_R   0.702733 0.587518 0.803117 -0.107127
H1    H     H_    0.995375 0.973972 0.129465 0.146497
H2    H     H_    0.180717 0.113053 0.908393 0.117295
H3    H     H_    0.936130 0.617813 0.996067 0.122483
H4    H     H_    0.057082 0.290463 0.952164 0.112579
H5    H     H_    0.636118 0.797956 0.100653 0.131867
H6    H     H_    0.340013 0.062460 0.848440 0.156531
H7    H     H_    0.010538 0.586940 0.663184 0.131736
H8    H     H_    0.178646 0.491938 0.564817 0.133643
H9    H     H_    0.011343 0.646936 0.487642 0.138842
H10   H     H_    0.098243 0.398706 0.643122 0.132550
H11   H     H_    0.052711 0.896169 0.503602 0.166911
H12   H     H_    0.923742 0.124589 0.907091 0.145213
H13   H     H_    0.934046 0.050798 0.383523 0.163826
H14   H     H_    0.229919 0.350395 0.456414 0.127781
H15   H     H_    0.827935 0.675123 0.613628 0.123534
H16   H     H_    0.244437 0.859565 0.641084 0.131600
H17   H     H_    0.748277 0.091614 0.234408 0.139526
H18   H     H_    0.404533 0.711523 0.611966 0.112125
H19   H     H_    0.585511 0.249901 0.247772 0.106885
H20   H     H_    0.180539 0.635041 0.303864 0.153511
H21   H     H_    0.794465 0.329824 0.562850 0.162711
H22   H     H_    0.335138 0.478506 0.425066 0.135031
H23   H     H_    0.877447 0.497925 0.840770 0.115667
H24   H     H_    0.644869 0.494501 0.424974 0.138364
H25   H     H_    0.679303 0.196211 0.515517 0.120063
H26   H     H_    0.319351 0.787706 0.391207 0.122288
H27   H     H_    0.321668 0.990008 0.678037 0.172647
H28   H     H_    0.678533 0.917426 0.279873 0.185272
H29   H     H_    0.323161 0.327378 0.355279 0.111321
H30   H     H_    0.676368 0.637178 0.561014 0.103344
H31   H     H_    0.674671 0.862037 0.836023 0.172976
H32   H     H_    0.322510 0.039091 0.137990 0.155584
H33   H     H_    0.778893 0.130272 0.682459 0.135995
H34   H     H_    0.137453 0.407350 0.093982 0.107272
H35   H     H_    0.164744 0.943631 0.344706 0.150744
H36   H     H_    0.964225 0.186630 0.112044 0.181894
H37   H     H_    0.798818 0.089138 0.987699 0.168106
H38   H     H_    0.878535 0.920267 0.921640 0.312984
H39   H     H_    0.118357 0.112009 0.091555 0.296343
H40   H     H_    0.885954 0.715635 0.206446 0.316315
H41   H     H_    0.078617 0.197424 0.729355 0.322229
H42   H     H_    0.192917 0.237475 0.689414 0.306968
H43   H     H_    0.925463 0.822348 0.473188 0.307347
H44   H     H_    0.677041 0.535516 0.734980 0.116873
H45   H     H_    0.342430 0.346813 0.191488 0.115400
H46   H     H_    0.535848 0.691202 0.785609 0.103687
H47   H     H_    0.467090 0.169219 0.148767 0.107301
H48   H     H_    0.794903 0.776183 0.044320 0.135785
N1    N     N_R   0.705410 0.966550 0.689210 -0.080336
N2    N     N_R   0.556610 0.796750 0.548620 -0.042975
N3    N     N_R   0.556610 0.951620 0.703500 -0.054358
N4    N     N_R   0.443390 0.048380 0.296500 -0.038652
N5    N     N_R   0.294590 0.131500 0.522480 -0.080266
N6    N     N_R   0.705410 0.868500 0.477520 -0.077561
N7    N     N_R   0.705410 0.023370 0.632390 -0.069042
N8    N     N_R   0.294590 0.976630 0.367610 -0.071702
N9    N     N_R   0.294590 0.033450 0.310790 -0.077697
N10   N     N_R   0.294590 0.188320 0.465660 -0.071559
N11   N     N_R   0.705410 0.811680 0.534340 -0.073622
N12   N     N_R   0.556610 0.157790 0.497330 -0.044220
N13   N     N_R   0.443390 0.842210 0.502670 -0.046476
N14   N     N_R   0.443390 0.997080 0.657540 -0.047581
N15   N     N_R   0.556610 0.002920 0.342460 -0.040285
N16   N     N_R   0.443390 0.203250 0.451380 -0.041300
Ni1   Ni    Ni4+2 0.629830 0.882720 0.617850 0.226460
Ni2   Ni    Ni4+2 0.370170 0.117280 0.382150 0.252094
Ni3   Ni    Ni4+2 0.629830 0.013030 0.487540 0.252987
Ni4   Ni    Ni4+2 0.370170 0.986970 0.512460 0.240145
O1    O     O_3   0.807755 0.918688 0.863661 -0.807189
O2    O     O_3   0.161770 0.133584 0.165046 -0.787705
O3    O     O_2   0.911717 0.869515 0.305856 -0.659155
O4    O     O_R   0.968345 0.697570 0.249793 -0.821144
O5    O     O_2   0.069616 0.082784 0.571119 -0.658476
O6    O     O_R   0.999952 0.224617 0.671719 -0.833078
O7    O     O_3   0.224409 0.173773 0.647920 -0.774597
O8    O     O_3   0.844854 0.866023 0.451843 -0.761467

loop_
_geom_bond_atom_site_label_1
_geom_bond_atom_site_label_2
_ccdc_geom_bond_type
C53   N14   A    
C63   C65   A    
N15   Ni3   S    
N8    N9    A    
C29   C42   A    
N2    N13   A    
C43   H13   S    
C39   C68   S    
C14   C18   A    
C11   C70   A    
C47   C49   A    
C66   O3    D    
N12   N16   A    
H42   O7    S    
C15   C19   A    
N5    Ni4   S    
H39   O2    S    
C17   H15   S    
C14   C21   A    
C35   C37   A    
C24   C26   D    
C38   C42   A    
C41   C56   A    
C3    H46   S    
N10   Ni2   S    
C41   H26   S    
N14   Ni4   S    
C16   H14   S    
C33   C36   A    
C56   C57   A    
C68   O5    D    
C7    C9    A    
C1    N1    A    
H40   O4    S    
C2    C13   A    
C62   C64   A    
N11   Ni1   S    
C38   C66   S    
C22   C25   D    
C35   C49   S    
C12   O2    S    
C19   C67   S    
C4    H47   S    
C10   H4    S    
C63   H35   S    
C44   H22   S    
C44   C47   A    
C11   H23   S    
C59   N4    A    
C48   C50   A    
C15   H6    S    
C52   H36   S    
C12   N9    A    
C23   C60   A    
C7    H48   S    
C40   C45   A    
C42   H11   S    
C9    H3    S    
C27   C51   D    
C45   C47   S    
C15   C20   A    
C37   C39   A    
C46   C48   A    
C8    H2    S    
C26   H7    S    
C37   H21   S    
C17   N11   A    
C51   C52   S    
C32   C35   A    
N6    Ni3   S    
C3    C70   A    
N9    Ni2   S    
C4    C6    A    
C41   N13   A    
C39   C43   A    
C53   H27   S    
C25   C26   S    
C57   H30   S    
C34   C61   A    
N1    Ni1   S    
C25   H8    S    
H43   O8    S    
C60   N5    A    
C2    C4    A    
C61   O8    S    
N4    N15   A    
N16   Ni2   S    
C62   N7    A    
C16   N10   A    
C2    H45   S    
C24   H9    S    
C32   H19   S    
C46   H24   S    
C31   C33   A    
C58   H31   S    
N3    Ni1   S    
C13   H34   S    
C9    C11   A    
N4    Ni2   S    
C29   H16   S    
H41   O6    S    
C59   C69   A    
C57   N2    A    
N1    N7    A    
C8    C10   A    
C16   C23   A    
C61   N6    A    
C54   N15   A    
C46   C49   A    
C30   C43   A    
C28   H1    S    
C60   O7    S    
N3    N14   A    
C1    C64   A    
C5    C7    A    
C62   H33   S    
C36   H20   S    
C48   C56   S    
C40   N12   A    
N8    Ni4   S    
C58   N3    A    
C31   H18   S    
C19   C21   A    
C59   H32   S    
C27   H12   S    
C3    C5    A    
C10   C13   A    
C1    O1    S    
H38   O1    S    
C6    C8    A    
C66   O4    S    
C55   N16   A    
C6    C20   S    
C12   C65   A    
C70   H44   S    
N2    Ni1   S    
N7    Ni3   S    
C14   H5    S    
C36   C38   A    
C28   C65   S    
C33   C50   S    
C22   H10   S    
C29   C31   A    
N13   Ni4   S    
C30   C32   A    
C28   C52   D    
N5    N10   A    
C54   C69   A    
C18   C69   S    
N6    N11   A    
C68   O6    S    
C18   C20   A    
C53   C67   A    
C24   C34   S    
C63   N8    A    
C27   C64   S    
C58   C67   A    
C5    C21   S    
C45   C55   A    
C44   C50   A    
C51   H37   S    
C17   C34   A    
C55   H29   S    
C22   C23   S    
C54   H28   S    
C40   H25   S    
C30   H17   S    
N12   Ni3   S    
