data_mof_unit_19568.cif
_audit_creation_date              2012-12-10T18:28:23-0500
_audit_creation_method            fapswitch 2.2
_symmetry_space_group_name_H-M    P1
_symmetry_Int_Tables_number       1
_space_group_crystal_system       triclinic
_cell_length_a                    23.438819
_cell_length_b                    19.941062
_cell_length_c                    14.978922
_cell_angle_alpha                 90.000338
_cell_angle_beta                  99.081063
_cell_angle_gamma                 90.000015
_cell_volume                      6913.32113402

loop_
_atom_site_label
_atom_site_type_symbol
_atom_type_description
_atom_site_fract_x
_atom_site_fract_y
_atom_site_fract_z
_atom_type_partial_charge
C1    C     C_R   0.575478 0.087568 0.553793 0.864535
C2    C     C_R   0.424910 0.911898 0.446569 0.876833
C3    C     C_R   0.424521 0.087567 0.446207 0.864525
C4    C     C_R   0.575090 0.911898 0.553431 0.876838
C5    C     C_R   0.075479 0.587567 0.553793 0.864541
C6    C     C_R   0.924909 0.411899 0.446568 0.876839
C7    C     C_R   0.924521 0.587568 0.446207 0.864534
C8    C     C_R   0.075091 0.411899 0.553431 0.876839
C9    C     C_R   0.206145 0.174728 0.631961 0.470552
C10   C     C_R   0.724401 0.737898 0.310549 0.467400
C11   C     C_R   0.793850 0.174732 0.368044 0.470518
C12   C     C_R   0.275618 0.737863 0.689448 0.467391
C13   C     C_R   0.706142 0.674725 0.631947 0.470525
C14   C     C_R   0.224390 0.237878 0.310549 0.467397
C15   C     C_R   0.293837 0.674740 0.368017 0.470522
C16   C     C_R   0.775598 0.237900 0.689448 0.467405
C17   C     C_R   0.627965 0.002297 0.202768 -0.332117
C18   C     C_R   0.372036 0.002307 0.797232 -0.332128
C19   C     C_R   0.127964 0.502293 0.202768 -0.332116
C20   C     C_R   0.872035 0.502288 0.797232 -0.332126
C21   C     C_R   0.606919 0.000720 0.283919 0.070467
C22   C     C_R   0.393081 0.000727 0.716081 0.070480
C23   C     C_R   0.106919 0.500722 0.283919 0.070476
C24   C     C_R   0.893081 0.500718 0.716081 0.070474
C25   C     C_R   0.509938 0.000993 0.208402 -0.082515
C26   C     C_R   0.490062 0.000990 0.791598 -0.082517
C27   C     C_R   0.009938 0.500987 0.208402 -0.082511
C28   C     C_R   0.990062 0.500989 0.791598 -0.082515
C29   C     C_R   0.528254 0.002815 0.123727 0.002927
C30   C     C_R   0.471746 0.002816 0.876273 0.002927
C31   C     C_R   0.028254 0.502802 0.123727 0.002924
C32   C     C_R   0.971745 0.502802 0.876273 0.002926
C33   C     C_R   0.588728 0.003309 0.122220 0.177355
C34   C     C_R   0.411273 0.003316 0.877780 0.177360
C35   C     C_R   0.088727 0.503298 0.122220 0.177360
C36   C     C_R   0.911272 0.503294 0.877780 0.177356
C37   C     C_R   0.488944 0.003563 0.041595 0.084245
C38   C     C_R   0.511057 0.003561 0.958405 0.084246
C39   C     C_R   0.988943 0.503542 0.041595 0.084243
C40   C     C_R   0.011056 0.503544 0.958405 0.084243
C41   C     C_R   0.571627 0.004374 0.960013 -0.242929
C42   C     C_R   0.428373 0.004383 0.039987 -0.242931
C43   C     C_R   0.071626 0.504358 0.960013 -0.242927
C44   C     C_R   0.928373 0.504351 0.039987 -0.242929
C45   C     C_R   0.609564 0.004337 0.040597 -0.216606
C46   C     C_R   0.390437 0.004349 0.959403 -0.216606
C47   C     C_R   0.109563 0.504323 0.040597 -0.216608
C48   C     C_R   0.890436 0.504316 0.959403 -0.216609
C49   C     C_R   0.613031 0.854891 0.581094 -0.159906
C50   C     C_R   0.376793 0.132045 0.410546 -0.161902
C51   C     C_R   0.386968 0.854891 0.418905 -0.159922
C52   C     C_R   0.623203 0.132051 0.589454 -0.161900
C53   C     C_R   0.113031 0.354891 0.581094 -0.159908
C54   C     C_R   0.876797 0.632050 0.410547 -0.161899
C55   C     C_R   0.886967 0.354893 0.418903 -0.159906
C56   C     C_R   0.123206 0.632045 0.589455 -0.161895
C57   C     C_R   0.637877 0.757007 0.675453 -0.163309
C58   C     C_R   0.312052 0.179189 0.283974 -0.153913
C59   C     C_R   0.362104 0.757022 0.324520 -0.163314
C60   C     C_R   0.687938 0.179206 0.716024 -0.153905
C61   C     C_R   0.137882 0.257013 0.675463 -0.163290
C62   C     C_R   0.812063 0.679206 0.283975 -0.153907
C63   C     C_R   0.862116 0.257011 0.324540 -0.163314
C64   C     C_R   0.187955 0.679178 0.716027 -0.153908
C65   C     C_R   0.606411 0.816157 0.657086 -0.302148
C66   C     C_R   0.361697 0.142925 0.317276 -0.305689
C67   C     C_R   0.393576 0.816168 0.342897 -0.302149
C68   C     C_R   0.638296 0.142935 0.682723 -0.305687
C69   C     C_R   0.106416 0.316162 0.657093 -0.302162
C70   C     C_R   0.861705 0.642936 0.317277 -0.305687
C71   C     C_R   0.893585 0.316160 0.342909 -0.302146
C72   C     C_R   0.138308 0.642917 0.682726 -0.305688
C73   C     C_R   0.652125 0.834674 0.524793 0.460757
C74   C     C_R   0.342520 0.158810 0.470104 0.442414
C75   C     C_R   0.347880 0.834666 0.475213 0.460771
C76   C     C_R   0.657474 0.158818 0.529895 0.442401
C77   C     C_R   0.152122 0.334669 0.524790 0.460758
C78   C     C_R   0.842523 0.658815 0.470104 0.442399
C79   C     C_R   0.847872 0.334677 0.475204 0.460758
C80   C     C_R   0.157475 0.658817 0.529896 0.442408
C81   C     C_R   0.675010 0.769651 0.533545 -0.081379
C82   C     C_R   0.287337 0.183122 0.435657 -0.082902
C83   C     C_R   0.324990 0.769646 0.466446 -0.081376
C84   C     C_R   0.712655 0.183134 0.564342 -0.082915
C85   C     C_R   0.175007 0.269646 0.533548 -0.081385
C86   C     C_R   0.787343 0.683132 0.435655 -0.082911
C87   C     C_R   0.824987 0.269655 0.466450 -0.081378
C88   C     C_R   0.212660 0.683123 0.564338 -0.082918
C89   C     C_R   0.672920 0.733359 0.614307 0.004036
C90   C     C_R   0.274275 0.200131 0.342701 0.014581
C91   C     C_R   0.327067 0.733367 0.385669 0.004036
C92   C     C_R   0.725715 0.200148 0.657297 0.014583
C93   C     C_R   0.172922 0.233360 0.614316 0.004062
C94   C     C_R   0.774285 0.700147 0.342701 0.014581
C95   C     C_R   0.827074 0.233364 0.385686 0.004030
C96   C     C_R   0.225728 0.700122 0.657296 0.014581
C97   C     C_R   0.703845 0.742376 0.466648 0.002605
C98   C     C_R   0.246453 0.194603 0.492920 -0.001529
C99   C     C_R   0.296159 0.742362 0.533343 0.002592
C100  C     C_R   0.753539 0.194614 0.507081 -0.001536
C101  C     C_R   0.203840 0.242366 0.466651 0.002594
C102  C     C_R   0.746456 0.694610 0.492914 -0.001535
C103  C     C_R   0.796151 0.242379 0.533347 0.002605
C104  C     C_R   0.253540 0.694607 0.507070 -0.001540
C105  C     C_R   0.246053 0.158924 0.574331 -0.270952
C106  C     C_R   0.690374 0.760463 0.374689 -0.292341
C107  C     C_R   0.753941 0.158932 0.425672 -0.270871
C108  C     C_R   0.309642 0.760433 0.625307 -0.292320
C109  C     C_R   0.746052 0.658925 0.574320 -0.270889
C110  C     C_R   0.190364 0.260446 0.374690 -0.292339
C111  C     C_R   0.253932 0.658936 0.425650 -0.270887
C112  C     C_R   0.809624 0.260466 0.625307 -0.292347
H1    H     H_    0.591679 0.005396 0.900230 0.139573
H2    H     H_    0.408321 0.005410 0.099770 0.139571
H3    H     H_    0.091679 0.505377 0.900230 0.139571
H4    H     H_    0.908320 0.505367 0.099770 0.139574
H5    H     H_    0.388219 0.123602 0.270092 0.184513
H6    H     H_    0.576887 0.831395 0.702099 0.186636
H7    H     H_    0.611775 0.123611 0.729907 0.184516
H8    H     H_    0.423094 0.831412 0.297879 0.186636
H9    H     H_    0.888227 0.623614 0.270095 0.184518
H10   H     H_    0.076895 0.331404 0.702108 0.186639
H11   H     H_    0.111789 0.623589 0.729911 0.184512
H12   H     H_    0.923109 0.331397 0.297897 0.186635
H13   H     H_    0.633656 0.729267 0.736227 0.190186
H14   H     H_    0.302812 0.189238 0.212101 0.196807
H15   H     H_    0.366316 0.729293 0.263734 0.190184
H16   H     H_    0.697177 0.189259 0.787896 0.196808
H17   H     H_    0.133664 0.229278 0.736243 0.190200
H18   H     H_    0.802826 0.689260 0.212104 0.196808
H19   H     H_    0.866336 0.229272 0.263763 0.190182
H20   H     H_    0.197200 0.689220 0.787901 0.196806
H21   H     H_    0.275161 0.117312 0.591726 0.193948
H22   H     H_    0.651376 0.788785 0.353732 0.191530
H23   H     H_    0.724835 0.117317 0.408274 0.193943
H24   H     H_    0.348645 0.788745 0.646266 0.191526
H25   H     H_    0.775157 0.617310 0.591716 0.193944
H26   H     H_    0.151364 0.288764 0.353732 0.191531
H27   H     H_    0.224820 0.617327 0.408245 0.193947
H28   H     H_    0.848622 0.288788 0.646262 0.191532
H29   H     H_    0.655653 0.004814 0.038933 0.147542
H30   H     H_    0.344347 0.004832 0.961067 0.147542
H31   H     H_    0.155652 0.504801 0.038933 0.147539
H32   H     H_    0.844347 0.504790 0.961067 0.147541
H33   H     H_    0.534569 0.000126 0.782310 0.130652
H34   H     H_    0.465432 0.000134 0.217690 0.130650
H35   H     H_    0.034568 0.500134 0.782309 0.130651
H36   H     H_    0.965431 0.500131 0.217692 0.130651
H37   H     H_    0.363543 0.000282 0.652915 0.153379
H38   H     H_    0.636457 0.000271 0.347085 0.153391
H39   H     H_    0.863543 0.500272 0.652915 0.153395
H40   H     H_    0.136457 0.500277 0.347085 0.153376
H41   H     H_    0.674232 0.002646 0.202934 0.138795
H42   H     H_    0.325768 0.002663 0.797066 0.138782
H43   H     H_    0.174232 0.502645 0.202933 0.138781
H44   H     H_    0.825768 0.502636 0.797066 0.138793
N1    N     N_R   0.549130 0.000000 0.284090 -0.103969
N2    N     N_R   0.450870 0.000000 0.715910 -0.103966
N3    N     N_R   0.049130 0.500000 0.284090 -0.103966
N4    N     N_R   0.950870 0.500000 0.715910 -0.103970
O1    O     O_R   0.541320 0.066090 0.608930 -0.627215
O2    O     O_R   0.458680 0.933910 0.391070 -0.628291
O3    O     O_R   0.458680 0.066090 0.391070 -0.627213
O4    O     O_R   0.541320 0.933910 0.608930 -0.628293
O5    O     O_R   0.041320 0.566090 0.608930 -0.627221
O6    O     O_R   0.958680 0.433910 0.391070 -0.628295
O7    O     O_R   0.958680 0.566090 0.391070 -0.627208
O8    O     O_R   0.041320 0.433910 0.608930 -0.628294
O9    O     O_R   0.572880 0.066110 0.470280 -0.565265
O10   O     O_R   0.427120 0.933890 0.529720 -0.564436
O11   O     O_R   0.427120 0.066110 0.529720 -0.565277
O12   O     O_R   0.572880 0.933890 0.470280 -0.564444
O13   O     O_R   0.072880 0.566110 0.470280 -0.565269
O14   O     O_R   0.927120 0.433890 0.529720 -0.564442
O15   O     O_R   0.927120 0.566110 0.529720 -0.565268
O16   O     O_R   0.072880 0.433890 0.470280 -0.564442
Zn1   Zn    Zn3+2 0.478910 0.000000 0.592580 0.953323
Zn2   Zn    Zn3+2 0.521090 0.000000 0.407420 0.953322
Zn3   Zn    Zn3+2 0.978910 0.500000 0.592580 0.953319
Zn4   Zn    Zn3+2 0.021090 0.500000 0.407420 0.953329
O17   O     O_3   0.204559 0.139246 0.711416 -0.652101
C113  C     C_3   0.191816 0.070502 0.693945 0.069763
H45   H     H_    0.197546 0.044421 0.760295 0.170512
H46   H     H_    0.222530 0.045959 0.654876 0.115855
C114  C     C_3   0.129104 0.059987 0.647710 -0.372730
H47   H     H_    0.099227 0.083747 0.689056 0.230650
H48   H     H_    0.122361 0.083861 0.579822 0.214296
C115  C     C_3   0.114724 0.985498 0.636305 -0.957760
H49   H     H_    0.143737 0.960949 0.594234 0.256482
H50   H     H_    0.069374 0.979449 0.602277 0.269733
H51   H     H_    0.119562 0.960406 0.703282 0.266212
O18   O     O_3   0.711585 0.749533 0.217262 -0.662996
C116  C     C_3   0.671544 0.801653 0.190441 0.084490
H52   H     H_    0.683076 0.824072 0.127769 0.163825
H53   H     H_    0.674678 0.844020 0.239367 0.138421
C117  C     C_3   0.610203 0.773050 0.167110 -0.357103
H54   H     H_    0.608403 0.738526 0.108467 0.230251
H55   H     H_    0.598761 0.743639 0.224655 0.218530
C118  C     C_3   0.565640 0.828528 0.143344 -0.939609
H56   H     H_    0.565582 0.862407 0.202143 0.276582
H57   H     H_    0.521937 0.806172 0.125571 0.261866
H58   H     H_    0.575398 0.857780 0.084494 0.272313
O19   O     O_3   0.795428 0.139247 0.288590 -0.652084
C119  C     C_3   0.808226 0.070520 0.306084 0.069741
H59   H     H_    0.802421 0.044405 0.239755 0.170466
H60   H     H_    0.777593 0.045972 0.345296 0.115867
C120  C     C_3   0.870985 0.060071 0.352133 -0.372623
H61   H     H_    0.900781 0.083800 0.310621 0.230609
H62   H     H_    0.877815 0.084017 0.419976 0.214326
C121  C     C_3   0.885408 0.985599 0.363630 -0.957764
H63   H     H_    0.856494 0.961092 0.405900 0.256507
H64   H     H_    0.930802 0.979599 0.397482 0.269740
H65   H     H_    0.880459 0.960432 0.296696 0.266198
O20   O     O_3   0.288447 0.749480 0.782738 -0.662991
C122  C     C_3   0.328470 0.801617 0.809559 0.084481
H66   H     H_    0.316928 0.824030 0.872228 0.163821
H67   H     H_    0.325326 0.843984 0.760630 0.138424
C123  C     C_3   0.389819 0.773041 0.832895 -0.357086
H68   H     H_    0.391628 0.738517 0.891540 0.230252
H69   H     H_    0.401272 0.743636 0.775352 0.218534
C124  C     C_3   0.434364 0.828539 0.856660 -0.939622
H70   H     H_    0.434413 0.862416 0.797859 0.276591
H71   H     H_    0.478073 0.806201 0.874440 0.261869
H72   H     H_    0.424594 0.857786 0.915507 0.272313
O21   O     O_3   0.704560 0.639239 0.711398 -0.652089
C125  C     C_3   0.691773 0.570509 0.693905 0.069750
H73   H     H_    0.697562 0.544400 0.760238 0.170478
H74   H     H_    0.722424 0.545964 0.654724 0.115868
C126  C     C_3   0.629025 0.560047 0.647814 -0.372648
H75   H     H_    0.599211 0.583781 0.689291 0.230620
H76   H     H_    0.622214 0.583978 0.579962 0.214319
C127  C     C_3   0.614611 0.485571 0.636332 -0.957767
H77   H     H_    0.643546 0.461057 0.594103 0.256500
H78   H     H_    0.569226 0.479561 0.602444 0.269742
H79   H     H_    0.619537 0.460418 0.703275 0.266204
O22   O     O_3   0.211569 0.249506 0.217261 -0.662996
C128  C     C_3   0.171534 0.301630 0.190439 0.084487
H80   H     H_    0.183068 0.324046 0.127767 0.163824
H81   H     H_    0.174671 0.343999 0.239365 0.138424
C129  C     C_3   0.110190 0.273036 0.167109 -0.357100
H82   H     H_    0.108386 0.238511 0.108466 0.230252
H83   H     H_    0.098745 0.243628 0.224655 0.218531
C130  C     C_3   0.065633 0.328520 0.143345 -0.939615
H84   H     H_    0.065579 0.362399 0.202144 0.276584
H85   H     H_    0.021928 0.306169 0.125573 0.261867
H86   H     H_    0.075393 0.357768 0.084493 0.272315
O23   O     O_3   0.295406 0.639267 0.288553 -0.652083
C131  C     C_3   0.308195 0.570534 0.306024 0.069750
H87   H     H_    0.302388 0.544431 0.239686 0.170468
H88   H     H_    0.277557 0.545985 0.345226 0.115861
C132  C     C_3   0.370952 0.560068 0.352074 -0.372634
H89   H     H_    0.400752 0.583802 0.310575 0.230613
H90   H     H_    0.377782 0.583998 0.419928 0.214324
C133  C     C_3   0.385365 0.485591 0.363542 -0.957757
H91   H     H_    0.356445 0.461078 0.405797 0.256503
H92   H     H_    0.430757 0.479578 0.397398 0.269742
H93   H     H_    0.380417 0.460439 0.296598 0.266197
O24   O     O_3   0.788414 0.249537 0.782735 -0.662999
C134  C     C_3   0.828461 0.301651 0.809557 0.084493
H94   H     H_    0.816933 0.324069 0.872232 0.163828
H95   H     H_    0.825328 0.344020 0.760634 0.138424
C135  C     C_3   0.889800 0.273041 0.832879 -0.357108
H96   H     H_    0.891600 0.238515 0.891520 0.230251
H97   H     H_    0.901238 0.243631 0.775330 0.218531
C136  C     C_3   0.934368 0.328515 0.856645 -0.939605
H98   H     H_    0.934426 0.362396 0.797850 0.276580
H99   H     H_    0.978069 0.306154 0.874411 0.261867
H100  H     H_    0.924616 0.357764 0.915502 0.272313
O25   O     O_3   0.363600 0.161487 0.562079 -0.646123
C137  C     C_3   0.380297 0.227903 0.587645 0.105339
H101  H     H_    0.377268 0.233412 0.660545 0.172510
H102  H     H_    0.351135 0.266775 0.551413 0.119999
C138  C     C_3   0.442910 0.240790 0.574747 -0.370086
H103  H     H_    0.471618 0.202568 0.612695 0.241105
H104  H     H_    0.446397 0.236483 0.501943 0.208616
C139  C     C_3   0.462906 0.310616 0.607675 -0.962542
H105  H     H_    0.435703 0.349575 0.568625 0.264715
H106  H     H_    0.508459 0.318304 0.598075 0.273934
H107  H     H_    0.460235 0.316210 0.680677 0.267621
O26   O     O_3   0.667915 0.878898 0.461255 -0.653149
C140  C     C_3   0.722832 0.907065 0.493397 0.059327
H108  H     H_    0.743324 0.919533 0.433454 0.154315
H109  H     H_    0.752795 0.871561 0.535114 0.130723
C141  C     C_3   0.716607 0.971854 0.546228 -0.358136
H110  H     H_    0.687204 0.006980 0.503684 0.233252
H111  H     H_    0.697678 0.960300 0.607926 0.209436
C142  C     C_3   0.774905 0.006039 0.574380 -0.958767
H112  H     H_    0.805192 0.971827 0.616987 0.266401
H113  H     H_    0.769055 0.051835 0.614085 0.277291
H114  H     H_    0.793837 0.020778 0.513862 0.260370
O27   O     O_3   0.636394 0.161492 0.437920 -0.646121
C143  C     C_3   0.619694 0.227907 0.412353 0.105346
H115  H     H_    0.622726 0.233416 0.339454 0.172507
H116  H     H_    0.648853 0.266782 0.448587 0.120004
C144  C     C_3   0.557079 0.240788 0.425244 -0.370072
H117  H     H_    0.528374 0.202568 0.387284 0.241103
H118  H     H_    0.553587 0.236474 0.498044 0.208617
C145  C     C_3   0.537084 0.310616 0.392324 -0.962560
H119  H     H_    0.564282 0.349572 0.431388 0.264720
H120  H     H_    0.491528 0.318300 0.401915 0.273932
H121  H     H_    0.539760 0.316218 0.319326 0.267622
O28   O     O_3   0.332101 0.878880 0.538773 -0.653138
C146  C     C_3   0.277184 0.907053 0.506658 0.059336
H122  H     H_    0.256715 0.919545 0.566617 0.154302
H123  H     H_    0.247205 0.871543 0.464981 0.130727
C147  C     C_3   0.283399 0.971824 0.453784 -0.358192
H124  H     H_    0.312829 0.006950 0.496281 0.233281
H125  H     H_    0.302290 0.960244 0.392059 0.209433
C148  C     C_3   0.225103 0.006027 0.425689 -0.958751
H126  H     H_    0.194785 0.971813 0.383140 0.266407
H127  H     H_    0.230944 0.051804 0.385941 0.277284
H128  H     H_    0.206214 0.020800 0.486232 0.260414
O29   O     O_3   0.863599 0.661484 0.562081 -0.646126
C149  C     C_3   0.880298 0.727898 0.587659 0.105343
H129  H     H_    0.877262 0.733402 0.660557 0.172513
H130  H     H_    0.851141 0.766774 0.551426 0.119997
C150  C     C_3   0.942914 0.740781 0.574778 -0.370079
H131  H     H_    0.971617 0.702553 0.612723 0.241115
H132  H     H_    0.946408 0.736482 0.501976 0.208612
C151  C     C_3   0.962913 0.810602 0.607726 -0.962544
H133  H     H_    0.935715 0.849567 0.568683 0.264717
H134  H     H_    0.008469 0.818289 0.598134 0.273928
H135  H     H_    0.960240 0.816186 0.680728 0.267623
O30   O     O_3   0.167907 0.378887 0.461241 -0.653143
C152  C     C_3   0.222826 0.407054 0.493366 0.059333
H136  H     H_    0.243307 0.419527 0.433414 0.154317
H137  H     H_    0.252795 0.371547 0.535068 0.130720
C153  C     C_3   0.216610 0.471838 0.546211 -0.358159
H138  H     H_    0.187194 0.506964 0.503688 0.233259
H139  H     H_    0.197699 0.460277 0.607924 0.209435
C154  C     C_3   0.274908 0.506029 0.574330 -0.958746
H140  H     H_    0.305208 0.471817 0.616914 0.266398
H141  H     H_    0.269066 0.551821 0.614049 0.277293
H142  H     H_    0.293821 0.520777 0.513797 0.260371
O31   O     O_3   0.136388 0.661503 0.437923 -0.646121
C155  C     C_3   0.119695 0.727923 0.412373 0.105344
H143  H     H_    0.122722 0.733438 0.339473 0.172509
H144  H     H_    0.148862 0.766790 0.448609 0.120007
C156  C     C_3   0.057085 0.740814 0.425280 -0.370082
H145  H     H_    0.028371 0.702604 0.387317 0.241087
H146  H     H_    0.053599 0.736493 0.498082 0.208624
C157  C     C_3   0.037098 0.810650 0.392381 -0.962561
H147  H     H_    0.064305 0.849597 0.431449 0.264723
H148  H     H_    0.991545 0.818341 0.401982 0.273934
H149  H     H_    0.039770 0.816260 0.319382 0.267623
O32   O     O_3   0.832083 0.378901 0.538743 -0.653149
C158  C     C_3   0.777167 0.407069 0.506603 0.059326
H150  H     H_    0.756676 0.419539 0.566546 0.154313
H151  H     H_    0.747203 0.371564 0.464887 0.130726
C159  C     C_3   0.783392 0.471857 0.453770 -0.358137
H152  H     H_    0.812796 0.506983 0.496312 0.233255
H153  H     H_    0.802321 0.460301 0.392072 0.209437
C160  C     C_3   0.725094 0.506041 0.425619 -0.958768
H154  H     H_    0.694806 0.471829 0.383014 0.266402
H155  H     H_    0.730944 0.551836 0.385911 0.277291
H156  H     H_    0.706164 0.520783 0.486137 0.260381

loop_
_geom_bond_atom_site_label_1
_geom_bond_atom_site_label_2
_ccdc_geom_bond_type
C19   H43   S    
O27   C143  S    
C12   O20   S    
C53   C69   A    
C6    O6    A    
C111  H27   S    
C146  H123  S    
C140  C141  S    
C115  H51   S    
C141  H110  S    
C155  C156  S    
C68   H7    S    
C13   O21   S    
C10   C94   A    
C47   H31   S    
C138  C139  S    
C33   C45   A    
C30   C38   A    
C37   C42   A    
C113  H45   S    
C14   C90   A    
C76   O27   S    
C133  H92   S    
C8    O8    A    
C40   C43   A    
O30   C152  S    
C56   C72   A    
C120  C121  S    
C65   H6    S    
C142  H113  S    
C67   H8    S    
C60   C92   A    
O7    Zn4   S    
C17   H41   S    
C118  H56   S    
C82   C98   A    
C79   C87   A    
C160  H155  S    
C131  H88   S    
C25   C29   A    
C27   C31   A    
C84   C100  A    
C151  H135  S    
C28   C32   A    
C12   C108  A    
C157  H147  S    
C155  H143  S    
C6    O14   A    
C149  H129  S    
C17   C21   A    
C103  C112  A    
C113  C114  S    
C150  C151  S    
C19   C23   A    
C122  H66   S    
C37   C38   A    
C24   H39   S    
C16   O24   S    
C146  H122  S    
C54   C70   A    
O3    Zn2   S    
C127  H78   S    
C147  H124  S    
C59   C91   A    
C87   C103  A    
C63   C71   A    
C49   C73   A    
C145  H119  S    
O1    Zn1   S    
O8    Zn3   S    
C105  H21   S    
C28   H35   S    
C141  C142  S    
C41   H1    S    
C117  H54   S    
C134  H95   S    
C157  H149  S    
C135  H97   S    
C83   C91   A    
C4    C49   S    
C61   C69   A    
C143  H116  S    
C80   C88   A    
C19   C35   A    
C26   N2    A    
C157  H148  S    
C159  H152  S    
C15   C91   A    
O31   C155  S    
C44   H4    S    
C116  H52   S    
C41   C45   A    
C102  C109  A    
C43   C47   A    
C55   C71   A    
C44   C48   A    
C154  H141  S    
C29   C33   A    
C152  C153  S    
C62   H18   S    
N3    Zn4   S    
C2    O2    A    
C114  H47   S    
C144  H118  S    
C99   C108  A    
C48   H32   S    
C32   C36   A    
C126  C127  S    
C50   C74   A    
C57   H13   S    
C114  H48   S    
C59   H15   S    
C28   N4    A    
O22   C128  S    
C115  H50   S    
C152  H137  S    
C13   C109  A    
C59   C67   A    
C85   C93   A    
C42   H2    S    
C87   C95   A    
C118  H58   S    
C34   C46   A    
C18   H42   S    
C61   H17   S    
C130  H86   S    
C77   C85   A    
C128  H80   S    
C117  C118  S    
C88   C104  A    
C3    C50   S    
O21   C125  S    
C148  H127  S    
C30   C34   A    
O26   C140  S    
C64   C96   A    
C38   C41   A    
C122  C123  S    
C39   C40   A    
C132  C133  S    
C133  H93   S    
C151  H134  S    
C124  H70   S    
C50   C66   A    
C123  H69   S    
C116  C117  S    
C51   C67   A    
C136  H99   S    
C26   C30   A    
C121  H64   S    
O5    Zn3   S    
C10   C106  A    
O6    Zn4   S    
C86   C102  A    
C123  C124  S    
O12   Zn2   S    
C14   C110  A    
C7    O7    A    
C4    O12   A    
C18   C22   A    
C5    O13   A    
C139  H106  S    
C153  H138  S    
C52   C76   A    
C8    C53   S    
C8    O16   A    
C58   H14   S    
C135  H96   S    
C140  H109  S    
C121  H65   S    
C56   C80   A    
C141  H111  S    
O24   C134  S    
C145  H120  S    
C158  C159  S    
C25   N1    A    
C69   H10   S    
C129  H82   S    
C138  H104  S    
C36   C48   A    
N1    Zn2   S    
C154  H142  S    
C113  H46   S    
O2    Zn2   S    
C9    O17   S    
O16   Zn4   S    
C156  C157  S    
C139  H105  S    
C125  H73   S    
C128  C129  S    
C120  H62   S    
O11   Zn1   S    
C84   C92   A    
C35   C47   A    
C23   H40   S    
C88   C96   A    
C5    C56   S    
C6    C55   S    
C76   C84   A    
C135  C136  S    
C160  H154  S    
C132  H89   S    
C46   H30   S    
O17   C113  S    
C57   C89   A    
C124  H72   S    
C61   C93   A    
C149  H130  S    
C130  H84   S    
C63   C95   A    
C42   C46   A    
C73   C81   A    
C150  H132  S    
C112  H28   S    
C107  H23   S    
C64   H20   S    
C27   H36   S    
C66   H5    S    
C147  H125  S    
C25   H34   S    
C63   H19   S    
C97   C102  A    
C3    O3    A    
C81   C89   A    
C149  C150  S    
C99   C104  A    
C22   H37   S    
C1    O1    A    
C83   C99   A    
O25   C137  S    
C45   H29   S    
C137  C138  S    
C17   C33   A    
C74   C82   A    
C153  C154  S    
C146  C147  S    
C147  C148  S    
O10   Zn1   S    
C120  H61   S    
C155  H144  S    
C144  H117  S    
C22   N2    A    
O13   Zn4   S    
C129  C130  S    
C10   O18   S    
C145  H121  S    
C53   C77   A    
C154  H140  S    
C133  H91   S    
C55   C79   A    
C156  H145  S    
C139  H107  S    
C60   H16   S    
C142  H114  S    
C11   O19   S    
C159  H153  S    
C58   C90   A    
C39   C44   A    
C2    O10   A    
C97   C106  A    
C117  H55   S    
C15   O23   S    
C16   C92   A    
C62   C94   A    
C72   H11   S    
C31   C35   A    
C158  H150  S    
C160  H156  S    
C131  H87   S    
C16   C112  A    
C79   O32   S    
C57   C65   A    
C98   C101  A    
C82   C90   A    
C101  C110  A    
C126  H76   S    
O18   C116  S    
C75   C83   A    
O29   C149  S    
C127  H77   S    
C119  C120  S    
C100  C103  A    
C152  H136  S    
C1    C52   S    
C2    C51   S    
C20   C36   A    
C60   C68   A    
C29   C37   A    
C118  H57   S    
C137  H101  S    
C12   C96   A    
C7    C54   S    
C9    C105  A    
C54   C78   A    
O19   C119  S    
C134  C135  S    
C14   O22   S    
C123  H68   S    
C148  H126  S    
C126  H75   S    
C98   C105  A    
C49   C65   A    
C143  H115  S    
N2    Zn1   S    
C51   C75   A    
C108  H24   S    
C122  H67   S    
C132  H90   S    
C159  C160  S    
C80   O31   S    
C109  H25   S    
C86   C94   A    
C43   H3    S    
C58   C66   A    
C20   C24   A    
C116  H53   S    
C7    O15   A    
C4    O4    A    
C5    O5    A    
C136  H98   S    
C52   C68   A    
C131  C132  S    
C78   C86   A    
C32   C40   A    
C78   O29   S    
C62   C70   A    
C74   O25   S    
C144  C145  S    
C73   O26   S    
C15   C111  A    
C71   H12   S    
C153  H139  S    
O20   C122  S    
C114  C115  S    
O15   Zn3   S    
C130  H85   S    
C140  H108  S    
C127  H79   S    
C23   N3    A    
C115  H49   S    
C26   H33   S    
N4    Zn3   S    
C158  H151  S    
C106  H22   S    
C129  H83   S    
C138  H103  S    
C21   H38   S    
C119  H59   S    
C75   O28   S    
C18   C34   A    
C110  H26   S    
C156  H146  S    
C119  H60   S    
C125  H74   S    
C128  H81   S    
C142  H112  S    
C11   C107  A    
C134  H94   S    
C9    C93   A    
O9    Zn2   S    
C85   C101  A    
C148  H128  S    
C11   C95   A    
O28   C146  S    
C100  C107  A    
C20   H44   S    
C13   C89   A    
C21   N1    A    
C143  C144  S    
C104  C111  A    
O23   C131  S    
C24   N4    A    
C125  C126  S    
C151  H133  S    
C124  H71   S    
C70   H9    S    
C3    O11   A    
O32   C158  S    
C81   C97   A    
C1    O9    A    
C77   O30   S    
C31   C39   A    
C137  H102  S    
C64   C72   A    
C150  H131  S    
C136  H100  S    
C27   N3    A    
C121  H63   S    
O14   Zn3   S    
O4    Zn1   S    
