data_mof_unit_45909.cif
_audit_creation_date              2012-12-11T15:39:21-0500
_audit_creation_method            fapswitch 2.2
_symmetry_space_group_name_H-M    P1
_symmetry_Int_Tables_number       1
_space_group_crystal_system       triclinic
_cell_length_a                    17.404603
_cell_length_b                    24.53478
_cell_length_c                    14.853108
_cell_angle_alpha                 90.188507
_cell_angle_beta                  125.40056
_cell_angle_gamma                 89.877092
_cell_volume                      5169.9214588

loop_
_atom_site_label
_atom_site_type_symbol
_atom_type_description
_atom_site_fract_x
_atom_site_fract_y
_atom_site_fract_z
_atom_type_partial_charge
C1    C     C_R   0.312569 0.373254 0.906261 -0.095999
C2    C     C_R   0.647004 0.348687 0.092330 -0.247516
C3    C     C_R   0.812569 0.873254 0.906261 -0.095997
C4    C     C_R   0.147003 0.848687 0.092330 -0.247519
C5    C     C_R   0.317654 0.639803 0.003093 0.073782
C6    C     C_R   0.623679 0.679530 0.999249 0.087874
C7    C     C_R   0.817654 0.139803 0.003093 0.073782
C8    C     C_R   0.123679 0.179530 0.999249 0.087874
C9    C     C_R   0.569821 0.501106 0.370594 0.019637
C10   C     C_R   0.551752 0.500680 0.726544 0.013851
C11   C     C_R   0.069821 0.001106 0.370594 0.019636
C12   C     C_R   0.051752 0.000680 0.726544 0.013851
C13   C     C_R   0.198074 0.501441 0.632596 0.055766
C14   C     C_R   0.824810 0.500853 0.280743 0.068103
C15   C     C_R   0.698074 0.001441 0.632596 0.055766
C16   C     C_R   0.324810 0.000853 0.280743 0.068104
C17   C     C_R   0.068924 0.553510 0.473604 0.050101
C18   C     C_R   0.973897 0.552542 0.391285 -0.057796
C19   C     C_R   0.568924 0.053510 0.473604 0.050103
C20   C     C_R   0.473897 0.052542 0.391285 -0.057793
C21   C     C_R   0.117559 0.504206 0.517316 0.058166
C22   C     C_R   0.926771 0.503477 0.342181 0.106401
C23   C     C_R   0.617559 0.004206 0.517316 0.058166
C24   C     C_R   0.426771 0.003477 0.342181 0.106401
C25   C     C_R   0.076612 0.456384 0.454315 -0.155428
C26   C     C_R   0.981096 0.456185 0.365764 -0.183163
C27   C     C_R   0.576612 0.956384 0.454315 -0.155428
C28   C     C_R   0.481096 0.956185 0.365764 -0.183162
C29   C     C_3   0.954024 0.599608 0.440104 0.205244
C30   C     C_3   0.059055 0.602225 0.527786 0.184879
C31   C     C_3   0.454024 0.099608 0.440103 0.205241
C32   C     C_3   0.559055 0.102225 0.527786 0.184877
C33   C     C_R   0.163926 0.676289 0.945866 -0.396296
C34   C     C_R   0.740047 0.716439 0.980836 -0.373798
C35   C     C_R   0.663928 0.176288 0.945871 -0.396292
C36   C     C_R   0.240046 0.216440 0.980835 -0.373802
C37   C     C_R   0.611000 0.220139 0.944882 0.652447
C38   C     C_R   0.290677 0.260101 0.982598 0.640147
C39   C     C_R   0.110997 0.720139 0.944880 0.652460
C40   C     C_R   0.790678 0.760100 0.982598 0.640148
C41   C     C_R   0.661222 0.266825 0.006726 0.013640
C42   C     C_R   0.265116 0.312404 0.994505 0.031927
C43   C     C_R   0.161220 0.766823 0.006729 0.013639
C44   C     C_R   0.765116 0.812403 0.994505 0.031925
C45   C     C_R   0.404991 0.624864 0.094217 -0.148142
C46   C     C_R   0.560095 0.649904 0.907662 -0.144869
C47   C     C_R   0.904991 0.124864 0.094217 -0.148142
C48   C     C_R   0.060094 0.149904 0.907662 -0.144869
C49   C     C_R   0.759420 0.269107 0.071386 -0.260957
C50   C     C_R   0.195083 0.321560 0.011104 -0.190364
C51   C     C_R   0.259418 0.769102 0.071398 -0.260960
C52   C     C_R   0.695083 0.821560 0.011103 -0.190361
C53   C     C_R   0.309445 0.726228 0.072342 -0.157567
C54   C     C_R   0.647428 0.777423 0.013585 -0.157624
C55   C     C_R   0.809447 0.226232 0.072330 -0.157564
C56   C     C_R   0.147429 0.277423 0.013586 -0.157625
C57   C     C_R   0.261911 0.680550 0.008150 0.118080
C58   C     C_R   0.670453 0.725620 0.997784 0.086929
C59   C     C_R   0.761912 0.180552 0.008148 0.118077
C60   C     C_R   0.170453 0.225621 0.997783 0.086930
C61   C     C_R   0.608468 0.550479 0.630398 -0.167863
C62   C     C_R   0.611705 0.550636 0.539361 -0.130365
C63   C     C_R   0.108468 0.050479 0.630398 -0.167860
C64   C     C_R   0.111705 0.050637 0.539361 -0.130365
C65   C     C_R   0.604028 0.501319 0.486784 0.136395
C66   C     C_R   0.596495 0.501036 0.668067 0.127811
C67   C     C_R   0.104028 0.001319 0.486784 0.136395
C68   C     C_R   0.096495 0.001036 0.668067 0.127810
C69   C     C_R   0.613052 0.451970 0.539605 -0.135336
C70   C     C_R   0.609757 0.451858 0.630501 -0.149479
C71   C     C_R   0.113052 0.951970 0.539605 -0.135336
C72   C     C_R   0.109757 0.951858 0.630501 -0.149478
C73   C     C_R   0.554681 0.455690 0.307231 -0.046730
C74   C     C_R   0.521827 0.454888 0.753173 -0.098430
C75   C     C_R   0.054681 0.955690 0.307231 -0.046728
C76   C     C_R   0.021827 0.954888 0.753173 -0.098430
C77   C     C_R   0.247397 0.545968 0.696610 -0.165049
C78   C     C_R   0.766969 0.545975 0.248072 -0.023520
C79   C     C_R   0.747397 0.045968 0.696610 -0.165049
C80   C     C_R   0.266969 0.045975 0.248072 -0.023520
C81   C     C_R   0.550341 0.545935 0.304753 -0.105925
C82   C     C_R   0.519145 0.545985 0.750956 -0.107288
C83   C     C_R   0.050341 0.045935 0.304753 -0.105924
C84   C     C_R   0.019145 0.045985 0.750956 -0.107287
C85   C     C_R   0.244354 0.455329 0.695091 -0.101895
C86   C     C_R   0.769213 0.454563 0.253792 -0.117610
C87   C     C_R   0.744353 0.955329 0.695091 -0.101896
C88   C     C_R   0.269213 0.954563 0.253792 -0.117608
C89   C     C_R   0.311865 0.626086 0.908857 -0.116191
C90   C     C_R   0.651694 0.650314 0.091634 -0.156117
C91   C     C_R   0.811865 0.126086 0.908857 -0.116192
C92   C     C_R   0.151694 0.150314 0.091634 -0.156118
C93   C     C_R   0.405654 0.370311 0.091137 0.474674
C94   C     C_R   0.555031 0.347500 0.909183 0.458919
C95   C     C_R   0.905654 0.870311 0.091137 0.474672
C96   C     C_R   0.055031 0.847500 0.909183 0.458925
C97   C     C_R   0.317977 0.356856 0.998011 -0.079549
C98   C     C_R   0.615944 0.316690 0.001634 0.026598
C99   C     C_R   0.817977 0.856856 0.998011 -0.079548
C100  C     C_R   0.115944 0.816690 0.001634 0.026594
H1    H     H_    0.257423 0.364475 0.820713 0.128793
H2    H     H_    0.689079 0.335775 0.177717 0.148755
H3    H     H_    0.757423 0.864475 0.820713 0.128794
H4    H     H_    0.189077 0.835775 0.177717 0.148755
H5    H     H_    0.924767 0.635819 0.385168 0.135619
H6    H     H_    0.080047 0.594733 0.613058 0.125244
H7    H     H_    0.424767 0.135819 0.385168 0.135619
H8    H     H_    0.580047 0.094733 0.613057 0.125244
H9    H     H_    0.131154 0.639068 0.900101 0.139612
H10   H     H_    0.755232 0.675476 0.967628 0.145483
H11   H     H_    0.631155 0.139065 0.900114 0.139616
H12   H     H_    0.255231 0.175477 0.967627 0.145484
H13   H     H_    0.797773 0.305335 0.117851 0.148753
H14   H     H_    0.178486 0.362384 0.022974 0.150587
H15   H     H_    0.297771 0.805329 0.117870 0.148755
H16   H     H_    0.678485 0.862385 0.022972 0.150587
H17   H     H_    0.385453 0.729925 0.119380 0.129572
H18   H     H_    0.593039 0.783361 0.026975 0.133895
H19   H     H_    0.885455 0.229931 0.119361 0.129572
H20   H     H_    0.093040 0.283361 0.026976 0.133895
H21   H     H_    0.605403 0.589306 0.662744 0.114862
H22   H     H_    0.610607 0.589547 0.504756 0.117214
H23   H     H_    0.105403 0.089306 0.662744 0.114861
H24   H     H_    0.110607 0.089547 0.504756 0.117214
H25   H     H_    0.612730 0.413034 0.505226 0.145248
H26   H     H_    0.607475 0.412905 0.662598 0.135992
H27   H     H_    0.112730 0.913034 0.505226 0.145249
H28   H     H_    0.107475 0.912906 0.662599 0.135993
H29   H     H_    0.433879 0.632294 0.180047 0.106824
H30   H     H_    0.518907 0.663671 0.822882 0.113015
H31   H     H_    0.933879 0.132296 0.180047 0.106826
H32   H     H_    0.018907 0.163671 0.822882 0.113015
H33   H     H_    0.581962 0.415632 0.339325 0.158702
H34   H     H_    0.535925 0.413192 0.745607 0.152486
H35   H     H_    0.081962 0.915632 0.339325 0.158701
H36   H     H_    0.035925 0.913192 0.745607 0.152485
H37   H     H_    0.242296 0.587195 0.668837 0.161196
H38   H     H_    0.786325 0.588024 0.253279 0.098322
H39   H     H_    0.742296 0.087195 0.668837 0.161196
H40   H     H_    0.286325 0.088024 0.253279 0.098322
H41   H     H_    0.567783 0.587836 0.331574 0.099969
H42   H     H_    0.527805 0.588177 0.739064 0.097079
H43   H     H_    0.067782 0.087836 0.331574 0.099968
H44   H     H_    0.027805 0.088177 0.739064 0.097079
H45   H     H_    0.232652 0.413780 0.665555 0.110582
H46   H     H_    0.791520 0.412496 0.267455 0.099420
H47   H     H_    0.732652 0.913780 0.665555 0.110583
H48   H     H_    0.291520 0.912496 0.267454 0.099420
H49   H     H_    0.254935 0.634705 0.823998 0.131419
H50   H     H_    0.695193 0.664400 0.176329 0.123909
H51   H     H_    0.754935 0.134706 0.823997 0.131419
H52   H     H_    0.195193 0.164400 0.176328 0.123909
H53   H     H_    0.114192 0.418030 0.480222 0.128429
H54   H     H_    0.948430 0.417904 0.325093 0.118453
H55   H     H_    0.614193 0.918030 0.480222 0.128429
H56   H     H_    0.448430 0.917904 0.325093 0.118453
N1    N     N_R   0.394180 0.396910 0.943210 -0.059214
N2    N     N_R   0.605820 0.396910 0.056790 -0.066608
N3    N     N_R   0.894180 0.896910 0.943210 -0.059215
N4    N     N_R   0.105820 0.896910 0.056790 -0.066608
N5    N     N_R   0.450950 0.603070 0.056740 -0.043069
N6    N     N_R   0.549050 0.603070 0.943260 -0.045304
N7    N     N_R   0.950950 0.103070 0.056740 -0.043069
N8    N     N_R   0.049050 0.103070 0.943260 -0.045303
N9    N     N_R   0.525650 0.471570 0.206150 -0.055551
N10   N     N_R   0.474350 0.471570 0.793850 -0.037110
N11   N     N_R   0.025650 0.971570 0.206150 -0.055551
N12   N     N_R   0.974350 0.971570 0.793850 -0.037111
N13   N     N_R   0.319480 0.528420 0.793810 -0.046913
N14   N     N_R   0.680520 0.528420 0.206190 -0.047010
N15   N     N_R   0.819480 0.028420 0.793810 -0.046913
N16   N     N_R   0.180520 0.028420 0.206190 -0.047010
N17   N     N_R   0.525640 0.528390 0.206120 -0.049278
N18   N     N_R   0.474360 0.528390 0.793880 -0.044496
N19   N     N_R   0.025640 0.028390 0.206120 -0.049278
N20   N     N_R   0.974360 0.028390 0.793880 -0.044496
N21   N     N_R   0.319490 0.471590 0.793840 -0.044465
N22   N     N_R   0.680510 0.471590 0.206160 -0.045270
N23   N     N_R   0.819490 0.971590 0.793840 -0.044466
N24   N     N_R   0.180510 0.971590 0.206160 -0.045270
N25   N     N_R   0.394130 0.603080 0.943110 -0.044478
N26   N     N_R   0.605870 0.603080 0.056890 -0.049966
N27   N     N_R   0.894130 0.103080 0.943110 -0.044478
N28   N     N_R   0.105870 0.103080 0.056890 -0.049966
N29   N     N_R   0.450990 0.396900 0.056840 -0.086458
N30   N     N_R   0.549010 0.396900 0.943160 -0.095869
N31   N     N_R   0.950990 0.896900 0.056840 -0.086458
N32   N     N_R   0.049010 0.896900 0.943160 -0.095871
Ni1   Ni    Ni4+2 0.434860 0.434850 0.869700 0.273914
Ni2   Ni    Ni4+2 0.565140 0.434850 0.130300 0.241894
Ni3   Ni    Ni4+2 0.934860 0.934850 0.869700 0.273915
Ni4   Ni    Ni4+2 0.065140 0.934850 0.130300 0.241893
Ni5   Ni    Ni4+2 0.565130 0.565140 0.130240 0.222461
Ni6   Ni    Ni4+2 0.434870 0.565140 0.869760 0.222993
Ni7   Ni    Ni4+2 0.065130 0.065140 0.130240 0.222460
Ni8   Ni    Ni4+2 0.934870 0.065140 0.869760 0.222993
Cl1   Cl    Cl    0.892684 0.581200 0.499515 -0.684453
Cl2   Cl    Cl    0.110953 0.661739 0.514712 -0.641951
Cl3   Cl    Cl    0.392684 0.081200 0.499515 -0.684456
Cl4   Cl    Cl    0.610953 0.161739 0.514711 -0.641955
O1    O     O_3   0.513723 0.218873 0.893064 -0.611345
C101  C     C_3   0.466230 0.180214 0.806919 -0.025030
H57   H     H_    0.389534 0.188750 0.758491 0.182041
H58   H     H_    0.477219 0.138394 0.840876 0.094588
H59   H     H_    0.487176 0.183245 0.749079 0.156367
O2    O     O_3   0.362269 0.253383 0.968262 -0.610195
C102  C     C_3   0.432086 0.217718 0.049147 -0.083262
H60   H     H_    0.499428 0.226468 0.059946 0.191152
H61   H     H_    0.412837 0.174728 0.021399 0.114077
H62   H     H_    0.445465 0.223317 0.131656 0.152590
O3    O     O_3   0.013720 0.718876 0.893055 -0.611330
C103  C     C_3   0.966229 0.680204 0.806936 -0.025061
H63   H     H_    0.889532 0.688734 0.758513 0.182037
H64   H     H_    0.977233 0.638389 0.840919 0.094577
H65   H     H_    0.987165 0.683226 0.749085 0.156375
O4    O     O_3   0.862269 0.753382 0.968260 -0.610192
C104  C     C_3   0.932087 0.717719 0.049146 -0.083287
H66   H     H_    0.999426 0.726467 0.059938 0.191151
H67   H     H_    0.912837 0.674728 0.021403 0.114072
H68   H     H_    0.945471 0.723321 0.131657 0.152601
Cl5   Cl    Cl    0.458376 0.339809 0.221130 -0.696289
Cl6   Cl    Cl    0.474108 0.322492 0.774531 -0.658434
Cl7   Cl    Cl    0.958376 0.839809 0.221130 -0.696290
Cl8   Cl    Cl    0.974108 0.822492 0.774531 -0.658403

loop_
_geom_bond_atom_site_label_1
_geom_bond_atom_site_label_2
_ccdc_geom_bond_type
N2    N30   A    
C49   H13   S    
C45   H29   S    
C77   H37   S    
C91   N27   A    
C93   N29   A    
C93   Cl5   S    
O1    C101  S    
C96   N32   A    
C79   H39   S    
C19   C20   A    
C86   N22   A    
C16   C88   A    
C90   H50   S    
C71   H27   S    
C31   Cl3   S    
C76   H36   S    
C95   N31   A    
N29   Ni2   S    
C55   H19   S    
C104  H68   S    
N11   Ni4   S    
C12   C68   S    
C33   C39   A    
N12   Ni3   S    
C101  H58   S    
C72   H28   S    
N32   Ni3   S    
C34   C40   A    
C61   H21   S    
C35   C37   A    
C85   H45   S    
C38   C42   A    
C83   N19   A    
N2    Ni2   S    
N22   Ni2   S    
C44   C99   S    
C53   H17   S    
N20   Ni8   S    
C94   N30   A    
C94   C98   A    
C95   C99   A    
C79   N15   A    
C78   H38   S    
C78   N14   A    
C12   C84   A    
C35   C59   A    
N13   N21   A    
C45   N5    A    
C61   C66   A    
C41   C49   A    
C15   C79   A    
C82   N18   A    
C11   C67   S    
C96   Cl8   S    
C101  H59   S    
C92   H52   S    
C102  H62   S    
C8    C92   A    
C23   C27   A    
C50   H14   S    
C6    C46   A    
C2    N2    A    
C47   N7    A    
C70   H26   S    
C15   C23   S    
C69   H25   S    
N6    Ni6   S    
C16   C24   S    
C30   H6    S    
C3    N3    A    
C17   C30   S    
C56   H20   S    
N15   N23   A    
C69   C70   A    
C9    C73   A    
C51   H15   S    
C19   C32   S    
C86   H46   S    
C7    C59   S    
N16   Ni7   S    
C52   C54   A    
C88   N24   A    
C9    C65   S    
C52   H16   S    
C27   H55   S    
C13   C77   A    
C89   H49   S    
N10   N18   A    
N21   Ni1   S    
C101  H57   S    
N23   Ni3   S    
C25   H53   S    
C102  H60   S    
C84   H44   S    
C90   N26   A    
O4    C104  S    
C14   C86   A    
C74   N10   A    
C73   N9    A    
N24   Ni4   S    
C42   C97   S    
C1    C97   A    
C74   H34   S    
C18   C29   S    
C53   C57   A    
O2    C102  S    
C39   C43   A    
C11   C83   A    
C104  H66   S    
C80   H40   S    
C5    C45   A    
C10   C82   A    
C95   Cl7   S    
C63   C64   A    
C47   H31   S    
C16   C80   A    
C89   N25   A    
C19   C23   A    
C8    C48   A    
C64   C67   A    
C36   H12   S    
C29   C30   S    
N8    N28   A    
N19   Ni7   S    
N3    Ni3   S    
C93   C97   A    
C37   O1    S    
O3    C103  S    
C103  H65   S    
N7    Ni7   S    
C68   C72   A    
C28   H56   S    
C40   O4    S    
C17   C18   A    
C88   H48   S    
N5    Ni5   S    
C1    N1    A    
N26   Ni5   S    
C43   C100  S    
C34   C58   A    
N25   Ni6   S    
N4    Ni4   S    
N31   Ni4   S    
C87   H47   S    
C42   C50   A    
C85   N21   A    
C30   Cl2   S    
C73   H33   S    
N18   Ni6   S    
N17   Ni5   S    
C29   Cl1   S    
C54   H18   S    
C92   N28   A    
C34   H10   S    
C64   H24   S    
C26   H54   S    
C33   H9    S    
C80   N16   A    
N27   Ni8   S    
C55   C59   A    
C7    C91   A    
C62   H22   S    
C35   H11   S    
C20   C31   S    
C94   Cl6   S    
C54   C58   A    
C3    H3    S    
N12   N20   A    
C21   C25   A    
C63   C68   A    
C33   C57   A    
C38   O2    S    
C62   C65   A    
C39   O3    S    
C18   C22   A    
C31   H7    S    
C32   H8    S    
C31   C32   S    
C24   C28   A    
N1    N29   A    
N15   Ni8   S    
C36   C60   A    
C49   C55   A    
C4    N4    A    
C44   C52   A    
C46   H30   S    
N14   Ni5   S    
C63   H23   S    
N3    N31   A    
N8    Ni8   S    
C4    H4    S    
N6    N26   A    
N13   Ni6   S    
C48   N8    A    
C8    C60   S    
C104  H67   S    
N28   Ni7   S    
C7    C47   A    
C29   H5    S    
C4    C100  A    
C5    C57   S    
N10   Ni1   S    
C14   C22   S    
N30   Ni1   S    
C12   C76   A    
C25   C26   A    
C10   C66   S    
C71   C72   A    
C32   Cl4   S    
C11   C75   A    
C50   C56   A    
C13   C21   S    
C36   C38   A    
C91   H51   S    
C10   C74   A    
N16   N24   A    
C66   C70   A    
C75   H35   S    
C1    H1    S    
C43   C51   A    
C65   C69   A    
C96   C100  A    
C81   H41   S    
C81   N17   A    
C56   C60   A    
C76   N12   A    
N11   N19   A    
C67   C71   A    
C6    C58   S    
C14   C78   A    
N7    N27   A    
C37   C41   A    
C61   C62   A    
N1    Ni1   S    
N9    Ni2   S    
C103  H64   S    
C87   N23   A    
C82   H42   S    
C3    C99   A    
C40   C44   A    
C6    C90   A    
C103  H63   S    
C2    C98   A    
C77   N13   A    
C22   C26   A    
C15   C87   A    
C13   C85   A    
C27   C28   A    
C102  H61   S    
C2    H2    S    
C41   C98   S    
C48   H32   S    
C83   H43   S    
C75   N11   A    
C51   C53   A    
C84   N20   A    
N9    N17   A    
C46   N6    A    
C20   C24   A    
N5    N25   A    
C5    C89   A    
C9    C81   A    
N14   N22   A    
N4    N32   A    
C17   C21   A    
