data_mof_unit_17995.cif
_audit_creation_date              2012-10-26T17:12:30-0400
_audit_creation_method            fapswitch 2.2
_symmetry_space_group_name_H-M    P1
_symmetry_Int_Tables_number       1
_space_group_crystal_system       triclinic
_cell_length_a                    16.760845
_cell_length_b                    16.882619
_cell_length_c                    16.817916
_cell_angle_alpha                 68.638131
_cell_angle_beta                  68.683055
_cell_angle_gamma                 68.95933
_cell_volume                      3985.4191555

loop_
_atom_site_label
_atom_site_type_symbol
_atom_type_description
_atom_site_fract_x
_atom_site_fract_y
_atom_site_fract_z
_atom_type_partial_charge
C1    C     C_R   0.013425 0.831793 0.569836 0.550473
C2    C     C_R   0.028328 0.564776 0.828580 0.546353
C3    C     C_1   0.396702 0.755241 0.127544 0.230252
C4    C     C_1   0.843653 0.579282 0.260980 0.227873
C5    C     C_1   0.156348 0.420718 0.739019 0.227873
C6    C     C_1   0.752764 0.966876 0.752608 0.271473
C7    C     C_1   0.247236 0.033124 0.247392 0.271472
C8    C     C_1   0.039126 0.745052 0.745069 0.332503
C9    C     C_1   0.960874 0.254948 0.254931 0.332503
C10   C     C_1   0.741205 0.740609 0.048969 0.330341
C11   C     C_1   0.258796 0.259391 0.951030 0.330340
C12   C     C_R   0.171253 0.974199 0.434801 0.556549
C13   C     C_R   0.828747 0.025801 0.565199 0.556549
C14   C     C_R   0.453573 0.064845 0.703748 0.002783
C15   C     C_R   0.546427 0.935154 0.296252 0.002783
C16   C     C_R   0.929580 0.730289 0.518477 0.002380
C17   C     C_R   0.070420 0.269711 0.481523 0.002380
C18   C     C_R   0.701592 0.454903 0.069313 0.003128
C19   C     C_R   0.298408 0.545097 0.930689 0.003128
C20   C     C_R   0.298722 0.928498 0.546164 0.016844
C21   C     C_R   0.986575 0.168207 0.430163 0.550473
C22   C     C_R   0.701278 0.071501 0.453836 0.016844
C23   C     C_R   0.547405 0.296751 0.934240 0.003502
C24   C     C_R   0.452594 0.703249 0.065763 0.003501
C25   C     C_R   0.907009 0.536909 0.313210 -0.002028
C26   C     C_R   0.092991 0.463090 0.686790 -0.002028
C27   C     C_R   0.543075 0.022473 0.543471 0.036593
C28   C     C_R   0.456925 0.977526 0.456529 0.036593
C29   C     C_R   0.007749 0.548359 0.549297 0.034123
C30   C     C_R   0.992251 0.451641 0.450703 0.034123
C31   C     C_R   0.543342 0.544109 0.021849 0.034708
C32   C     C_R   0.828305 0.564473 0.028301 0.546899
C33   C     C_R   0.456657 0.455890 0.978154 0.034708
C34   C     C_R   0.584701 0.015979 0.455744 0.008086
C35   C     C_R   0.415300 0.984019 0.544257 0.008086
C36   C     C_R   0.044181 0.455958 0.568688 0.004808
C37   C     C_R   0.955819 0.544042 0.431312 0.004808
C38   C     C_R   0.456466 0.585200 0.012438 0.002998
C39   C     C_R   0.543533 0.414799 0.987565 0.002998
C40   C     C_R   0.543561 0.988364 0.414050 0.001806
C41   C     C_R   0.456439 0.011634 0.585951 0.001806
C42   C     C_R   0.415081 0.542973 0.985606 0.003026
C43   C     C_R   0.171695 0.435527 0.971699 0.546899
C44   C     C_R   0.584918 0.457027 0.014397 0.003026
C45   C     C_R   0.037185 0.407596 0.518389 0.004798
C46   C     C_R   0.962814 0.592403 0.481611 0.004798
C47   C     C_R   0.410284 0.039321 0.663653 -0.139898
C48   C     C_R   0.589716 0.960677 0.336347 -0.139899
C49   C     C_R   0.921263 0.683030 0.470563 -0.130190
C50   C     C_R   0.078737 0.316970 0.529437 -0.130190
C51   C     C_R   0.661485 0.411514 0.044333 -0.138173
C52   C     C_R   0.338514 0.588486 0.955670 -0.138173
C53   C     C_R   0.339012 0.952814 0.590308 -0.125486
C54   C     C_R   0.565657 0.024363 0.828970 0.550129
C55   C     C_R   0.660989 0.047184 0.409692 -0.125486
C56   C     C_R   0.589842 0.337592 0.959742 -0.139507
C57   C     C_R   0.410156 0.662406 0.040263 -0.139507
C58   C     C_R   0.911962 0.584632 0.363034 -0.130954
C59   C     C_R   0.088038 0.415368 0.636965 -0.130954
C60   C     C_R   0.547297 0.047061 0.676625 -0.019671
C61   C     C_R   0.452703 0.952938 0.323375 -0.019671
C62   C     C_R   0.986052 0.690200 0.574992 -0.015737
C63   C     C_R   0.013948 0.309799 0.425008 -0.015738
C64   C     C_R   0.675156 0.548029 0.050372 -0.015691
C65   C     C_R   0.434343 0.975637 0.171029 0.550129
C66   C     C_R   0.324844 0.451970 0.949629 -0.015691
C67   C     C_R   0.324942 0.949365 0.452428 0.002894
C68   C     C_R   0.675058 0.050634 0.547572 0.002895
C69   C     C_R   0.453561 0.323530 0.950750 -0.014153
C70   C     C_R   0.546438 0.676469 0.049251 -0.014153
C71   C     C_R   0.950187 0.446438 0.326492 -0.013624
C72   C     C_R   0.049813 0.553562 0.673508 -0.013624
C73   C     C_R   0.601508 0.034528 0.731525 -0.034896
C74   C     C_R   0.398492 0.965472 0.268475 -0.034896
C75   C     C_R   0.010300 0.738084 0.613107 -0.040160
C76   C     C_R   0.435654 0.171654 0.971536 0.544609
C77   C     C_R   0.989700 0.261916 0.386893 -0.040161
C78   C     C_R   0.728904 0.599413 0.046025 -0.034515
C79   C     C_R   0.271096 0.400587 0.953975 -0.034515
C80   C     C_R   0.269169 0.963391 0.398508 -0.020399
C81   C     C_R   0.730831 0.036608 0.601492 -0.020399
C82   C     C_R   0.401432 0.270491 0.954196 -0.039559
C83   C     C_R   0.598568 0.729509 0.045804 -0.039558
C84   C     C_R   0.959306 0.396820 0.269351 -0.037816
C85   C     C_R   0.040694 0.603180 0.730648 -0.037816
C86   C     C_R   0.694458 0.017405 0.694572 -0.054418
C87   C     C_R   0.564346 0.828346 0.028464 0.544610
C88   C     C_R   0.305542 0.982595 0.305428 -0.054417
C89   C     C_R   0.031513 0.694717 0.695022 -0.060859
C90   C     C_R   0.968487 0.305283 0.304978 -0.060859
C91   C     C_R   0.688841 0.689184 0.046878 -0.057277
C92   C     C_R   0.311159 0.310816 0.953122 -0.057277
C93   C     C_R   0.588896 0.039024 0.589594 0.010689
C94   C     C_R   0.411104 0.960976 0.410406 0.010689
C95   C     C_R   0.015294 0.597297 0.598784 0.011466
C96   C     C_R   0.984706 0.402703 0.401216 0.011466
C97   C     C_R   0.588909 0.590221 0.039234 0.007723
C98   C     C_R   0.971672 0.435224 0.171420 0.546353
C99   C     C_R   0.411091 0.409778 0.960767 0.007723
C100  C     C_1   0.400242 0.130033 0.751720 0.230545
C101  C     C_1   0.599757 0.869965 0.248280 0.230545
C102  C     C_1   0.859730 0.809088 0.527706 0.211726
C103  C     C_1   0.140270 0.190911 0.472295 0.211726
C104  C     C_1   0.750709 0.401935 0.134264 0.232972
C105  C     C_1   0.249291 0.598065 0.865738 0.232972
C106  C     C_1   0.248425 0.864380 0.598250 0.224671
C107  C     C_1   0.751576 0.135619 0.401749 0.224670
C108  C     C_1   0.603298 0.244759 0.872459 0.230253
Cu1   Cu    Cu3+1 0.995180 0.995180 0.424630 1.035845
Cu2   Cu    Cu3+1 0.004820 0.004820 0.575370 1.035845
Cu3   Cu    Cu3+1 0.995180 0.424630 0.995180 1.034656
Cu4   Cu    Cu3+1 0.004820 0.575370 0.004820 1.034655
Cu5   Cu    Cu3+1 0.424630 0.995180 0.995180 1.034864
Cu6   Cu    Cu3+1 0.575370 0.004820 0.004820 1.034864
H1    H     H_    0.338915 0.049940 0.688071 0.115694
H2    H     H_    0.338864 0.686364 0.050859 0.115140
H3    H     H_    0.879458 0.653929 0.346723 0.113491
H4    H     H_    0.120543 0.346072 0.653276 0.113491
H5    H     H_    0.661085 0.950057 0.311930 0.115694
H6    H     H_    0.876067 0.718335 0.429623 0.110711
H7    H     H_    0.123932 0.281665 0.570378 0.110711
H8    H     H_    0.685156 0.340500 0.057060 0.114999
H9    H     H_    0.314842 0.659499 0.942945 0.114999
H10   H     H_    0.315245 0.939779 0.661776 0.112573
H11   H     H_    0.684756 0.060219 0.338225 0.112573
H12   H     H_    0.661133 0.313633 0.949149 0.115140
N1    N     N_1   0.357591 0.183398 0.788829 -0.261106
N2    N     N_1   0.351708 0.796232 0.177435 -0.273392
N3    N     N_1   0.791934 0.612972 0.220310 -0.270893
N4    N     N_1   0.208067 0.387028 0.779689 -0.270893
N5    N     N_1   0.799048 0.926249 0.798716 -0.251805
N6    N     N_1   0.200952 0.073752 0.201284 -0.251805
N7    N     N_1   0.044009 0.785327 0.785342 -0.218457
N8    N     N_1   0.955991 0.214673 0.214658 -0.218457
N9    N     N_1   0.783411 0.781467 0.049940 -0.221949
N10   N     N_1   0.216589 0.218533 0.950059 -0.221948
N11   N     N_1   0.642407 0.816601 0.211171 -0.261106
N12   N     N_1   0.800823 0.870158 0.535833 -0.303496
N13   N     N_1   0.199176 0.129841 0.464167 -0.303496
N14   N     N_1   0.788932 0.359629 0.187204 -0.256257
N15   N     N_1   0.211069 0.640372 0.812797 -0.256257
N16   N     N_1   0.209319 0.811922 0.639847 -0.253524
N17   N     N_1   0.790681 0.188077 0.360152 -0.253523
N18   N     N_1   0.648294 0.203769 0.822567 -0.273393
O1    O     O_R   0.124540 0.978640 0.385460 -0.501614
O2    O     O_R   0.124540 0.385460 0.978640 -0.491665
O3    O     O_R   0.021360 0.875460 0.614540 -0.492776
O4    O     O_R   0.978640 0.124540 0.385460 -0.492776
O5    O     O_R   0.013780 0.867370 0.487190 -0.506896
O6    O     O_R   0.986220 0.132630 0.512810 -0.506896
O7    O     O_R   0.867370 0.487190 0.013780 -0.509609
O8    O     O_R   0.132630 0.512810 0.986220 -0.509609
O9    O     O_R   0.487190 0.013780 0.867370 -0.513650
O10   O     O_R   0.512810 0.986220 0.132630 -0.513650
O11   O     O_R   0.512810 0.132630 0.986220 -0.510528
O12   O     O_R   0.875460 0.021360 0.614540 -0.501614
O13   O     O_R   0.487190 0.867370 0.013780 -0.510528
O14   O     O_R   0.986220 0.512810 0.132630 -0.505934
O15   O     O_R   0.013780 0.487190 0.867370 -0.505934
O16   O     O_R   0.132630 0.986220 0.512810 -0.494060
O17   O     O_R   0.867370 0.013780 0.487190 -0.494060
O18   O     O_R   0.978640 0.385460 0.124540 -0.493457
O19   O     O_R   0.021360 0.614540 0.875460 -0.493457
O20   O     O_R   0.385460 0.124540 0.978640 -0.489037
O21   O     O_R   0.614540 0.875460 0.021360 -0.489037
O22   O     O_R   0.614540 0.021360 0.875460 -0.482581
O23   O     O_R   0.385460 0.978640 0.124540 -0.482580
O24   O     O_R   0.875460 0.614540 0.021360 -0.491665

loop_
_geom_bond_atom_site_label_1
_geom_bond_atom_site_label_2
_ccdc_geom_bond_type
C66   C99   A    
C83   C87   S    
C35   C53   A    
C100  N1    T    
C26   C72   A    
C23   C69   A    
C20   C67   A    
Cu3   Cu4   S    
C108  N18   T    
C36   C59   A    
C54   O9    A    
C72   C85   A    
C24   C70   A    
C23   C56   A    
C47   H1    S    
C66   C79   A    
Cu3   O18   S    
C29   C36   A    
C7    N6    T    
C33   C39   A    
Cu4   O14   S    
C2    C85   S    
C34   C40   A    
C33   C42   A    
C71   C84   A    
C105  N15   T    
C52   H9    S    
C49   H6    S    
C28   C40   A    
C43   C79   S    
C22   C107  S    
Cu4   O24   S    
C13   C81   S    
C60   C73   A    
C82   C92   A    
C19   C66   A    
C28   C94   A    
C102  N12   T    
Cu3   O15   S    
C30   C96   A    
C69   C82   A    
C30   C45   A    
C14   C100  S    
C72   C95   A    
C11   C92   S    
C74   C88   A    
C55   H11   S    
C28   C35   A    
C24   C57   A    
C67   C94   A    
Cu4   O8    S    
Cu6   O22   S    
C25   C71   A    
C56   H12   S    
C48   H5    S    
C26   C59   A    
C81   C86   A    
C70   C97   A    
C60   C93   A    
C76   O20   A    
C34   C55   A    
C62   C95   A    
C3    C24   S    
C50   H7    S    
C84   C90   A    
C15   C48   A    
C54   O22   A    
C19   C52   A    
C98   O18   A    
C18   C51   A    
C4    C25   S    
C57   H2    S    
C20   C106  S    
C27   C34   A    
C41   C47   A    
C77   C90   A    
C31   C44   A    
C1    C75   S    
C21   O4    A    
C98   O14   A    
Cu2   O12   S    
C10   N9    T    
Cu3   O2    S    
C76   C82   S    
C29   C95   A    
C101  N11   T    
C61   C94   A    
C2    O15   A    
C71   C96   A    
C63   C96   A    
C58   H3    S    
C12   O16   A    
C65   C74   S    
C87   O13   A    
C30   C37   A    
C33   C99   A    
C12   O1    A    
C9    C90   S    
C17   C50   A    
Cu1   O5    S    
C13   O12   A    
C65   O10   A    
C103  N13   T    
C38   C57   A    
C27   C41   A    
C54   C73   S    
C7    C88   S    
C46   C49   A    
C15   C61   A    
C36   C45   A    
C39   C56   A    
C18   C104  S    
C21   O6    A    
C15   C101  S    
C1    O5    A    
C70   C83   A    
C22   C68   A    
C79   C92   A    
C4    N3    T    
C69   C99   A    
C44   C51   A    
C16   C102  S    
C5    N4    T    
C14   C47   A    
C10   C91   S    
C59   H4    S    
C32   O24   A    
C78   C91   A    
C62   C75   A    
C1    O3    A    
Cu1   O4    S    
C25   C58   A    
C68   C81   A    
C39   C44   A    
C107  N17   T    
Cu2   O3    S    
C19   C105  S    
Cu6   O11   S    
C16   C49   A    
Cu2   O16   S    
Cu6   O21   S    
Cu5   Cu6   S    
C63   C77   A    
C14   C60   A    
C40   C48   A    
Cu4   O19   S    
C64   C97   A    
C106  N16   T    
C85   C89   A    
C8    N7    T    
C3    N2    T    
C64   C78   A    
Cu1   O1    S    
C67   C80   A    
C37   C58   A    
Cu5   O9    S    
C20   C53   A    
Cu2   O6    S    
C53   H10   S    
Cu3   O7    S    
C2    O19   A    
Cu5   O23   S    
C13   O17   A    
C22   C55   A    
C61   C74   A    
C83   C91   A    
C65   O23   A    
C76   O11   A    
C68   C93   A    
C6    N5    T    
C31   C38   A    
C29   C46   A    
C84   C98   S    
C17   C103  S    
C80   C88   A    
C43   O2    A    
Cu1   O17   S    
C11   N10   T    
C9    N8    T    
Cu5   O20   S    
C18   C64   A    
C87   O21   A    
C32   O7    A    
C45   C50   A    
C23   C108  S    
C12   C80   S    
C6    C86   S    
Cu6   O10   S    
C31   C97   A    
C35   C41   A    
C73   C86   A    
C27   C93   A    
C75   C89   A    
C32   C78   S    
C5    C26   S    
C38   C42   A    
C104  N14   T    
C21   C77   S    
C51   H8    S    
C8    C89   S    
Cu5   O13   S    
C37   C46   A    
Cu1   Cu2   S    
C16   C62   A    
C17   C63   A    
C43   O8    A    
C42   C52   A    
