data_mof_unit_34375.cif
_audit_creation_date              2012-12-11T16:31:31-0500
_audit_creation_method            fapswitch 2.2
_symmetry_space_group_name_H-M    P1
_symmetry_Int_Tables_number       1
_space_group_crystal_system       triclinic
_cell_length_a                    7.003577
_cell_length_b                    18.438295
_cell_length_c                    20.098296
_cell_angle_alpha                 68.334198
_cell_angle_beta                  91.275722
_cell_angle_gamma                 90.821944
_cell_volume                      2411.36834658

loop_
_atom_site_label
_atom_site_type_symbol
_atom_type_description
_atom_site_fract_x
_atom_site_fract_y
_atom_site_fract_z
_atom_type_partial_charge
O1    O     O_R   0.488990 0.443920 0.942160 -0.517161
O2    O     O_R   0.823840 0.406530 0.087600 -0.549388
O3    O     O_R   0.999650 0.556080 0.057840 -0.508027
C1    C     C_R   0.656148 0.384669 0.115704 0.647663
O4    O     O_R   0.818390 0.434590 0.944530 -0.523698
O5    O     O_R   0.994160 0.584350 0.913750 -0.503135
C2    C     C_R   0.649034 0.420582 0.924277 0.734507
O6    O     O_R   0.494480 0.415650 0.086250 -0.549324
O7    O     O_3   0.662600 0.549100 0.990070 -0.348840
V1    V     V_3+5 0.935320 0.490890 0.001840 1.605758
O8    O     O_R   0.324240 0.593470 0.912400 -0.531018
C3    C     C_R   0.153093 0.618136 0.886143 0.856884
O9    O     O_R   0.329690 0.565410 0.055470 -0.545977
C4    C     C_R   0.164074 0.577663 0.077236 0.739679
V2    V     V_3+5 0.435990 0.509110 0.998160 1.583608
O10   O     O_3   0.158840 0.450900 0.009930 -0.369670
C5    C     C_3   0.028332 0.661739 0.274489 0.183128
C6    C     C_3   0.352309 0.717076 0.240801 -0.138139
C7    C     C_3   0.331384 0.765753 0.290839 -0.023057
H1    H     H_    0.107904 0.608200 0.307304 0.114042
H2    H     H_    0.401212 0.657735 0.275927 0.180243
H3    H     H_    0.374633 0.726550 0.345835 0.142632
C8    C     C_1   0.103563 0.873019 0.379821 -0.084551
C9    C     C_3   0.153317 0.707300 0.208034 -0.020580
C10   C     C_3   0.993880 0.711985 0.321296 -0.113797
C11   C     C_3   0.117881 0.788694 0.293993 0.035615
C12   C     C_3   0.038128 0.836098 0.216680 0.177157
C13   C     C_3   0.074435 0.791461 0.165618 0.205089
C14   C     C_1   0.104283 0.834465 0.341918 0.177710
C15   C     C_1   0.165599 0.661303 0.160694 0.201671
C16   C     C_1   0.164715 0.623301 0.122533 -0.045450
H4    H     H_    0.179888 0.825007 0.125754 0.164691
H5    H     H_    0.881776 0.842943 0.219877 0.148225
H6    H     H_    0.841218 0.729025 0.315716 0.164582
C17   C     C_R   0.093789 0.777866 0.881548 0.318804
C18   C     C_R   0.122881 0.851380 0.883743 -0.144904
C19   C     C_R   0.156592 0.914237 0.821933 -0.142099
C20   C     C_R   0.155529 0.906096 0.755854 0.339553
C21   C     C_R   0.137478 0.830014 0.751665 -0.049687
C22   C     C_R   0.123996 0.763549 0.817386 -0.050441
C23   C     C_R   0.120531 0.818139 0.685561 -0.095171
C24   C     C_R   0.095579 0.741494 0.685651 0.001632
C25   C     C_R   0.109167 0.674405 0.750545 -0.073717
C26   C     C_R   0.133322 0.686069 0.816961 -0.111262
C27   C     C_R   0.055135 0.731351 0.620419 -0.264440
C28   C     C_R   0.014450 0.658417 0.618066 0.130431
C29   C     C_R   0.028179 0.592487 0.680413 0.462114
C30   C     C_R   0.087228 0.598676 0.745516 0.236479
H7    H     H_    0.103086 0.861379 0.933007 0.212258
H8    H     H_    0.167200 0.971111 0.825363 0.237856
H9    H     H_    0.048271 0.780459 0.570112 0.111463
H10   H     H_    0.555389 0.469603 0.315932 0.163762
C31   C     C_R   0.698361 0.229714 0.118308 -0.288743
C32   C     C_R   0.707382 0.156782 0.114003 0.353129
C33   C     C_R   0.675844 0.090216 0.174510 0.432617
C34   C     C_R   0.642330 0.096148 0.241289 0.227720
C35   C     C_R   0.641267 0.171414 0.247717 -0.070458
C36   C     C_R   0.663254 0.239030 0.183517 -0.022836
C37   C     C_R   0.616151 0.182372 0.314227 -0.126836
C38   C     C_R   0.601632 0.259265 0.314340 0.052885
C39   C     C_R   0.614502 0.325372 0.249313 0.055503
C40   C     C_R   0.646907 0.315327 0.184093 -0.097023
C41   C     C_R   0.574322 0.271946 0.378908 -0.139107
C42   C     C_R   0.557718 0.347076 0.379112 -0.111375
C43   C     C_R   0.568610 0.411359 0.315487 -0.082751
C44   C     C_R   0.597392 0.401001 0.251240 -0.143966
H11   H     H_    0.718639 0.279272 0.069075 0.155065
H12   H     H_    0.565026 0.224158 0.430047 0.081698
H13   H     H_    0.536272 0.355410 0.428992 0.125739
H14   H     H_    0.606829 0.452970 0.203256 0.123658
O11   O     O_R   0.770890 0.084490 0.414040 -0.533556
O12   O     O_R   0.445980 0.065450 0.555510 -0.514945
O13   O     O_R   0.270670 0.915620 0.586180 -0.527722
C45   C     C_R   0.615734 0.079616 0.575850 0.725063
O14   O     O_R   0.441480 0.093500 0.412450 -0.536854
O15   O     O_R   0.266140 0.943870 0.442100 -0.515059
C46   C     C_R   0.609093 0.115338 0.384248 0.774731
O16   O     O_R   0.775410 0.056240 0.558120 -0.527492
O17   O     O_3   0.602660 0.950990 0.510100 -0.365839
V3    V     V_3+5 0.329740 0.009100 0.498130 1.587473
O18   O     O_R   0.936120 0.934420 0.444240 -0.529383
C47   C     C_R   0.102592 0.919941 0.424356 0.719101
O19   O     O_R   0.940610 0.906370 0.587310 -0.541569
C48   C     C_R   0.110071 0.885244 0.615855 0.770612
V4    V     V_3+5 0.829110 0.990690 0.501470 1.564922
O20   O     O_3   0.106080 0.049010 0.489880 -0.364589
C49   C     C_3   0.836579 0.237732 0.714403 -0.034186
C50   C     C_3   0.493359 0.278437 0.680643 -0.371785
C51   C     C_3   0.518945 0.330124 0.726270 0.262050
H15   H     H_    0.903196 0.341755 0.740857 0.252646
H16   H     H_    0.344309 0.257242 0.682872 0.226566
H17   H     H_    0.518978 0.313857 0.623327 0.145049
H18   H     H_    0.594826 0.384492 0.693051 0.142890
C52   C     C_1   0.642947 0.374357 0.879521 -0.044948
C53   C     C_3   0.629964 0.207654 0.708490 0.050111
C54   C     C_3   0.846104 0.281889 0.768461 -0.125423
C55   C     C_3   0.642502 0.288389 0.795354 0.065313
C56   C     C_3   0.572403 0.202340 0.836884 0.038359
C57   C     C_3   0.564892 0.155355 0.785348 0.236752
C58   C     C_1   0.645349 0.335753 0.841912 0.105425
C59   C     C_1   0.627168 0.162614 0.659994 0.117281
C60   C     C_1   0.624917 0.125173 0.621282 -0.077161
H19   H     H_    0.665673 0.105583 0.807008 0.113958
H20   H     H_    0.679609 0.172842 0.879753 0.197970
H21   H     H_    0.929979 0.185346 0.734371 0.211827
N1    N     N_3   0.029137 0.666574 0.397469 -0.683849
H22   H     H_    0.924994 0.622651 0.414576 0.279506
H23   H     H_    0.160853 0.638470 0.405371 0.227507
Cl1   Cl    Cl    0.811657 0.621467 0.253446 -0.687551
Cl2   Cl    Cl    0.127330 0.934555 0.179308 -0.478297
Cl3   Cl    Cl    0.963780 0.501645 0.675618 -0.577632
Cl4   Cl    Cl    0.960387 0.716753 0.953650 -0.608270
Cl5   Cl    Cl    0.169710 0.996457 0.683479 -0.617321
N2    N     N_3   0.959728 0.650521 0.551835 -0.591522
H24   H     H_    0.073196 0.623484 0.537421 0.269583
H25   H     H_    0.942248 0.705295 0.511115 0.241200
Cl6   Cl    Cl    0.136863 0.508548 0.815912 -0.563177
Cl7   Cl    Cl    0.754292 0.151074 0.030336 -0.569265
Cl8   Cl    Cl    0.673527 0.998996 0.164882 -0.449603
Cl9   Cl    Cl    0.590472 0.006947 0.312153 -0.575659
N3    N     N_3   0.499135 0.746497 0.186376 -0.527699
H26   H     H_    0.623703 0.754073 0.212293 0.298462
H27   H     H_    0.467009 0.800834 0.147777 0.273913
N4    N     N_3   0.905854 0.287573 0.643520 -0.642364
H28   H     H_    0.050537 0.299068 0.648335 0.276954
H29   H     H_    0.838325 0.341737 0.626036 0.256727
Cl10  Cl    Cl    0.295959 0.363821 0.743765 -0.596052
Cl11  Cl    Cl    0.335389 0.111723 0.782290 -0.658131
N5    N     N_3   0.973761 0.241076 0.829036 -0.609750
H30   H     H_    0.012115 0.278979 0.855117 0.303399
H31   H     H_    0.097944 0.228253 0.808375 0.339579
N6    N     N_3   0.392370 0.199286 0.873579 -0.574411
H32   H     H_    0.364186 0.141078 0.905598 0.304814
H33   H     H_    0.409652 0.227354 0.909979 0.262308
N7    N     N_3   0.457111 0.834441 0.273647 -0.546331
H34   H     H_    0.460969 0.865371 0.218772 0.325483
H35   H     H_    0.595687 0.816849 0.292095 0.228727
Cl12  Cl    Cl    0.873883 0.793958 0.108224 -0.527488

loop_
_geom_bond_atom_site_label_1
_geom_bond_atom_site_label_2
_ccdc_geom_bond_type
C36   C40   A    
C57   H19   S    
C33   C34   A    
C59   C60   T    
C8    C47   S    
C6    H2    S    
C23   C24   A    
C17   C18   A    
O11   C46   A    
C4    C16   S    
C1    O6    A    
C37   C46   S    
N2    H24   S    
N7    H34   S    
C21   C23   A    
C33   Cl8   S    
C27   C28   A    
C12   H5    S    
C11   C12   S    
C38   C41   A    
C6    C9    S    
C8    C14   T    
C18   C19   A    
O5    C3    A    
C49   N4    S    
C53   C57   S    
C35   C37   A    
N1    H22   S    
C27   H9    S    
C7    N7    S    
V2    O10   S    
C1    C40   S    
C5    H1    S    
C34   C35   A    
C6    C7    S    
C28   C29   A    
H10   C43   S    
C7    C11   S    
V3    O20   S    
O11   V4    S    
O8    V2    S    
C39   C44   A    
C29   C30   A    
C12   Cl2   S    
N6    H32   S    
C49   C53   S    
O1    V2    S    
C9    C13   S    
O7    V1    S    
O13   C48   A    
C10   H6    S    
C45   C60   S    
C50   C53   S    
C37   C38   A    
O9    C4    A    
C49   C54   S    
C34   Cl9   S    
C10   N1    S    
C55   C56   S    
N4    H28   S    
C5    C9    S    
C28   N2    S    
C50   H17   S    
C13   H4    S    
C7    H3    S    
C13   Cl12  S    
O12   C45   A    
O15   C47   A    
C21   C22   A    
O4    C2    A    
C20   Cl5   S    
C10   C11   S    
V4    O20   S    
C23   C48   S    
O18   C47   A    
O17   V3    S    
C51   C55   S    
C38   C39   A    
C24   C27   A    
O2    C1    A    
C25   C26   A    
C19   C20   A    
O19   C48   A    
C49   H21   S    
C50   H16   S    
C52   C58   T    
C15   C16   T    
O8    C3    A    
C25   C30   A    
C54   C55   S    
C42   H13   S    
C50   C51   S    
H15   C54   S    
O14   C46   A    
N3    H26   S    
C30   Cl6   S    
O3    C4    A    
O16   V4    S    
O19   V4    S    
C56   C57   S    
O6    V2    S    
C32   Cl7   S    
C24   C25   A    
O2    V1    S    
O17   V4    S    
C55   C58   S    
N4    H29   S    
N5    H30   S    
C51   Cl10  S    
N7    H35   S    
C2    C52   S    
C32   C33   A    
O1    C2    A    
O15   V3    S    
C5    Cl1   S    
O5    V1    S    
N2    H25   S    
C31   C36   A    
C31   C32   A    
C57   Cl11  S    
C41   H12   S    
C5    C10   S    
C42   C43   A    
O9    V2    S    
C17   C22   A    
O7    V2    S    
O4    V1    S    
O12   V3    S    
O3    V1    S    
V1    O10   S    
C19   H8    S    
C35   C36   A    
C20   C21   A    
N1    H23   S    
C29   Cl3   S    
O13   V3    S    
C51   H18   S    
C39   C40   A    
C31   H11   S    
C9    C15   S    
N3    H27   S    
C18   H7    S    
C6    N3    S    
C41   C42   A    
C22   C26   A    
O14   V3    S    
C44   H14   S    
C11   C14   S    
N6    H33   S    
C43   C44   A    
C45   O16   A    
C56   N6    S    
C12   C13   S    
C3    C26   S    
C56   H20   S    
O18   V4    S    
C17   Cl4   S    
C53   C59   S    
C54   N5    S    
N5    H31   S    
