data_mof_unit_7456.cif
_audit_creation_date              2012-12-10T18:02:54-0500
_audit_creation_method            fapswitch 2.2
_symmetry_space_group_name_H-M    P1
_symmetry_Int_Tables_number       1
_space_group_crystal_system       triclinic
_cell_length_a                    10.824139
_cell_length_b                    9.506433
_cell_length_c                    27.752892
_cell_angle_alpha                 89.961873
_cell_angle_beta                  90.442421
_cell_angle_gamma                 90.092197
_cell_volume                      2855.6540649

loop_
_atom_site_label
_atom_site_type_symbol
_atom_type_description
_atom_site_fract_x
_atom_site_fract_y
_atom_site_fract_z
_atom_type_partial_charge
C1    C     C_R   0.262033 0.499943 0.499940 0.813607
C2    C     C_R   0.737968 0.500076 0.500046 0.806094
C3    C     C_R   0.487741 0.516326 0.101563 -0.042802
C4    C     C_R   0.481607 0.511374 0.899167 -0.041713
C5    C     C_R   0.393714 0.442732 0.125972 -0.027321
C6    C     C_R   0.596408 0.515299 0.875412 -0.037139
C7    C     C_R   0.295866 0.382563 0.099775 -0.106964
C8    C     C_R   0.705576 0.535279 0.902058 -0.084392
C9    C     C_R   0.588646 0.574232 0.127580 -0.125289
C10   C     C_R   0.371192 0.491123 0.872513 -0.115086
C11   C     C_R   0.492299 0.498867 0.354012 -0.210238
C12   C     C_R   0.506539 0.498720 0.646297 -0.212745
C13   C     C_R   0.366974 0.504186 0.974766 -0.056079
C14   C     C_R   0.580767 0.589222 0.025659 -0.067152
C15   C     C_R   0.587487 0.562109 0.975574 0.067195
C16   C     C_R   0.375677 0.480708 0.025245 0.090356
C17   C     C_R   0.478366 0.526206 0.949788 0.047057
C18   C     C_R   0.481205 0.529536 0.050881 0.045672
C19   C     C_R   0.254127 0.502366 0.948158 0.273571
C20   C     C_R   0.670090 0.668752 0.051638 0.330381
C21   C     C_R   0.256969 0.485909 0.897529 -0.164209
C22   C     C_R   0.679403 0.652746 0.102151 -0.150626
C23   C     C_R   0.496282 0.500140 0.407303 0.881208
C24   C     C_R   0.503566 0.500139 0.592806 0.875458
C25   C     C_R   0.287883 0.399918 0.050112 -0.084722
C26   C     C_R   0.701090 0.558425 0.951416 -0.059182
C27   C     C_R   0.063679 0.372148 0.499951 -0.163218
C28   C     C_R   0.936320 0.627948 0.499956 -0.135578
C29   C     C_R   0.935935 0.372223 0.500027 -0.162182
C30   C     C_R   0.064075 0.627872 0.499840 -0.126315
C31   C     C_R   0.871785 0.500120 0.500033 -0.017462
C32   C     C_R   0.128219 0.499962 0.499885 -0.013789
C33   C     C_R   0.403510 0.074291 0.480375 0.001304
C34   C     C_R   0.597007 0.925888 0.519181 0.068408
C35   C     C_R   0.596491 0.074566 0.519617 0.003818
C36   C     C_R   0.403032 0.925586 0.480773 0.061981
C37   C     C_R   0.400039 0.429973 0.176150 0.629008
C38   C     C_R   0.599784 0.498326 0.825405 0.615399
C39   C     C_R   0.590432 0.557036 0.178395 0.636274
C40   C     C_R   0.379749 0.484636 0.821510 0.647323
C41   C     C_R   0.549112 0.377376 0.279746 0.431727
C42   C     C_R   0.468337 0.365462 0.720309 0.447861
C43   C     C_R   0.547503 0.384781 0.330091 -0.341631
C44   C     C_R   0.469842 0.374492 0.669998 -0.325620
C45   C     C_R   0.434200 0.606094 0.326344 0.399061
C46   C     C_R   0.545416 0.615742 0.674493 0.374526
C47   C     C_R   0.437747 0.598570 0.276115 -0.218985
C48   C     C_R   0.536305 0.608547 0.724609 -0.234244
C49   C     C_R   0.494525 0.486203 0.252755 0.182448
C50   C     C_R   0.498360 0.485414 0.747763 0.172387
Cu1   Cu    Cu3+1 0.500000 0.640660 0.500000 1.054317
Cu2   Cu    Cu3+1 0.500000 0.359340 0.500000 0.977381
H1    H     H_    0.326464 0.129902 0.464325 0.135412
H2    H     H_    0.675059 0.870572 0.534430 0.166588
H3    H     H_    0.673576 0.130367 0.535647 0.135118
H4    H     H_    0.325204 0.869985 0.465317 0.169774
H5    H     H_    0.395610 0.680304 0.254393 0.192607
H6    H     H_    0.561326 0.698659 0.746452 0.215832
H7    H     H_    0.225079 0.321278 0.117533 0.204729
H8    H     H_    0.795012 0.534625 0.884819 0.220316
H9    H     H_    0.442345 0.283297 0.649152 0.205421
H10   H     H_    0.590753 0.301747 0.350893 0.210890
H11   H     H_    0.214476 0.345859 0.031159 0.197113
H12   H     H_    0.787503 0.569347 0.970800 0.231885
H13   H     H_    0.111591 0.272190 0.499966 0.151309
H14   H     H_    0.888397 0.727900 0.499969 0.153563
H15   H     H_    0.887718 0.272281 0.500081 0.151783
H16   H     H_    0.112307 0.727805 0.499745 0.153647
N1    N     N_R   0.497026 0.486853 0.201084 -0.441108
N2    N     N_R   0.492555 0.485125 0.799522 -0.436690
N3    N     N_R   0.500000 0.852070 0.500000 -0.175399
N4    N     N_R   0.500000 0.147930 0.500000 -0.175879
O1    O     O_R   0.319640 0.618740 0.500000 -0.587534
O2    O     O_R   0.680360 0.381260 0.500000 -0.603618
O3    O     O_R   0.680360 0.618740 0.500000 -0.589330
O4    O     O_R   0.319640 0.381260 0.500000 -0.604414
O5    O     O_R   0.500020 0.618770 0.430260 -0.515211
O6    O     O_R   0.499980 0.381230 0.569740 -0.585542
O7    O     O_R   0.499980 0.618770 0.569740 -0.512801
O8    O     O_R   0.500020 0.381230 0.430260 -0.582655
O9    O     O_2   0.309291 0.362664 0.200058 -0.483024
O10   O     O_2   0.709443 0.496784 0.802559 -0.497307
O11   O     O_2   0.277005 0.482329 0.793758 -0.494351
O12   O     O_2   0.683214 0.610824 0.205383 -0.493944
S1    S     S_3+6 0.351279 0.747623 0.352047 0.034046
O13   O     O_2   0.268846 0.693925 0.391332 -0.290855
O14   O     O_2   0.441091 0.852322 0.372906 -0.288509
O15   O     O_3   0.262958 0.828327 0.310225 -0.478474
H17   H     H_    0.317467 0.899527 0.295227 0.377499
S2    S     S_3+6 0.614837 0.768670 0.650031 0.037422
O16   O     O_2   0.710455 0.727662 0.613662 -0.330233
O17   O     O_2   0.517398 0.857125 0.625949 -0.256743
O18   O     O_3   0.683263 0.865050 0.693530 -0.443318
H18   H     H_    0.755632 0.808830 0.704009 0.362721
S3    S     S_3+6 0.431564 0.202402 0.747560 0.072915
O19   O     O_2   0.505720 0.182709 0.793061 -0.226277
O20   O     O_2   0.296511 0.199313 0.759731 -0.251416
O21   O     O_3   0.462917 0.069159 0.709726 -0.439206
H19   H     H_    0.386528 0.055369 0.690408 0.362693
S4    S     S_3+6 0.618996 0.231773 0.251258 0.071401
O22   O     O_2   0.522553 0.152341 0.223083 -0.212436
O23   O     O_2   0.716769 0.282029 0.217121 -0.249412
O24   O     O_3   0.683161 0.122563 0.292049 -0.479896
H20   H     H_    0.759251 0.171165 0.303131 0.356447
C51   C     C_1   0.141370 0.458888 0.872379 0.507594
N5    N     N_1   0.048902 0.437059 0.852494 -0.162230
C52   C     C_1   0.783093 0.718298 0.126828 0.535754
N6    N     N_1   0.866143 0.770713 0.146315 -0.142105
S5    S     S_3+6 0.111788 0.555847 0.974974 0.011155
O25   O     O_2   0.030835 0.429331 0.982611 -0.285467
O26   O     O_2   0.132929 0.629133 0.022323 -0.236686
O27   O     O_3   0.037294 0.667404 0.937752 -0.489840
H21   H     H_    0.093493 0.749153 0.934535 0.369075
S6    S     S_3+6 0.748102 0.813745 0.024098 0.028689
O28   O     O_2   0.882098 0.777795 0.017860 -0.222140
O29   O     O_2   0.691634 0.850692 0.976080 -0.255680
O30   O     O_3   0.737733 0.955189 0.060245 -0.506457
H22   H     H_    0.789276 0.028202 0.044698 0.393653

loop_
_geom_bond_atom_site_label_1
_geom_bond_atom_site_label_2
_ccdc_geom_bond_type
C20   S6    S    
C38   N2    A    
O18   H18   S    
C5    C37   A    
C27   C29   A    
C8    C26   A    
C14   C18   A    
C45   S1    S    
S3    O19   D    
S6    O28   D    
S3    O21   S    
C47   C49   A    
C21   C51   S    
S1    O13   D    
C40   N2    A    
C3    C9    A    
C19   C21   A    
Cu1   O3    S    
C39   O12   S    
C37   N1    A    
S5    O26   D    
C9    C22   A    
C22   C52   S    
C9    C39   A    
C33   C36   A    
C3    C18   A    
C10   C40   A    
C34   C35   A    
C25   H11   S    
C7    H7    S    
C26   H12   S    
S4    O22   D    
C33   N4    A    
C29   H15   S    
C52   N6    T    
C6    C38   A    
C11   C43   A    
C23   O8    A    
C2    O2    A    
C36   N3    A    
C48   C50   A    
C49   N1    S    
C38   O10   S    
C41   C43   A    
C40   O11   S    
C37   O9    S    
Cu1   N3    S    
Cu2   O6    S    
C41   C49   A    
O27   H21   S    
C45   C47   A    
C10   C21   A    
C33   H1    S    
C46   C48   A    
C13   C19   A    
S1    O14   D    
C35   H3    S    
C42   S3    S    
C14   C20   A    
C4    C6    A    
S5    O27   S    
C5    C7    A    
C15   C26   A    
C6    C8    A    
C3    C5    A    
S4    O24   S    
Cu1   Cu2   S    
C2    C31   S    
C12   C46   A    
C28   H14   S    
Cu1   O5    S    
C27   H13   S    
C47   H5    S    
C24   O7    A    
S2    O17   D    
Cu2   N4    S    
S4    O23   D    
C39   N1    A    
C41   S4    S    
C23   O5    A    
C42   C50   A    
C4    C17   A    
C24   O6    A    
C20   C22   A    
C35   N4    A    
C34   H2    S    
C11   C45   A    
C4    C10   A    
S2    O18   S    
S1    O15   S    
C16   C25   A    
C15   C17   A    
C27   C32   A    
C1    O4    A    
C28   C31   A    
Cu1   O1    S    
Cu2   O4    S    
S6    O29   D    
S3    O20   D    
C48   H6    S    
C46   S2    S    
C44   H9    S    
C51   N5    T    
C12   C24   S    
Cu2   O2    S    
C7    C25   A    
C13   C17   A    
C1    O1    A    
C28   C30   A    
C50   N2    S    
C42   C44   A    
C29   C31   A    
O30   H22   S    
C8    H8    S    
C30   C32   A    
S2    O16   D    
C19   S5    S    
C11   C23   S    
C36   H4    S    
C1    C32   S    
Cu1   O7    S    
S6    O30   S    
O15   H17   S    
C16   C18   A    
O21   H19   S    
C13   C16   A    
S5    O25   D    
O24   H20   S    
C14   C15   A    
C12   C44   A    
Cu2   O8    S    
C34   N3    A    
C30   H16   S    
C2    O3    A    
C43   H10   S    
