data_mof_unit_34141.cif
_audit_creation_date              2013-03-05T16:47:43-0500
_audit_creation_method            fapswitch 2.2
_symmetry_space_group_name_H-M    P1
_symmetry_Int_Tables_number       1
_space_group_crystal_system       triclinic
_cell_length_a                    10.896489
_cell_length_b                    12.965745
_cell_length_c                    11.844932
_cell_angle_alpha                 98.328952
_cell_angle_beta                  95.625834
_cell_angle_gamma                 93.811389
_cell_volume                      1642.29940191

loop_
_atom_site_label
_atom_site_type_symbol
_atom_site_description
_atom_site_fract_x
_atom_site_fract_y
_atom_site_fract_z
_atom_type_partial_charge
O1    O     O_R   0.506570 0.354460 0.582000 -0.592093
O2    O     O_R   0.493430 0.645540 0.418000 -0.592114
O3    O     O_R   0.490940 0.341410 0.386200 -0.601071
O4    O     O_R   0.509060 0.658590 0.613800 -0.601076
C1    C     C_R   0.496362 0.299700 0.479495 0.825424
C2    C     C_R   0.503641 0.700300 0.520505 0.825397
O5    O     O_R   0.327460 0.506540 0.597900 -0.577304
O6    O     O_R   0.672540 0.493460 0.402100 -0.577296
O7    O     O_R   0.311830 0.493480 0.402100 -0.578469
O8    O     O_R   0.688170 0.506520 0.597900 -0.578457
C3    C     C_R   0.262674 0.504215 0.498343 0.802995
C4    C     C_R   0.737329 0.495797 0.501658 0.802989
Cu1   Cu    Cu3+1 0.509250 0.507730 0.615930 0.964423
Cu2   Cu    Cu3+1 0.490750 0.492270 0.384070 0.964417
C5    C     C_R   0.127277 0.488694 0.101351 -0.294809
C6    C     C_R   0.872685 0.511296 0.898608 -0.294795
H1    H     H_    0.135953 0.550631 0.049674 0.216585
H2    H     H_    0.863975 0.449335 0.950252 0.216611
C7    C     C_R   0.108011 0.515202 0.216693 0.377159
C8    C     C_R   0.891971 0.484823 0.783270 0.377185
C9    C     C_R   0.090921 0.434507 0.283519 -0.003533
C10   C     C_R   0.909086 0.565538 0.716477 -0.003564
C11   C     C_R   0.106792 0.331287 0.237033 -0.262818
C12   C     C_R   0.893248 0.668757 0.762999 -0.262849
H3    H     H_    0.101144 0.270926 0.291226 0.176082
H4    H     H_    0.898927 0.729138 0.708833 0.176105
C13   C     C_R   0.122676 0.304314 0.120608 0.055416
C14   C     C_R   0.877369 0.695702 0.879430 0.055405
C15   C     C_R   0.127869 0.383958 0.050165 0.325251
C16   C     C_R   0.872116 0.616025 0.949834 0.325238
C17   C     C_R   0.921664 0.438884 0.408721 0.161524
C18   C     C_R   0.078346 0.561155 0.591281 0.161547
C19   C     C_R   0.871784 0.489834 0.505341 -0.085083
C20   C     C_R   0.128223 0.510204 0.494659 -0.085065
C21   C     C_R   0.951389 0.543286 0.600536 0.024038
C22   C     C_R   0.048615 0.456769 0.399459 0.024058
C23   C     C_R   0.510971 0.813487 0.531876 -0.125501
C24   C     C_R   0.489040 0.186514 0.468124 -0.125505
C25   C     C_R   0.422467 0.017065 0.356072 0.365758
C26   C     C_R   0.577556 0.982935 0.643926 0.365756
C27   C     C_R   0.430084 0.125752 0.367834 -0.243734
C28   C     C_R   0.569931 0.874247 0.632165 -0.243716
C29   C     C_R   0.540688 0.139430 0.557838 -0.185980
C30   C     C_R   0.459330 0.860572 0.442162 -0.185992
C31   C     C_R   0.529434 0.031012 0.551242 0.005571
C32   C     C_R   0.470587 0.968990 0.448759 0.005587
H5    H     H_    0.408611 0.811849 0.368265 0.219557
H6    H     H_    0.591409 0.188155 0.631734 0.219601
H7    H     H_    0.608836 0.837212 0.702340 0.173184
H8    H     H_    0.391180 0.162785 0.297656 0.173162
N1    N     N_R   0.523180 0.519350 0.790130 -0.189416
N2    N     N_R   0.476820 0.480650 0.209870 -0.189415
C33   C     C_R   0.433891 0.371543 0.026303 -0.265613
C34   C     C_R   0.566092 0.628461 0.973696 -0.265603
C35   C     C_R   0.430949 0.388509 0.145383 0.036002
C36   C     C_R   0.569047 0.611492 0.854617 0.035990
C37   C     C_R   0.529484 0.558975 0.155870 0.323533
C38   C     C_R   0.470503 0.441027 0.844128 0.323532
C39   C     C_R   0.524080 0.547672 0.032923 0.057130
C40   C     C_R   0.475897 0.452334 0.967074 0.057131
H9    H     H_    0.604871 0.674518 0.813612 0.147646
H10   H     H_    0.395135 0.325480 0.186390 0.147650
H11   H     H_    0.404251 0.293547 0.983123 0.174467
H12   H     H_    0.595734 0.706457 0.016877 0.174496
N3    N     N_R   0.134740 0.361683 0.928118 0.115261
O9    O     O_R   0.164421 0.437025 0.871677 -0.404741
O10   O     O_R   0.098673 0.269842 0.870156 -0.303872
N4    N     N_R   0.865204 0.638254 0.071878 0.115275
O11   O     O_R   0.835538 0.562890 0.128272 -0.404783
O12   O     O_R   0.901179 0.730084 0.129882 -0.303967
C41   C     C_3   0.399687 0.344954 0.774140 -0.627742
H13   H     H_    0.345790 0.363672 0.697417 0.264111
H14   H     H_    0.463733 0.283961 0.753488 0.232606
H15   H     H_    0.326818 0.310150 0.818263 0.237536
C42   C     C_3   0.600312 0.655043 0.225856 -0.627742
H16   H     H_    0.536277 0.716047 0.246500 0.232596
H17   H     H_    0.654201 0.636324 0.302584 0.264112
H18   H     H_    0.673190 0.689829 0.181729 0.237590
N5    N     N_R   0.106146 0.623975 0.263586 0.155550
O13   O     O_R   0.174805 0.694631 0.225688 -0.310207
O14   O     O_R   0.028907 0.654292 0.336315 -0.316140
N6    N     N_R   0.893827 0.376060 0.736339 0.155508
O15   O     O_R   0.825057 0.305386 0.774126 -0.310245
O16   O     O_R   0.971175 0.345767 0.663704 -0.316095
C43   C     C_3   0.134546 0.191108 0.075480 -0.661932
H19   H     H_    0.219521 0.183304 0.031413 0.234263
H20   H     H_    0.141261 0.143044 0.145785 0.241026
H21   H     H_    0.051754 0.158648 0.015631 0.280382
C44   C     C_3   0.865587 0.808915 0.924606 -0.661817
H22   H     H_    0.780586 0.816758 0.968625 0.234303
H23   H     H_    0.948373 0.841297 0.984508 0.280384
H24   H     H_    0.858982 0.857025 0.854339 0.241028
C45   C     C_3   0.842361 0.360368 0.318051 -0.713050
H25   H     H_    0.823199 0.394247 0.237942 0.271073
H26   H     H_    0.889364 0.287738 0.299317 0.218716
H27   H     H_    0.754380 0.332315 0.347321 0.229051
C46   C     C_3   0.157673 0.639633 0.681973 -0.713075
H28   H     H_    0.110686 0.712259 0.700773 0.218722
H29   H     H_    0.176866 0.605707 0.762045 0.271076
H30   H     H_    0.245639 0.667708 0.652691 0.229031
N7    N     N_R   0.367951 0.957280 0.249216 0.133877
O17   O     O_R   0.265582 0.983411 0.198982 -0.341288
O18   O     O_R   0.431055 0.889729 0.192404 -0.360870
N8    N     N_R   0.632094 0.042716 0.750775 0.133900
O19   O     O_R   0.734450 0.016559 0.801003 -0.341287
O20   O     O_R   0.569013 0.110284 0.807592 -0.360850

loop_
_geom_bond_atom_site_label_1
_geom_bond_atom_site_label_2
_geom_bond_distance
_ccdc_geom_bond_type
C45   H25   1.109522 S    
C8    N6    1.441160 S    
C13   C15   1.420175 A    
C42   H16   1.105923 S    
N8    O20   1.301081 A    
C46   H28   1.106404 S    
C25   C27   1.391933 A    
C9    C22   1.486185 S    
C31   C32   1.423879 A    
O5    C3    1.309024 A    
C10   C21   1.486175 S    
N7    O17   1.300610 A    
O1    C1    1.305350 A    
C7    C9    1.413806 A    
C12   H4    1.084089 S    
C38   C41   1.510627 S    
C37   C39   1.437343 A    
C6    C16   1.405421 A    
C35   H10   1.079739 S    
C23   C28   1.398741 A    
C18   C46   1.523436 S    
N1    C36   1.357169 A    
O4    Cu1   1.959963 S    
C13   C43   1.506112 S    
Cu1   N1    2.036860 S    
Cu2   N2    2.036859 S    
N4    O11   1.301923 A    
N3    O10   1.300698 A    
C17   C19   1.411470 A    
C5    C15   1.405399 A    
C14   C44   1.506146 S    
C11   C13   1.403262 A    
C44   H23   1.109643 S    
C29   H6    1.081314 S    
C30   H5    1.081302 S    
O6    C4    1.309025 A    
C43   H20   1.109792 S    
C39   C40   1.402184 A    
C45   H26   1.106453 S    
C1    C24   1.450263 S    
O2    C2    1.305351 A    
N8    O19   1.300605 A    
C46   H29   1.109498 S    
C33   C40   1.418132 A    
C30   C32   1.393042 A    
C25   N7    1.436275 S    
C34   C39   1.418132 A    
C33   C35   1.399581 A    
C26   C31   1.413373 A    
C34   C36   1.399583 A    
C18   C21   1.404963 A    
C24   C27   1.398745 A    
O4    C2    1.296815 A    
N5    O14   1.301168 A    
C43   H19   1.109933 S    
C24   C29   1.391043 A    
C18   C20   1.411476 A    
C5    C7    1.399470 A    
O7    Cu2   1.982806 S    
C26   N8    1.436260 S    
C29   C31   1.393049 A    
C6    C8    1.399440 A    
C2    C23   1.450265 S    
N1    C38   1.397310 A    
C44   H24   1.109809 S    
C7    N5    1.441191 S    
O7    C3    1.299810 A    
O3    Cu2   1.959962 S    
O8    C4    1.299813 A    
C25   C32   1.413369 A    
C15   N3    1.442919 S    
C6    H2    1.082692 S    
C8    C10   1.413791 A    
N6    O15   1.301856 A    
C45   H27   1.107666 S    
N6    O16   1.301197 A    
C9    C11   1.400050 A    
C10   C12   1.400075 A    
O1    Cu1   1.967274 S    
C27   H8    1.083902 S    
C46   H30   1.107674 S    
C41   H14   1.105921 S    
N7    O18   1.301079 A    
C43   H21   1.109616 S    
C5    H1    1.082674 S    
O6    Cu2   1.970214 S    
C36   H9    1.079741 S    
C3    C20   1.468959 S    
C12   C14   1.403274 A    
O3    C1    1.296814 A    
O8    Cu1   1.982806 S    
C41   H15   1.099678 S    
N2    C35   1.357171 A    
C37   C42   1.510613 S    
C23   C30   1.391030 A    
C14   C16   1.420226 A    
C4    C19   1.468966 S    
C41   H13   1.099041 S    
C17   C45   1.523433 S    
C33   H11   1.078397 S    
C34   H12   1.078400 S    
C26   C28   1.391938 A    
C19   C21   1.416367 A    
C20   C22   1.416344 A    
C11   H3    1.084078 S    
O2    Cu2   1.967276 S    
C42   H18   1.099666 S    
N2    C37   1.397297 A    
C28   H7    1.083898 S    
N5    O13   1.301668 A    
O5    Cu1   1.970214 S    
N4    O12   1.300571 A    
N3    O9    1.302086 A    
C42   H17   1.099049 S    
C17   C22   1.404941 A    
C44   H22   1.109917 S    
Cu1   Cu2   2.711075 S    
C38   C40   1.437341 A    
C16   N4    1.442921 S    
