data_mof_unit_42651.cif
_audit_creation_date              2012-12-10T17:13:34-0500
_audit_creation_method            fapswitch 2.2
_symmetry_space_group_name_H-M    P1
_symmetry_Int_Tables_number       1
_space_group_crystal_system       triclinic
_cell_length_a                    11.089513
_cell_length_b                    13.071652
_cell_length_c                    11.809508
_cell_angle_alpha                 101.162576
_cell_angle_beta                  94.496497
_cell_angle_gamma                 92.186151
_cell_volume                      1671.84037475

loop_
_atom_site_label
_atom_site_type_symbol
_atom_type_description
_atom_site_fract_x
_atom_site_fract_y
_atom_site_fract_z
_atom_type_partial_charge
C1    C     C_R   0.505855 0.298840 0.477298 0.820414
C2    C     C_3   0.878791 0.497710 0.494640 -0.155100
C3    C     C_3   0.941302 0.612555 0.543256 -0.132966
C4    C     C_3   0.918367 0.467415 0.362515 0.083809
C5    C     C_R   0.470787 0.814840 0.537128 -0.139472
C6    C     C_R   0.512738 0.183326 0.462447 -0.111635
C7    C     C_R   0.480543 0.008063 0.341564 -0.085630
C8    C     C_R   0.501816 0.116666 0.351442 -0.074030
C9    C     C_R   0.524267 0.138058 0.561929 0.076990
C10   C     C_R   0.487153 0.032105 0.553074 0.104551
C11   C     C_R   0.467355 0.965593 0.442496 0.039665
C12   C     C_R   0.260421 0.500895 0.500100 0.768454
C13   C     C_R   0.441043 0.857716 0.437549 0.146147
C14   C     C_R   0.474844 0.882642 0.647289 -0.055246
C15   C     C_R   0.468747 0.990654 0.652987 0.102057
C16   C     C_R   0.394126 0.388924 0.016304 -0.142050
C17   C     C_R   0.398603 0.405463 0.139579 0.134536
C18   C     C_R   0.541482 0.548815 0.158694 0.161374
C19   C     C_R   0.536886 0.535909 0.035272 0.010249
C20   C     C_R   0.461636 0.457205 0.962456 -0.000798
C21   C     C_R   0.458038 0.449999 0.838814 0.063995
C22   C     C_R   0.600366 0.592711 0.863588 0.411162
C23   C     C_R   0.491670 0.700848 0.522706 0.784967
C24   C     C_R   0.610462 0.598336 0.982865 -0.185863
C25   C     C_R   0.740252 0.500228 0.498998 0.748195
C26   C     C_3   0.073533 0.403817 0.554254 -0.032379
C27   C     C_3   0.930074 0.415538 0.570163 -0.084082
C28   C     C_3   0.083198 0.611875 0.571934 -0.015676
C29   C     C_3   0.061626 0.486757 0.369151 -0.103953
C30   C     C_3   0.122990 0.502132 0.501128 -0.110517
Cu1   Cu    Cu3+1 0.509350 0.507730 0.615930 1.008241
Cu2   Cu    Cu3+1 0.490650 0.492270 0.384070 0.976434
H1    H     H_    0.930399 0.653898 0.471284 0.213048
H2    H     H_    0.403916 0.389028 0.780848 0.160438
H3    H     H_    0.679974 0.651946 0.033547 0.201541
H4    H     H_    0.096621 0.415590 0.319630 0.176550
N1    N     N_R   0.523430 0.519360 0.790130 -0.168301
N2    N     N_R   0.476570 0.480640 0.209880 -0.240281
O1    O     O_R   0.506640 0.354460 0.582000 -0.608263
O2    O     O_R   0.490840 0.341410 0.386200 -0.505496
O3    O     O_R   0.325590 0.506510 0.597900 -0.527143
O4    O     O_R   0.309790 0.493450 0.402100 -0.609743
O5    O     O_R   0.509160 0.658590 0.613800 -0.551506
O6    O     O_R   0.493360 0.645540 0.418000 -0.616120
O7    O     O_R   0.690210 0.506550 0.597900 -0.560346
O8    O     O_R   0.674410 0.493490 0.402100 -0.606716
C31   C     C_3   0.141781 0.389256 0.670553 -0.617956
H5    H     H_    0.234015 0.361523 0.658463 0.231190
H6    H     H_    0.149538 0.457653 0.741483 0.231932
H7    H     H_    0.093007 0.326780 0.703634 0.291121
C32   C     C_2   0.856393 0.533334 0.280643 0.433839
H8    H     H_    0.858113 0.617437 0.302941 0.040045
O9    O     O_2   0.808558 0.493748 0.184393 -0.552367
C33   C     C_2   0.148864 0.704010 0.536280 0.382035
H9    H     H_    0.246517 0.706885 0.539827 0.095101
O10   O     O_2   0.096403 0.778641 0.512353 -0.545447
C34   C     C_3   0.354713 0.796096 0.340301 -0.769456
H10   H     H_    0.402766 0.757683 0.266674 0.257836
H11   H     H_    0.302449 0.734765 0.370150 0.220533
H12   H     H_    0.286313 0.847330 0.310767 0.223258
C35   C     C_2   0.478500 0.845827 0.758406 0.397246
H13   H     H_    0.539292 0.886214 0.831110 0.072206
O11   O     O_2   0.406314 0.778237 0.773529 -0.463946
C36   C     C_2   0.486300 0.940339 0.225814 0.404870
H14   H     H_    0.404828 0.902157 0.176675 0.070437
O12   O     O_2   0.582407 0.932344 0.181872 -0.472660
C37   C     C_3   0.425637 0.058038 0.760537 -0.831833
H15   H     H_    0.352500 0.015429 0.794630 0.251780
H16   H     H_    0.501395 0.079738 0.829336 0.220608
H17   H     H_    0.383792 0.128842 0.740321 0.262268
C38   C     C_2   0.520643 0.156229 0.243836 0.553715
H18   H     H_    0.460549 0.128315 0.165951 0.056655
O13   O     O_2   0.607940 0.214192 0.238889 -0.550344
C39   C     C_3   0.598650 0.195747 0.670909 -0.682146
H19   H     H_    0.667254 0.250855 0.649734 0.272443
H20   H     H_    0.540738 0.240780 0.732649 0.220943
H21   H     H_    0.650665 0.140906 0.714034 0.238729
C40   C     C_2   0.106121 0.302345 0.473428 0.343046
H22   H     H_    0.170895 0.304880 0.410063 0.099984
O14   O     O_2   0.075001 0.215486 0.487734 -0.461918
C41   C     C_3   0.680780 0.670537 0.825548 -0.782751
H23   H     H_    0.675752 0.662373 0.732611 0.271515
H24   H     H_    0.657123 0.750478 0.864239 0.213006
H25   H     H_    0.775152 0.661400 0.859328 0.196268
C42   C     C_2   0.320868 0.296677 0.948208 0.303928
H26   H     H_    0.324272 0.222484 0.976384 0.108357
O15   O     O_2   0.250958 0.303661 0.865709 -0.571380
C43   C     C_2   0.298360 0.355546 0.187768 0.393603
H27   H     H_    0.207532 0.379061 0.169579 0.053476
O16   O     O_2   0.312551 0.281313 0.234625 -0.588579
C44   C     C_2   0.610251 0.640967 0.232230 0.398588
H28   H     H_    0.660423 0.635658 0.311835 0.120651
O17   O     O_2   0.607605 0.727064 0.207164 -0.555275
C45   C     C_2   0.857100 0.310099 0.537089 0.492797
H29   H     H_    0.778107 0.298911 0.475233 0.035866
O18   O     O_2   0.879594 0.238837 0.587562 -0.467731
C46   C     C_2   0.907366 0.454522 0.698881 0.438962
H30   H     H_    0.961384 0.517214 0.752941 0.045172
O19   O     O_2   0.828881 0.414249 0.746007 -0.516149
C47   C     C_2   0.120135 0.634974 0.702704 0.326249
H31   H     H_    0.058497 0.665864 0.765367 0.092023
O20   O     O_2   0.224773 0.632682 0.741690 -0.477612
C48   C     C_3   0.875805 0.688241 0.630211 -0.883566
H32   H     H_    0.784836 0.702742 0.591904 0.229413
H33   H     H_    0.868488 0.656003 0.707770 0.229666
H34   H     H_    0.926700 0.765207 0.655177 0.282645
C49   C     C_3   0.101409 0.569075 0.296511 -0.862968
H35   H     H_    0.063319 0.645862 0.323625 0.252394
H36   H     H_    0.199231 0.583060 0.294606 0.251352
H37   H     H_    0.068998 0.540271 0.203914 0.245119
C50   C     C_3   0.882846 0.352054 0.300534 -0.730481
H38   H     H_    0.911259 0.337058 0.210785 0.260314
H39   H     H_    0.925669 0.291487 0.339063 0.209801
H40   H     H_    0.783591 0.337271 0.294285 0.292080

loop_
_geom_bond_atom_site_label_1
_geom_bond_atom_site_label_2
_ccdc_geom_bond_type
C17   C43   S    
C11   C13   A    
C19   C20   A    
C6    C9    A    
C46   H30   S    
C7    C8    A    
C31   H6    S    
C42   H26   S    
C7    C11   A    
C29   H4    S    
C26   C27   S    
C26   C40   S    
Cu1   O5    S    
C18   C44   S    
C3    C28   S    
C10   C15   A    
C40   O14   D    
C34   H11   S    
C13   C34   S    
C3    H1    S    
C23   O5    A    
C18   C19   A    
C35   O11   D    
C12   O4    A    
C1    O2    A    
C41   H24   S    
Cu1   Cu2   S    
C16   C17   A    
C39   H21   S    
C49   H35   S    
C2    C27   S    
Cu2   N2    S    
C2    C25   S    
C9    C10   A    
C5    C13   A    
C4    C29   S    
C28   C47   S    
C49   H36   S    
C35   H13   S    
C46   O19   D    
C41   H23   S    
C31   H7    S    
C42   O15   D    
C33   O10   D    
C24   H3    S    
C39   H19   S    
C4    C32   S    
C37   H15   S    
C22   C41   S    
C48   H33   S    
C44   H28   S    
C38   O13   D    
C28   C33   S    
C40   H22   S    
C34   H12   S    
C6    C8    A    
C21   H2    S    
C14   C35   S    
C23   O6    A    
C32   H8    S    
C32   O9    D    
C36   O12   D    
C48   H34   S    
C2    C4    S    
C29   C30   S    
C44   O17   D    
C31   H5    S    
C5    C23   S    
C16   C20   A    
C15   C37   S    
C47   O20   D    
Cu2   O6    S    
C50   H39   S    
C20   C21   A    
C45   O18   D    
C5    C14   A    
C39   H20   S    
C26   C31   S    
C4    C50   S    
C43   O16   D    
C26   C30   S    
C16   C42   S    
C49   H37   S    
C22   C24   A    
C9    C39   S    
C25   O7    A    
C48   H32   S    
C41   H25   S    
C12   O3    A    
C3    C48   S    
C33   H9    S    
C27   C46   S    
C8    C38   S    
Cu1   O3    S    
C50   H38   S    
C12   C30   S    
Cu2   O8    S    
C37   H17   S    
C36   H14   S    
C28   C30   S    
C2    C3    S    
C18   N2    A    
C38   H18   S    
C22   N1    A    
C34   H10   S    
C47   H31   S    
Cu1   O1    S    
C19   C24   A    
C50   H40   S    
C17   N2    A    
Cu2   O2    S    
C45   H29   S    
C7    C36   S    
C10   C11   A    
C1    O1    A    
Cu1   N1    S    
C21   N1    A    
C43   H27   S    
Cu1   O7    S    
C1    C6    S    
Cu2   O4    S    
C14   C15   A    
C29   C49   S    
C27   C45   S    
C37   H16   S    
C25   O8    A    
