data_mof_unit_55061.cif
_audit_creation_date              2012-12-11T15:32:35-0500
_audit_creation_method            fapswitch 2.2
_symmetry_space_group_name_H-M    P1
_symmetry_Int_Tables_number       1
_space_group_crystal_system       triclinic
_cell_length_a                    6.965061
_cell_length_b                    20.446456
_cell_length_c                    24.251904
_cell_angle_alpha                 90.147855
_cell_angle_beta                  90.112091
_cell_angle_gamma                 90.224626
_cell_volume                      3453.68865264

loop_
_atom_site_label
_atom_site_type_symbol
_atom_type_description
_atom_site_fract_x
_atom_site_fract_y
_atom_site_fract_z
_atom_type_partial_charge
O1    O     O_R   0.507320 0.423560 0.460500 -0.531436
O2    O     O_R   0.170760 0.556250 0.437010 -0.536912
O3    O     O_R   0.004030 0.576440 0.539500 -0.541593
C1    C     C_R   0.339693 0.576155 0.421142 0.729600
O4    O     O_R   0.177370 0.422820 0.454110 -0.537209
O5    O     O_R   0.010680 0.442050 0.556720 -0.531806
C2    C     C_R   0.345400 0.398577 0.443494 0.839685
O6    O     O_R   0.500680 0.557950 0.443280 -0.533371
O7    O     O_3   0.340380 0.506470 0.533650 -0.375067
V1    V     V_3+5 0.064130 0.498800 0.493760 1.452420
O8    O     O_R   0.681160 0.443750 0.562990 -0.544059
C3    C     C_R   0.848998 0.423416 0.578587 0.723539
O9    O     O_R   0.674560 0.577180 0.545890 -0.534111
C4    C     C_R   0.843432 0.601030 0.556993 0.686764
V2    V     V_3+5 0.564560 0.501200 0.506240 1.450637
O10   O     O_3   0.838180 0.493530 0.466350 -0.360942
C5    C     C_R   0.964575 0.835419 0.913774 -0.244249
C6    C     C_R   0.849767 0.661483 0.590708 -0.141343
C7    C     C_R   0.873943 0.720090 0.916072 0.307615
C8    C     C_R   0.923365 0.778141 0.943893 0.222028
C9    C     C_R   0.962260 0.833499 0.855488 0.223602
C10   C     C_R   0.886219 0.777511 0.827195 -0.065365
C11   C     C_R   0.858660 0.718647 0.857426 -0.128755
C12   C     C_R   0.841353 0.778095 0.769319 -0.105342
C13   C     C_R   0.827663 0.717940 0.740023 -0.121190
C14   C     C_R   0.785946 0.660770 0.770972 0.336090
C15   C     C_R   0.812376 0.660070 0.828614 0.365224
C16   C     C_R   0.791018 0.836218 0.740439 0.357827
C17   C     C_R   0.781640 0.836377 0.682607 0.241026
C18   C     C_R   0.806852 0.777895 0.652616 -0.027024
C19   C     C_R   0.836557 0.717975 0.680816 0.005646
C20   C     C_R   0.792687 0.778030 0.594703 -0.126605
C21   C     C_R   0.806536 0.720310 0.564619 -0.227834
C22   C     C_R   0.879064 0.660762 0.648832 0.336251
H1    H     H_    0.784411 0.721627 0.520383 0.123384
H2    H     H_    0.763872 0.822615 0.572219 0.163576
C23   C     C_3   0.831564 0.301939 0.769526 0.167690
C24   C     C_3   0.031460 0.276325 0.786658 0.192741
C25   C     C_1   0.969489 0.120945 0.874980 -0.169495
C26   C     C_1   0.854811 0.377435 0.623903 -0.197615
C27   C     C_3   0.749896 0.231753 0.772456 0.294818
C28   C     C_3   0.949140 0.205666 0.790329 -0.102582
C29   C     C_3   0.799924 0.220615 0.711240 0.191968
C30   C     C_3   0.881109 0.291392 0.707477 -0.099906
C31   C     C_3   0.998084 0.194740 0.728552 0.191697
C32   C     C_3   0.080793 0.264967 0.725143 0.235334
C33   C     C_1   0.964589 0.158879 0.836618 0.057740
C34   C     C_1   0.861346 0.338628 0.661632 0.027761
C35   C     C_3   0.505657 0.719002 0.206330 -0.223374
C36   C     C_3   0.310059 0.696906 0.231334 0.268913
H3    H     H_    0.585327 0.694680 0.172464 0.140999
C37   C     C_1   0.350842 0.621289 0.375217 -0.180969
C38   C     C_1   0.472944 0.877899 0.124079 -0.187055
C39   C     C_3   0.579833 0.729079 0.266268 0.303244
C40   C     C_3   0.386332 0.705996 0.290736 -0.107891
C41   C     C_3   0.509825 0.800225 0.266148 0.272103
C42   C     C_3   0.432816 0.791215 0.206796 -0.058107
C43   C     C_3   0.315279 0.777764 0.289789 0.146421
C44   C     C_3   0.237597 0.768105 0.230623 0.247639
C45   C     C_1   0.364984 0.659356 0.337076 0.025503
C46   C     C_1   0.457243 0.838999 0.161530 0.037226
C47   C     C_R   0.468793 0.162596 0.089352 -0.195638
C48   C     C_R   0.345935 0.335523 0.413176 -0.170015
C49   C     C_R   0.431711 0.280365 0.090624 -0.228647
C50   C     C_R   0.457338 0.222299 0.061144 0.244919
C51   C     C_R   0.455551 0.161967 0.147941 0.312812
C52   C     C_R   0.402448 0.220165 0.177026 0.041720
C53   C     C_R   0.403637 0.280428 0.148178 -0.083891
C54   C     C_R   0.352202 0.220295 0.234438 -0.038336
C55   C     C_R   0.358732 0.279784 0.264856 -0.097109
C56   C     C_R   0.345174 0.339166 0.234720 0.271486
C57   C     C_R   0.371337 0.339611 0.177089 0.234011
C58   C     C_R   0.266266 0.165227 0.260021 0.258216
C59   C     C_R   0.234604 0.164785 0.317708 0.309634
C60   C     C_R   0.280319 0.220545 0.350268 -0.075441
C61   C     C_R   0.350780 0.278031 0.324052 -0.103417
C62   C     C_R   0.248424 0.221058 0.408441 0.285887
C63   C     C_R   0.267199 0.279980 0.438545 0.123551
C64   C     C_R   0.408117 0.332150 0.358197 0.317120
H4    H     H_    0.431519 0.325325 0.067295 0.142748
O11   O     O_R   0.323550 0.942140 0.056770 -0.539922
O12   O     O_R   0.647080 0.077200 0.045890 -0.550214
O13   O     O_R   0.813610 0.057920 0.943260 -0.528195
C65   C     C_R   0.478577 0.101272 0.056724 0.754610
O14   O     O_R   0.653470 0.943760 0.063000 -0.536927
O15   O     O_R   0.820050 0.923540 0.960490 -0.531728
C66   C     C_R   0.484512 0.923733 0.078733 0.719866
O16   O     O_R   0.317110 0.076520 0.039540 -0.527477
O17   O     O_3   0.483830 0.993580 0.966380 -0.362345
V3    V     V_3+5 0.760140 0.001190 0.006240 1.432083
O18   O     O_R   0.149510 0.922740 0.954070 -0.540806
C67   C     C_R   0.980100 0.898625 0.943473 0.705146
O19   O     O_R   0.143120 0.056170 0.936970 -0.531473
C68   C     C_R   0.975203 0.076072 0.921068 0.714926
V4    V     V_3+5 0.259690 0.998700 0.993700 1.449996
O20   O     O_3   0.986130 0.006420 0.033620 -0.371904
O21   O     O_3   0.790147 0.602252 0.857555 -0.620013
H5    H     H_    0.788032 0.564424 0.831972 0.328809
N1    N     N_2   0.160542 0.305919 0.826725 -0.515646
H6    H     H_    0.155161 0.284920 0.865279 0.256330
C69   C     C_3   0.169880 0.376801 0.827915 -0.522454
H7    H     H_    0.313765 0.392920 0.841519 0.205672
H8    H     H_    0.065467 0.396927 0.857773 0.194977
H9    H     H_    0.141736 0.398187 0.786769 0.205670
N2    N     N_2   0.736070 0.358394 0.792742 -0.513745
H10   H     H_    0.798971 0.402228 0.782050 0.270835
C70   C     C_3   0.686884 0.353190 0.850640 -0.534272
H11   H     H_    0.647523 0.402053 0.867085 0.187670
H12   H     H_    0.807922 0.333753 0.875313 0.197978
H13   H     H_    0.563367 0.319645 0.856121 0.233128
N3    N     N_2   0.257683 0.278575 0.695893 -0.513581
H14   H     H_    0.360630 0.243340 0.700854 0.304199
C71   C     C_3   0.332144 0.344520 0.697526 -0.504611
H15   H     H_    0.439491 0.350678 0.664218 0.199277
H16   H     H_    0.404788 0.353722 0.737430 0.237116
H17   H     H_    0.216653 0.380826 0.690959 0.198561
N4    N     N_2   0.092470 0.136283 0.708416 -0.504902
H18   H     H_    0.044043 0.093948 0.726798 0.262408
C72   C     C_3   0.113585 0.130507 0.649263 -0.559514
H19   H     H_    0.202136 0.087030 0.639611 0.186050
H20   H     H_    0.184577 0.174509 0.631977 0.228361
H21   H     H_    0.972654 0.123095 0.629037 0.194692
N5    N     N_2   0.674500 0.191648 0.670235 -0.527124
H22   H     H_    0.723096 0.197364 0.630429 0.254292
C73   C     C_3   0.604050 0.126692 0.682585 -0.506276
H23   H     H_    0.529446 0.106437 0.645893 0.177738
H24   H     H_    0.501611 0.128572 0.717498 0.258335
H25   H     H_    0.723175 0.093210 0.693158 0.200039
O22   O     O_3   0.579479 0.212142 0.798086 -0.637237
H26   H     H_    0.481866 0.244418 0.786896 0.323254
N6    N     N_2   0.198038 0.641106 0.213121 -0.507879
H27   H     H_    0.070453 0.636241 0.234217 0.295531
C74   C     C_3   0.302568 0.580457 0.208371 -0.536304
H28   H     H_    0.205508 0.541689 0.192163 0.210503
H29   H     H_    0.357757 0.565068 0.249299 0.202444
H30   H     H_    0.424144 0.586059 0.179224 0.203858
N7    N     N_2   0.052142 0.790326 0.210961 -0.457352
H31   H     H_    0.037396 0.840240 0.214352 0.260929
C75   C     C_3   0.995878 0.767242 0.156828 -0.442656
H32   H     H_    0.859341 0.790919 0.144429 0.192803
H33   H     H_    0.970709 0.713732 0.157284 0.222423
H34   H     H_    0.107237 0.779510 0.125778 0.178996
O23   O     O_3   0.957333 0.606917 0.674913 -0.627715
H35   H     H_    0.992914 0.573158 0.647555 0.279411
N8    N     N_2   0.218359 0.807387 0.336375 -0.492764
H36   H     H_    0.289878 0.799245 0.372965 0.248432
C76   C     C_3   0.160879 0.874807 0.329887 -0.502158
H37   H     H_    0.109300 0.894146 0.370026 0.185797
H38   H     H_    0.040408 0.878441 0.300289 0.226465
H39   H     H_    0.283348 0.905472 0.315956 0.209401
O24   O     O_3   0.618112 0.853924 0.284142 -0.632652
H40   H     H_    0.645048 0.845615 0.323645 0.285437
O25   O     O_3   0.760785 0.709072 0.284533 -0.616114
H41   H     H_    0.769052 0.723148 0.323604 0.295841
N9    N     N_2   0.357386 0.400451 0.148789 -0.527116
H42   H     H_    0.272086 0.400023 0.114016 0.256111
C77   C     C_3   0.538269 0.434465 0.141870 -0.588809
H43   H     H_    0.636356 0.405670 0.115222 0.200243
H44   H     H_    0.607967 0.442972 0.182531 0.204261
H45   H     H_    0.512484 0.482605 0.122203 0.201044
O26   O     O_3   0.530172 0.380954 0.340127 -0.639038
H46   H     H_    0.609028 0.363152 0.309648 0.290062
N10   N     N_2   0.211588 0.283582 0.495120 -0.523594
H47   H     H_    0.086776 0.260290 0.506748 0.247295
C78   C     C_3   0.364061 0.283828 0.535841 -0.503986
H48   H     H_    0.364757 0.236685 0.558442 0.187075
H49   H     H_    0.338594 0.324030 0.565715 0.212313
H50   H     H_    0.507514 0.291295 0.516741 0.178991
O27   O     O_3   0.142190 0.112398 0.341956 -0.618977
H51   H     H_    0.189497 0.071514 0.325001 0.285594
N11   N     N_2   0.470143 0.224222 0.002543 -0.516889
H52   H     H_    0.380621 0.258323 0.984755 0.250303
C79   C     C_3   0.664075 0.229221 0.981656 -0.539455
H53   H     H_    0.728748 0.276960 0.993708 0.178752
H54   H     H_    0.661767 0.225724 0.935947 0.213021
H55   H     H_    0.754371 0.188929 0.997803 0.207985
O28   O     O_3   0.505498 0.107109 0.178027 -0.645966
H56   H     H_    0.555911 0.072593 0.153435 0.267692
N12   N     N_2   0.275153 0.396899 0.260964 -0.474390
H57   H     H_    0.331474 0.440191 0.246461 0.283949
C80   C     C_3   0.068766 0.398960 0.267341 -0.521577
H58   H     H_    0.028541 0.443490 0.290871 0.200754
H59   H     H_    0.016977 0.355534 0.290495 0.199406
H60   H     H_    0.997786 0.400447 0.226275 0.187077
N13   N     N_2   0.173197 0.117280 0.226235 -0.487002
H61   H     H_    0.188671 0.069159 0.237744 0.263898
C81   C     C_3   0.980185 0.133894 0.209351 -0.484272
H62   H     H_    0.926157 0.096588 0.179750 0.200781
H63   H     H_    0.978608 0.182241 0.188517 0.189897
H64   H     H_    0.883389 0.135176 0.245706 0.217691
N14   N     N_2   0.202369 0.162071 0.436853 -0.448069
H65   H     H_    0.097624 0.165431 0.466587 0.247226
C82   C     C_3   0.367743 0.124943 0.454461 -0.485577
H66   H     H_    0.319506 0.078060 0.472934 0.186281
H67   H     H_    0.451221 0.152824 0.485781 0.175300
H68   H     H_    0.461598 0.113671 0.418698 0.208419
N15   N     N_2   0.739166 0.895770 0.654491 -0.518378
H69   H     H_    0.628033 0.922018 0.671671 0.283143
C83   C     C_3   0.905744 0.936173 0.643661 -0.541277
H70   H     H_    0.970957 0.953340 0.683029 0.221550
H71   H     H_    0.862296 0.979510 0.619181 0.187613
H72   H     H_    0.013958 0.908300 0.619661 0.199096
N16   N     N_2   0.830355 0.663743 0.948266 -0.442761
H73   H     H_    0.924674 0.655799 0.980391 0.274092
C84   C     C_3   0.631746 0.659499 0.965433 -0.432894
H74   H     H_    0.606832 0.612178 0.986653 0.182217
H75   H     H_    0.534474 0.661954 0.929118 0.205101
H76   H     H_    0.597033 0.699960 0.994393 0.189550
O29   O     O_3   0.927038 0.776619 0.001017 -0.657011
H77   H     H_    0.994489 0.815565 0.015789 0.280189
N17   N     N_2   0.047644 0.885899 0.825249 -0.473713
H78   H     H_    0.039959 0.931481 0.843337 0.248277
C85   C     C_3   0.236577 0.871640 0.803854 -0.496034
H79   H     H_    0.288263 0.913560 0.778846 0.198930
H80   H     H_    0.232377 0.827600 0.776946 0.202625
H81   H     H_    0.338581 0.863434 0.838425 0.177525
O30   O     O_3   0.691807 0.607756 0.747765 -0.629895
H82   H     H_    0.610911 0.623525 0.716898 0.302000
O31   O     O_3   0.728977 0.892006 0.767154 -0.641536
H83   H     H_    0.670351 0.879096 0.802683 0.285436

loop_
_geom_bond_atom_site_label_1
_geom_bond_atom_site_label_2
_ccdc_geom_bond_type
C13   C19   A    
C18   C20   A    
N11   H52   S    
C27   C28   S    
O17   V4    S    
C78   H48   S    
N9    C77   S    
V4    O20   S    
C49   H4    S    
C58   C59   A    
C4    C6    S    
O2    C1    A    
C76   H37   S    
C61   C64   A    
C1    O6    A    
C39   O25   S    
O26   H46   S    
C43   N8    S    
N5    H22   S    
C48   C64   A    
C84   H74   S    
N17   H78   S    
N11   C79   S    
C14   C15   A    
O19   C68   A    
C35   C39   S    
C1    C37   S    
C36   C44   S    
C49   C53   A    
C16   C17   A    
C76   H38   S    
N3    H14   S    
O22   H26   S    
N4    C72   S    
O5    C3    A    
C18   C19   A    
O11   V4    S    
C75   H34   S    
N5    C73   S    
C44   N7    S    
V2    O10   S    
C5    C8    A    
C35   C42   S    
C41   C42   S    
C72   H19   S    
O27   H51   S    
C56   N12   S    
N15   C83   S    
C59   O27   S    
C47   C65   S    
C37   C45   T    
O9    C4    A    
C21   H1    S    
O8    V2    S    
C77   H43   S    
C7    C8    A    
C82   H67   S    
C83   H72   S    
C70   H11   S    
C54   C58   A    
C55   C56   A    
O1    V2    S    
C11   C15   A    
C17   C18   A    
O7    V1    S    
C27   C29   S    
C62   C63   A    
C71   H17   S    
N2    C70   S    
C84   H75   S    
C51   C52   A    
O16   V4    S    
C63   N10   S    
O19   V4    S    
C57   N9    S    
C79   H53   S    
C40   C45   S    
C14   O30   S    
C23   C27   S    
C70   H12   S    
C54   C55   A    
C5    C67   S    
C38   C46   T    
C64   O26   S    
N16   C84   S    
N8    C76   S    
C30   C32   S    
O21   H5    S    
C79   H54   S    
C51   O28   S    
C39   C41   S    
C22   O23   S    
C81   H63   S    
C59   C60   A    
C47   C51   A    
O14   C66   A    
C52   C53   A    
C81   H64   S    
C69   H7    S    
C65   O16   A    
C76   H39   S    
C12   C13   A    
N3    C71   S    
O15   V3    S    
C80   H59   S    
O17   V3    S    
O18   C67   A    
O4    C2    A    
C16   O31   S    
C35   H3    S    
O30   H82   S    
C80   H58   S    
O13   C68   A    
C5    C9    A    
N14   H65   S    
C53   C57   A    
C52   C54   A    
C28   C31   S    
C62   N14   S    
C3    C26   S    
C7    C11   A    
C60   C61   A    
N14   C82   S    
C25   C68   S    
C23   N2    S    
C23   C24   S    
C73   H25   S    
N7    C75   S    
C58   N13   S    
N1    H6    S    
C85   H79   S    
O24   H40   S    
C82   H68   S    
C32   N3    S    
C7    N16   S    
O29   H77   S    
C19   C22   A    
C38   C66   S    
C8    O29   S    
C41   O24   S    
C42   C46   S    
C60   C62   A    
C2    C48   S    
O11   C66   A    
C72   H20   S    
O28   H56   S    
C74   H30   S    
N1    C69   S    
C50   N11   S    
C35   C36   S    
O6    V2    S    
O12   C65   A    
O9    V2    S    
C29   C30   S    
C55   C61   A    
C73   H23   S    
C70   H13   S    
C10   C12   A    
C43   C44   S    
C42   C44   S    
N6    H27   S    
O2    V1    S    
C29   N5    S    
N8    H36   S    
O31   H83   S    
C75   H32   S    
C25   C33   T    
C71   H15   S    
N7    H31   S    
C84   H76   S    
C31   N4    S    
C26   C34   T    
O13   V3    S    
C85   H81   S    
C39   C40   S    
C15   O21   S    
C80   H60   S    
C47   C50   A    
N17   C85   S    
O1    C2    A    
C12   C16   A    
C24   N1    S    
N6    C74   S    
O5    V1    S    
C31   C32   S    
C77   H44   S    
O14   V3    S    
C20   H2    S    
C79   H55   S    
V3    O20   S    
O3    C4    A    
C77   H45   S    
C78   H50   S    
N2    H10   S    
C17   N15   S    
C36   C40   S    
O12   V3    S    
C69   H8    S    
C49   C50   A    
C23   C30   S    
O23   H35   S    
C13   C14   A    
C85   H80   S    
O4    V1    S    
C29   C31   S    
O3    V1    S    
O15   C67   A    
N4    H18   S    
C20   C21   A    
C27   O22   S    
C75   H33   S    
N13   H61   S    
C74   H28   S    
V1    O10   S    
C6    C22   A    
C72   H21   S    
C41   C43   S    
C28   C33   S    
O7    V2    S    
N15   H69   S    
C6    C21   A    
C83   H71   S    
C24   C32   S    
N10   H47   S    
N13   C81   S    
C36   N6    S    
O18   V4    S    
N12   H57   S    
C24   C28   S    
C9    N17   S    
C83   H70   S    
C56   C57   A    
C78   H49   S    
C82   H66   S    
C40   C43   S    
N9    H42   S    
C73   H24   S    
C74   H29   S    
C10   C11   A    
N10   C78   S    
C81   H62   S    
C69   H9    S    
N16   H73   S    
N12   C80   S    
O25   H41   S    
C9    C10   A    
C30   C34   S    
O8    C3    A    
C71   H16   S    
C48   C63   A    
