data_mof_unit_28954.cif
_audit_creation_date              2012-12-10T17:20:54-0500
_audit_creation_method            fapswitch 2.2
_symmetry_space_group_name_H-M    P1
_symmetry_Int_Tables_number       1
_space_group_crystal_system       triclinic
_cell_length_a                    14.331897
_cell_length_b                    10.767325
_cell_length_c                    9.633421
_cell_angle_alpha                 89.622303
_cell_angle_beta                  89.69426
_cell_angle_gamma                 92.280039
_cell_volume                      1485.36035091

loop_
_atom_site_label
_atom_site_type_symbol
_atom_type_description
_atom_site_fract_x
_atom_site_fract_y
_atom_site_fract_z
_atom_type_partial_charge
C1    C     C_R   0.501035 0.263042 0.500383 0.805536
C2    C     C_1   0.771097 0.500269 0.499282 -0.195937
C3    C     C_R   0.672995 0.136317 0.550977 -0.153252
C4    C     C_R   0.755505 0.074362 0.571022 -0.128501
C5    C     C_R   0.755142 0.945248 0.564675 -0.135428
C6    C     C_R   0.672126 0.877383 0.539520 -0.181985
C7    C     C_R   0.587295 0.938155 0.521382 0.041296
C8    C     C_R   0.588199 0.069249 0.525249 0.096835
C9    C     C_R   0.504387 0.129656 0.500924 -0.152119
C10   C     C_R   0.421425 0.062871 0.474513 -0.281703
C11   C     C_R   0.418614 0.934040 0.475260 0.346035
C12   C     C_R   0.331252 0.498553 0.500323 0.889306
C13   C     C_R   0.501742 0.871480 0.498266 -0.223204
C14   C     C_R   0.621979 0.667137 0.141570 -0.129270
C15   C     C_R   0.680902 0.749848 0.068672 -0.201598
C16   C     C_R   0.681053 0.749842 0.925672 -0.199205
C17   C     C_R   0.622243 0.667165 0.854685 -0.123167
C18   C     C_R   0.559519 0.582661 0.924308 0.185334
C19   C     C_R   0.559508 0.582542 0.073628 0.202222
C20   C     C_R   0.444134 0.420815 0.076314 -0.077305
C21   C     C_R   0.443963 0.419584 0.929059 0.062896
C22   C     C_R   0.499002 0.737153 0.499503 0.877758
C23   C     C_R   0.668735 0.500507 0.499681 0.752002
C24   C     C_1   0.228849 0.498031 0.500834 -0.098899
C25   C     C_1   0.143393 0.498131 0.500903 0.025247
C26   C     C_1   0.042700 0.498597 0.500606 0.018936
C27   C     C_1   0.957241 0.499137 0.500143 0.011977
C28   C     C_1   0.856545 0.499812 0.499552 -0.008105
Cu1   Cu    Cu3+1 0.499990 0.499990 0.640660 0.951910
Cu2   Cu    Cu3+1 0.500010 0.500010 0.359340 0.958486
H1    H     H_    0.358153 0.112363 0.456613 0.182091
H2    H     H_    0.727825 0.813571 0.868949 0.160531
H3    H     H_    0.629947 0.673004 0.745487 0.189659
H4    H     H_    0.676274 0.236690 0.555268 0.125896
H5    H     H_    0.820074 0.126793 0.590485 0.141659
H6    H     H_    0.819461 0.897440 0.578950 0.144522
H7    H     H_    0.675291 0.777430 0.533313 0.097534
H8    H     H_    0.398845 0.355826 0.133866 0.146536
H9    H     H_    0.629314 0.673222 0.250860 0.189580
H10   H     H_    0.727525 0.813622 0.123905 0.160434
N1    N     N_R   0.500820 0.501210 0.147910 -0.195268
N2    N     N_R   0.500850 0.501290 0.852040 -0.207098
O1    O     O_R   0.499990 0.319640 0.618810 -0.570391
O2    O     O_R   0.500000 0.319660 0.381240 -0.576143
O3    O     O_R   0.376050 0.499990 0.618810 -0.557930
O4    O     O_R   0.376060 0.500010 0.381240 -0.535691
O5    O     O_R   0.500000 0.680340 0.618760 -0.582083
O6    O     O_R   0.500010 0.680360 0.381190 -0.575864
O7    O     O_R   0.623940 0.499990 0.618760 -0.584788
O8    O     O_R   0.623950 0.500010 0.381190 -0.576377
C29   C     C_R   0.382845 0.323847 0.863751 0.155914
C30   C     C_R   0.412445 0.201337 0.853876 -0.140085
C31   C     C_R   0.352409 0.107676 0.801446 -0.125924
C32   C     C_R   0.261987 0.135173 0.761059 -0.087075
C33   C     C_R   0.230873 0.255828 0.775735 -0.182188
C34   C     C_R   0.290522 0.349484 0.829277 -0.129789
H11   H     H_    0.482198 0.178806 0.885670 0.133645
H12   H     H_    0.376054 0.013858 0.791862 0.162867
H13   H     H_    0.215767 0.062725 0.719761 0.182211
H14   H     H_    0.160322 0.276607 0.746592 0.145136
H15   H     H_    0.265050 0.442012 0.843009 0.147509
S1    S     S_3+6 0.309381 0.853869 0.452766 -0.013150
O9    O     O_2   0.287646 0.777173 0.580549 -0.296956
O10   O     O_2   0.232705 0.943219 0.431186 -0.303390
O11   O     O_3   0.314169 0.759438 0.314876 -0.503935
H16   H     H_    0.337240 0.813563 0.237484 0.342305

loop_
_geom_bond_atom_site_label_1
_geom_bond_atom_site_label_2
_ccdc_geom_bond_type
C32   C33   A    
C22   O6    A    
C31   H12   S    
Cu2   N1    S    
C6    C7    A    
C34   H15   S    
Cu1   N2    S    
C16   H2    S    
Cu1   Cu2   S    
C20   H8    S    
C9    C10   A    
C12   C24   S    
C1    O2    A    
S1    O10   D    
S1    O11   S    
C7    C13   A    
C33   C34   A    
C11   S1    S    
C17   C18   A    
Cu2   O8    S    
C6    H7    S    
C7    C8    A    
O11   H16   S    
Cu1   O7    S    
C31   C32   A    
C20   C21   A    
C11   C13   A    
Cu2   O2    S    
C26   C27   T    
S1    O9    D    
C17   H3    S    
Cu1   O5    S    
C4    C5    A    
C10   H1    S    
Cu2   O6    S    
C25   C26   S    
Cu2   O4    S    
C13   C22   S    
C20   N1    A    
C32   H13   S    
C18   N2    A    
C5    C6    A    
C22   O5    A    
C15   H10   S    
C23   O7    A    
C16   C17   A    
C10   C11   A    
C29   C30   A    
C5    H6    S    
C19   N1    A    
C21   C29   S    
C1    C9    S    
C24   C25   T    
C12   O4    A    
C3    C8    A    
C30   H11   S    
Cu1   O3    S    
C2    C23   S    
C18   C19   A    
C4    H5    S    
C14   C15   A    
C8    C9    A    
C23   O8    A    
C2    C28   T    
C21   N2    A    
C3    H4    S    
C14   H9    S    
C33   H14   S    
C14   C19   A    
C1    O1    A    
Cu1   O1    S    
C3    C4    A    
C15   C16   A    
C30   C31   A    
C12   O3    A    
C27   C28   S    
C29   C34   A    
