data_mof_unit_45335.cif
_audit_creation_date              2013-03-05T15:40:33-0500
_audit_creation_method            fapswitch 2.2
_symmetry_space_group_name_H-M    P1
_symmetry_Int_Tables_number       1
_space_group_crystal_system       triclinic
_cell_length_a                    14.962483
_cell_length_b                    8.67298
_cell_length_c                    7.453662
_cell_angle_alpha                 102.816305
_cell_angle_beta                  94.132501
_cell_angle_gamma                 92.399876
_cell_volume                      939.040299991

loop_
_atom_site_label
_atom_site_type_symbol
_atom_site_description
_atom_site_fract_x
_atom_site_fract_y
_atom_site_fract_z
_atom_type_partial_charge
O1    O     O_R   0.506510 0.286130 0.619770 -0.584125
O2    O     O_R   0.493490 0.713870 0.380230 -0.584126
O3    O     O_R   0.489600 0.256770 0.308360 -0.585404
O4    O     O_R   0.510400 0.743230 0.691640 -0.585402
C1    C     C_R   0.497311 0.199811 0.453378 0.881824
C2    C     C_R   0.502689 0.800189 0.546622 0.881825
O5    O     O_R   0.378710 0.514640 0.655720 -0.583365
O6    O     O_R   0.621290 0.485360 0.344280 -0.583359
O7    O     O_R   0.361800 0.485290 0.344300 -0.569159
O8    O     O_R   0.638200 0.514710 0.655700 -0.569150
C3    C     C_R   0.329109 0.499401 0.502409 0.801656
C4    C     C_R   0.670891 0.500598 0.497591 0.801644
Cu1   Cu    Cu3+1 0.510010 0.517380 0.684380 0.982319
Cu2   Cu    Cu3+1 0.489990 0.482620 0.315620 0.982313
C5    C     C_R   0.819283 0.636949 0.581812 -0.142213
C6    C     C_R   0.180716 0.363066 0.418151 -0.142202
C7    C     C_R   0.767053 0.501042 0.493115 -0.073362
C8    C     C_R   0.232947 0.498962 0.506880 -0.073372
C9    C     C_R   0.806316 0.363807 0.407405 -0.168642
C10   C     C_R   0.193684 0.636204 0.592579 -0.168604
C11   C     C_R   0.899941 0.358810 0.414468 0.002623
C12   C     C_R   0.100058 0.641219 0.585469 0.002632
C13   C     C_R   0.953094 0.499175 0.499084 0.015938
C14   C     C_R   0.046905 0.500850 0.500863 0.015924
C15   C     C_R   0.912303 0.638127 0.582374 0.068851
C16   C     C_R   0.087695 0.361897 0.417567 0.068892
C17   C     C_R   0.941877 0.218846 0.336982 0.328093
C18   C     C_R   0.058120 0.781205 0.662883 0.327999
C19   C     C_R   0.035380 0.223148 0.336590 -0.177131
C20   C     C_R   0.964616 0.776892 0.663293 -0.177138
H1    H     H_    0.787109 0.742251 0.647566 0.153523
H2    H     H_    0.212889 0.257764 0.352389 0.153507
H3    H     H_    0.762984 0.261883 0.337728 0.183252
H4    H     H_    0.237020 0.738115 0.662287 0.183259
H5    H     H_    0.067603 0.116076 0.277351 0.212913
H6    H     H_    0.932386 0.883970 0.722474 0.213042
C21   C     C_2   0.496028 0.031937 0.427092 -0.339956
C22   C     C_2   0.503972 0.968063 0.572908 -0.339950
H7    H     H_    0.488537 0.960562 0.286500 0.181715
H8    H     H_    0.511462 0.039438 0.713500 0.181717
N1    N     N_2   0.474890 0.456420 0.038520 -0.212952
N2    N     N_2   0.525110 0.543580 0.961480 -0.212949
H9    H     H_    0.430077 0.377572 0.948713 0.236004
H10   H     H_    0.569923 0.622427 0.051287 0.236008
N3    N     N_R   0.891448 0.070559 0.264300 0.118574
O9    O     O_R   0.834208 0.018099 0.363421 -0.385728
O10   O     O_R   0.915221 0.974322 0.117641 -0.345310
N4    N     N_R   0.108541 0.929532 0.735390 0.118580
O11   O     O_R   0.165855 0.981787 0.636263 -0.385784
O12   O     O_R   0.084662 0.026016 0.881750 -0.345242

loop_
_geom_bond_atom_site_label_1
_geom_bond_atom_site_label_2
_geom_bond_distance
_ccdc_geom_bond_type
C4    C7    1.441473 S    
O5    C3    1.294853 A    
C13   C14   1.402185 A    
C2    C22   1.424489 S    
C3    C8    1.441476 S    
C5    H1    1.085488 S    
C21   C22   1.325257 D    
C1    C21   1.424489 S    
C17   C19   1.398198 A    
N1    H9    1.029150 S    
N1    N2    1.293447 D    
C19   H5    1.084454 S    
C20   H6    1.084447 S    
O6    C4    1.294851 A    
C10   H4    1.082283 S    
C17   N3    1.437905 S    
N4    O12   1.301608 A    
C11   C17   1.416271 A    
C21   H7    1.087829 S    
C6    C8    1.392786 A    
C12   C18   1.416302 A    
N3    O9    1.301566 A    
C22   H8    1.087829 S    
O7    C3    1.291191 A    
O2    C2    1.293224 A    
O3    Cu2   1.947255 S    
N2    H10   1.029149 S    
Cu2   N1    2.022083 S    
O1    C1    1.293223 A    
O8    C4    1.291193 A    
C18   C20   1.398227 A    
Cu1   N2    2.022083 S    
C9    C11   1.400910 A    
C10   C12   1.400927 A    
C8    C10   1.394727 A    
C13   C15   1.412284 A    
C11   C13   1.420666 A    
C6    C16   1.391112 A    
O2    Cu2   1.953525 S    
C12   C14   1.420675 A    
C5    C15   1.391122 A    
C6    H2    1.085497 S    
O5    Cu1   1.959363 S    
O1    Cu1   1.953525 S    
C16   C19   1.398535 A    
O4    C2    1.284296 A    
C9    H3    1.082272 S    
N3    O10   1.301642 A    
C15   C20   1.398532 A    
C5    C7    1.392783 A    
O7    Cu2   1.945695 S    
N4    O11   1.301569 A    
O6    Cu2   1.959363 S    
C7    C9    1.394715 A    
Cu1   Cu2   2.691029 S    
C18   N4    1.437939 S    
O4    Cu1   1.947255 S    
C14   C16   1.412299 A    
O3    C1    1.284296 A    
O8    Cu1   1.945695 S    
