data_mof_unit_13879.cif
_audit_creation_date              2013-03-05T15:44:08-0500
_audit_creation_method            fapswitch 2.2
_symmetry_space_group_name_H-M    P1
_symmetry_Int_Tables_number       1
_space_group_crystal_system       triclinic
_cell_length_a                    19.706434
_cell_length_b                    11.344536
_cell_length_c                    19.727065
_cell_angle_alpha                 89.833146
_cell_angle_beta                  95.327583
_cell_angle_gamma                 89.610239
_cell_volume                      4391.00862615

loop_
_atom_site_label
_atom_site_type_symbol
_atom_site_description
_atom_site_fract_x
_atom_site_fract_y
_atom_site_fract_z
_atom_type_partial_charge
O1    O     O_R   0.783100 0.287550 0.345460 -0.523297
O2    O     O_R   0.216900 0.287550 0.654540 -0.537492
O3    O     O_R   0.283100 0.787550 0.345460 -0.529114
O4    O     O_R   0.716900 0.787550 0.654540 -0.523312
O5    O     O_R   0.760020 0.037400 0.337700 -0.538102
O6    O     O_R   0.239980 0.037400 0.662300 -0.519108
O7    O     O_R   0.260020 0.537400 0.337700 -0.535747
O8    O     O_R   0.739980 0.537400 0.662300 -0.535437
C1    C     C_R   0.722757 0.955520 0.359946 0.546077
C2    C     C_R   0.292581 0.993326 0.632712 0.525011
C3    C     C_R   0.221690 0.458642 0.361405 0.542369
C4    C     C_R   0.777183 0.455593 0.639969 0.552540
O9    O     O_R   0.666600 0.921990 0.332020 -0.428210
O10   O     O_R   0.333400 0.921990 0.667980 -0.444709
O11   O     O_R   0.166600 0.421990 0.332020 -0.424410
O12   O     O_R   0.833400 0.421990 0.667980 -0.426078
O13   O     O_R   0.557260 0.082670 0.312540 -0.500818
O14   O     O_R   0.442740 0.082670 0.687460 -0.501424
O15   O     O_R   0.057260 0.582670 0.312540 -0.503093
O16   O     O_R   0.942740 0.582670 0.687460 -0.503113
C5    C     C_R   0.534459 0.178924 0.337440 0.556042
C6    C     C_R   0.464218 0.178957 0.661581 0.570389
C7    C     C_R   0.035946 0.678798 0.338537 0.548336
C8    C     C_R   0.965498 0.678427 0.662520 0.552270
O17   O     O_R   0.548410 0.285740 0.316480 -0.444957
O18   O     O_R   0.451590 0.285740 0.683520 -0.425193
O19   O     O_R   0.048410 0.785740 0.316480 -0.442549
O20   O     O_R   0.951590 0.785740 0.683520 -0.443938
O21   O     O_R   0.680500 0.375040 0.327000 -0.428764
O22   O     O_R   0.319500 0.375040 0.673000 -0.450642
O23   O     O_R   0.180500 0.875040 0.327000 -0.432907
O24   O     O_R   0.819500 0.875040 0.673000 -0.427344
C9    C     C_R   0.727010 0.320004 0.368702 0.553728
C10   C     C_R   0.260208 0.363472 0.639160 0.544239
C11   C     C_R   0.227317 0.820770 0.368446 0.545860
C12   C     C_R   0.772836 0.820991 0.631560 0.553569
O25   O     O_R   0.780350 0.286720 0.192720 -0.460578
O26   O     O_R   0.219650 0.286720 0.807280 -0.459194
O27   O     O_R   0.280350 0.786720 0.192720 -0.458186
O28   O     O_R   0.719650 0.786720 0.807280 -0.468633
O29   O     O_R   0.757470 0.036630 0.196110 -0.487547
O30   O     O_R   0.242530 0.036630 0.803890 -0.477589
O31   O     O_R   0.257470 0.536630 0.196110 -0.480609
O32   O     O_R   0.742530 0.536630 0.803890 -0.477007
C13   C     C_R   0.722424 0.955444 0.163286 0.570034
C14   C     C_R   0.275693 0.950338 0.834483 0.558113
C15   C     C_R   0.222781 0.454968 0.163627 0.554712
C16   C     C_R   0.777410 0.454938 0.836652 0.556236
O33   O     O_R   0.663840 0.921160 0.179280 -0.469126
O34   O     O_R   0.336160 0.921160 0.820720 -0.482593
O35   O     O_R   0.163840 0.421160 0.179280 -0.487091
O36   O     O_R   0.836160 0.421160 0.820720 -0.507629
O37   O     O_R   0.554710 0.081900 0.170950 -0.439044
O38   O     O_R   0.445290 0.081900 0.829050 -0.423518
O39   O     O_R   0.054710 0.581900 0.170950 -0.438887
O40   O     O_R   0.945290 0.581900 0.829050 -0.493188
C17   C     C_R   0.536323 0.180800 0.139980 0.606347
C18   C     C_R   0.445714 0.183786 0.863431 0.596608
C19   C     C_R   0.032161 0.679637 0.141613 0.603475
C20   C     C_R   0.966054 0.678737 0.859498 0.590678
O41   O     O_R   0.545650 0.284910 0.163740 -0.456318
O42   O     O_R   0.454350 0.284910 0.836260 -0.471147
O43   O     O_R   0.045650 0.784910 0.163740 -0.476132
O44   O     O_R   0.954350 0.784910 0.836260 -0.456587
O45   O     O_R   0.677950 0.374280 0.185410 -0.508345
O46   O     O_R   0.322050 0.374280 0.814590 -0.539059
O47   O     O_R   0.177950 0.874280 0.185410 -0.510920
O48   O     O_R   0.822050 0.874280 0.814590 -0.500589
C21   C     C_R   0.736742 0.358494 0.164191 0.562090
C22   C     C_R   0.264442 0.354623 0.837090 0.561495
C23   C     C_R   0.235397 0.853947 0.162234 0.565804
C24   C     C_R   0.763351 0.857248 0.836026 0.561454
Cr1   Cr    Cr6+3 0.765780 0.160710 0.267420 1.091528
Cr2   Cr    Cr6+3 0.234220 0.160710 0.732580 1.094914
Cr3   Cr    Cr6+3 0.265780 0.660710 0.267420 1.093514
Cr4   Cr    Cr6+3 0.734220 0.660710 0.732580 1.095032
Cr5   Cr    Cr6+3 0.612200 0.009560 0.248850 1.153955
Cr6   Cr    Cr6+3 0.387800 0.009560 0.751150 1.169507
Cr7   Cr    Cr6+3 0.112200 0.509560 0.248850 1.152108
Cr8   Cr    Cr6+3 0.887800 0.509560 0.751150 1.126626
Cr9   Cr    Cr6+3 0.616030 0.323720 0.248510 1.164017
Cr10  Cr    Cr6+3 0.383970 0.323720 0.751490 1.135391
Cr11  Cr    Cr6+3 0.116030 0.823720 0.248510 1.146259
Cr12  Cr    Cr6+3 0.883970 0.823720 0.751490 1.164494
O49   O     O_3   0.664670 0.164660 0.254930 -0.352316
O50   O     O_3   0.335330 0.164660 0.745070 -0.343728
O51   O     O_3   0.164670 0.664660 0.254930 -0.352564
O52   O     O_3   0.835330 0.664660 0.745070 -0.347035
C25   C     C_1   0.485595 0.163234 0.593912 0.113023
C26   C     C_1   0.507931 0.162164 0.402764 0.082715
C27   C     C_1   0.991638 0.659779 0.597092 0.095070
C28   C     C_1   0.014414 0.660811 0.406050 0.093357
C29   C     C_1   0.496971 0.149535 0.461950 0.108455
C30   C     C_1   0.492878 0.150906 0.533848 0.137445
C31   C     C_1   0.006731 0.646097 0.465958 0.127722
C32   C     C_1   0.002211 0.645052 0.537914 0.125760
C33   C     C_3   0.690307 0.448322 0.545078 -0.213162
C34   C     C_3   0.304291 0.463502 0.460790 -0.203584
C35   C     C_3   0.200329 0.958127 0.543135 -0.212077
C36   C     C_3   0.809253 0.946679 0.454635 -0.213017
H1    H     H_    0.680703 0.543627 0.549440 0.107998
H2    H     H_    0.315060 0.555281 0.449021 0.108538
H3    H     H_    0.182104 0.049712 0.549964 0.114530
H4    H     H_    0.819114 0.041655 0.449321 0.107206
H5    H     H_    0.655721 0.408961 0.580568 0.190991
H6    H     H_    0.339869 0.413289 0.430672 0.184618
H7    H     H_    0.174655 0.906328 0.581265 0.204537
H8    H     H_    0.843720 0.905548 0.419472 0.190710
C37   C     C_3   0.672104 0.405606 0.471833 0.258202
C38   C     C_3   0.318931 0.439134 0.537597 0.284013
C39   C     C_3   0.179081 0.917228 0.470280 0.255054
C40   C     C_3   0.827350 0.905127 0.528218 0.258193
H9    H     H_    0.294222 0.101861 0.498445 0.145250
H10   H     H_    0.669533 0.066570 0.456664 0.152472
H11   H     H_    0.830562 0.563667 0.542084 0.154234
H12   H     H_    0.173600 0.596304 0.449735 0.138289
H13   H     H_    0.286815 0.031119 0.396099 0.145955
H14   H     H_    0.715278 0.039961 0.576843 0.153088
H15   H     H_    0.784079 0.538090 0.422707 0.151512
H16   H     H_    0.207590 0.582623 0.573034 0.148180
C41   C     C_3   0.817242 0.474806 0.526314 -0.253366
C42   C     C_3   0.178213 0.507297 0.471222 -0.223534
C43   C     C_3   0.314807 0.017001 0.506849 -0.257765
C44   C     C_3   0.682431 0.977350 0.473255 -0.249726
C45   C     C_3   0.774976 0.282529 0.563826 0.062529
C46   C     C_3   0.214843 0.302441 0.448764 0.054041
C47   C     C_3   0.302371 0.818167 0.555542 0.094298
C48   C     C_3   0.723998 0.783059 0.437309 0.062265
C49   C     C_3   0.764568 0.416445 0.570149 -0.013592
C50   C     C_3   0.230159 0.432717 0.434106 -0.014131
C51   C     C_3   0.278278 0.948925 0.561112 -0.026176
C52   C     C_3   0.734974 0.916641 0.429940 -0.013042
H17   H     H_    0.732314 0.238292 0.586389 0.160274
H18   H     H_    0.255038 0.247715 0.428165 0.128166
H19   H     H_    0.275782 0.767795 0.593511 0.128393
H20   H     H_    0.766050 0.736748 0.414424 0.157692
C53   C     C_3   0.739369 0.358341 0.441900 0.025523
C54   C     C_3   0.249898 0.399442 0.565842 0.010839
C55   C     C_3   0.243734 0.867432 0.438186 0.035176
C56   C     C_3   0.760259 0.859520 0.558424 0.024343
C57   C     C_3   0.796756 0.454692 0.449837 -0.258553
C58   C     C_3   0.193986 0.496595 0.550064 -0.277304
C59   C     C_3   0.300343 0.963028 0.435954 -0.245195
C60   C     C_3   0.702689 0.956886 0.549939 -0.257452
C61   C     C_3   0.772174 0.254506 0.486585 -0.238838
C62   C     C_3   0.218566 0.289656 0.526700 -0.209387
C63   C     C_3   0.279840 0.771168 0.484574 -0.252287
C64   C     C_3   0.727751 0.755729 0.514675 -0.236888
H21   H     H_    0.745413 0.174708 0.476400 0.102317
H22   H     H_    0.244930 0.212602 0.547667 0.114078
H23   H     H_    0.248024 0.696958 0.491222 0.108580
H24   H     H_    0.755155 0.675831 0.525324 0.102983
H25   H     H_    0.824360 0.236352 0.471968 0.170941
H26   H     H_    0.166413 0.274726 0.541910 0.193827
H27   H     H_    0.324963 0.737946 0.460834 0.177682
H28   H     H_    0.675903 0.738189 0.530006 0.175961
H29   H     H_    0.868442 0.435919 0.537733 0.204512
H30   H     H_    0.125482 0.477130 0.458046 0.196846
H31   H     H_    0.370038 0.026690 0.521609 0.202011
H32   H     H_    0.631044 0.940558 0.461880 0.208859
H33   H     H_    0.843000 0.423776 0.426501 0.178499
H34   H     H_    0.146514 0.471294 0.572812 0.159645
H35   H     H_    0.348864 0.924524 0.421021 0.204925
H36   H     H_    0.656455 0.926811 0.573288 0.181540
C65   C     C_3   0.494040 0.322242 0.959071 0.237124
C66   C     C_3   0.518350 0.316255 0.037351 0.225055
C67   C     C_3   0.980455 0.804364 0.964386 0.246393
C68   C     C_3   0.014347 0.806162 0.036723 0.241461
H37   H     H_    0.380832 0.241344 0.982117 0.204490
H38   H     H_    0.608003 0.145047 0.031313 0.189298
H39   H     H_    0.880762 0.619066 0.945638 0.160461
H40   H     H_    0.116134 0.624053 0.055203 0.160092
C69   C     C_3   0.410454 0.158954 0.980230 -0.099565
C70   C     C_3   0.558745 0.099363 0.026762 -0.094779
C71   C     C_3   0.931517 0.590165 0.969020 -0.085942
C72   C     C_3   0.065332 0.593494 0.033800 -0.080321
C73   C     C_3   0.534059 0.092492 0.948927 0.318933
C74   C     C_3   0.432766 0.132158 0.057958 0.341977
C75   C     C_3   0.060504 0.607963 0.952324 0.348623
C76   C     C_3   0.936420 0.609091 0.050767 0.365637
C77   C     C_3   0.472207 0.186783 0.936096 -0.047152
C78   C     C_3   0.509705 0.180421 0.067426 -0.064087
C79   C     C_3   0.987186 0.670244 0.934003 -0.060306
C80   C     C_3   0.009192 0.673192 0.067767 -0.041193
C81   C     C_1   0.760587 0.429420 0.904470 0.066149
C82   C     C_1   0.240807 0.427796 0.096513 0.085671
C83   C     C_1   0.254791 0.913331 0.899460 0.089486
C84   C     C_1   0.738905 0.929752 0.095433 0.088395
C85   C     C_1   0.749269 0.408629 0.035320 0.078781
C86   C     C_1   0.254673 0.402512 0.966586 0.089816
C87   C     C_1   0.242697 0.889655 0.030330 0.080288
C88   C     C_1   0.750148 0.906752 0.964751 0.070745
C89   C     C_1   0.753280 0.418595 0.964289 0.073746
C90   C     C_1   0.249508 0.415014 0.037212 0.096879
C91   C     C_1   0.245704 0.897531 0.958692 0.100732
C92   C     C_1   0.746141 0.918048 0.035710 0.067954
C93   C     C_1   0.745617 0.393513 0.095497 0.075962
C94   C     C_1   0.257518 0.386852 0.906432 0.084873
C95   C     C_1   0.241416 0.880231 0.091407 0.074664
C96   C     C_1   0.754106 0.891506 0.904671 0.078693
N1    N     N_3   0.434228 0.404696 0.951250 -0.595626
H41   H     H_    0.410516 0.414096 0.902550 0.276389
H42   H     H_    0.449621 0.490495 0.964375 0.306125
N2    N     N_3   0.591365 0.348220 0.043418 -0.583178
H43   H     H_    0.620573 0.311606 0.084325 0.226188
H44   H     H_    0.599853 0.438871 0.040028 0.298077
N3    N     N_3   0.906927 0.829892 0.967529 -0.581332
H45   H     H_    0.879897 0.813481 0.921088 0.229202
H46   H     H_    0.896497 0.917489 0.979326 0.306422
N4    N     N_3   0.087397 0.835152 0.034542 -0.576419
H47   H     H_    0.116061 0.811207 0.079060 0.216326
H48   H     H_    0.095736 0.925444 0.029467 0.302004
N5    N     N_R   0.546787 0.375485 0.917442 0.135744
O53   O     O_R   0.532009 0.469419 0.880608 -0.282734
O54   O     O_R   0.609571 0.338946 0.920142 -0.282223
N6    N     N_R   0.481362 0.407096 0.076192 0.128377
O55   O     O_R   0.514131 0.494557 0.106525 -0.273153
O56   O     O_R   0.415522 0.407198 0.077456 -0.292141
N7    N     N_R   0.009430 0.903558 0.925251 0.145359
O57   O     O_R   0.972385 0.996086 0.907316 -0.266721
O58   O     O_R   0.070879 0.901181 0.906573 -0.263912
N8    N     N_R   0.982708 0.904959 0.073747 0.114737
O59   O     O_R   0.995599 0.013930 0.058612 -0.276355
O60   O     O_R   0.935982 0.888121 0.114853 -0.249028
N9    N     N_R   0.386281 0.195043 0.100681 0.119975
O61   O     O_R   0.320934 0.189315 0.083998 -0.359128
O62   O     O_R   0.405528 0.218735 0.164070 -0.259475
N10   N     N_R   0.591280 0.123189 0.908128 0.132259
O63   O     O_R   0.654075 0.101894 0.931701 -0.354487
O64   O     O_R   0.580054 0.142210 0.842886 -0.237298
N11   N     N_R   0.878541 0.681300 0.070544 0.108812
O65   O     O_R   0.821005 0.681841 0.032370 -0.384644
O66   O     O_R   0.874787 0.703023 0.134891 -0.245514
N12   N     N_R   0.116567 0.680882 0.931188 0.118480
O67   O     O_R   0.176373 0.671337 0.964798 -0.378176
O68   O     O_R   0.115830 0.708470 0.866961 -0.251402
N13   N     N_R   0.514389 0.969836 0.928332 0.090896
O69   O     O_R   0.476815 0.904174 0.963206 -0.314720
O70   O     O_R   0.543003 0.918483 0.879134 -0.236828
N14   N     N_R   0.428168 0.006422 0.078735 0.107534
O71   O     O_R   0.386943 0.933956 0.045447 -0.314043
O72   O     O_R   0.444057 0.978860 0.142300 -0.267833
N15   N     N_R   0.068468 0.494011 0.915886 0.088045
O73   O     O_R   0.107181 0.410512 0.943461 -0.352971
O74   O     O_R   0.061502 0.493232 0.849658 -0.269472
N16   N     N_R   0.932407 0.496923 0.091112 0.125671
O75   O     O_R   0.902783 0.403082 0.065494 -0.313840
O76   O     O_R   0.936726 0.502019 0.157269 -0.254192
N17   N     N_3   0.578586 0.984275 0.057554 -0.576070
H49   H     H_    0.607612 0.936987 0.025103 0.269460
H50   H     H_    0.538224 0.931637 0.068360 0.337948
N18   N     N_3   0.358427 0.084748 0.945965 -0.654555
H51   H     H_    0.317652 0.079601 0.975822 0.276770
H52   H     H_    0.377397 0.002732 0.934597 0.328741
N19   N     N_3   0.062724 0.470542 0.058157 -0.531111
H53   H     H_    0.110754 0.431586 0.061084 0.269384
H54   H     H_    0.029783 0.416771 0.028428 0.333724
N20   N     N_3   0.935422 0.463505 0.952273 -0.574101
H55   H     H_    0.886775 0.428112 0.949067 0.266065
H56   H     H_    0.952379 0.441505 0.905980 0.309081
N21   N     N_R   0.617834 0.319285 0.474456 0.063025
O77   O     O_R   0.629502 0.225221 0.511320 -0.475532
O78   O     O_R   0.555815 0.361101 0.469399 -0.305284
N22   N     N_R   0.373311 0.350726 0.545256 0.101554
O79   O     O_R   0.365121 0.252681 0.512695 -0.492518
O80   O     O_R   0.435602 0.387381 0.559006 -0.261821
N23   N     N_R   0.124109 0.832082 0.473591 0.060982
O81   O     O_R   0.132655 0.744909 0.516395 -0.468827
O82   O     O_R   0.062020 0.868794 0.457055 -0.282898
N24   N     N_R   0.881736 0.817798 0.526460 0.061367
O83   O     O_R   0.870409 0.724116 0.489728 -0.476824
O84   O     O_R   0.943629 0.858564 0.531767 -0.295233
N25   N     N_3   0.644507 0.503306 0.430067 -0.475120
H57   H     H_    0.604271 0.543791 0.452352 0.304717
H58   H     H_    0.683105 0.562762 0.434331 0.227267
N26   N     N_3   0.346398 0.543132 0.574103 -0.528084
H59   H     H_    0.375922 0.593557 0.543942 0.292164
H60   H     H_    0.312148 0.590411 0.600202 0.221695
N27   N     N_3   0.152318 0.017011 0.429512 -0.481144
H61   H     H_    0.111942 0.056419 0.452157 0.306804
H62   H     H_    0.191075 0.077521 0.432505 0.219904
N28   N     N_3   0.854576 0.003161 0.569057 -0.473927
H63   H     H_    0.894967 0.042258 0.546670 0.301215
H64   H     H_    0.816010 0.063493 0.563436 0.224389
N29   N     N_R   0.838989 0.241483 0.602253 0.057988
O85   O     O_R   0.898309 0.253361 0.578989 -0.352327
O86   O     O_R   0.836116 0.190636 0.661305 -0.283163
N30   N     N_R   0.147064 0.265463 0.416078 0.050896
O87   O     O_R   0.090876 0.281840 0.444896 -0.361847
O88   O     O_R   0.142729 0.215388 0.356331 -0.281424
N31   N     N_R   0.377467 0.803948 0.570762 0.069524
O89   O     O_R   0.419643 0.832953 0.526560 -0.360612
O90   O     O_R   0.402395 0.752296 0.626791 -0.281647
N32   N     N_R   0.659086 0.744390 0.400310 0.054872
O91   O     O_R   0.600577 0.756637 0.425365 -0.344746
O92   O     O_R   0.660321 0.694849 0.340814 -0.284219

loop_
_geom_bond_atom_site_label_1
_geom_bond_atom_site_label_2
_geom_bond_distance
_ccdc_geom_bond_type
O7    Cr3   1.977886 S    
C18   O42   1.283883 A    
C35   H3    1.109672 S    
C39   C55   1.576499 S    
O4    C12   1.289186 A    
C76   N11   1.481893 S    
C57   H33   1.113520 S    
C65   C66   1.574906 S    
C34   C38   1.539706 S    
C46   N30   1.491652 S    
O20   Cr12  2.021523 S    
N1    H41   1.033470 S    
C40   C56   1.588887 S    
C55   C59   1.564556 S    
C31   C32   1.430527 S    
C66   C78   1.665122 S    
O8    Cr4   1.982499 S    
Cr8   O52   2.032361 S    
N9    O62   1.301937 A    
O1    Cr1   2.116391 S    
C70   C78   1.599754 S    
O29   Cr1   1.989733 S    
C74   N14   1.488662 S    
C46   C62   1.538764 S    
O1    C9    1.287283 A    
O27   Cr3   2.090310 S    
O46   C22   1.277487 A    
N5    O53   1.303969 A    
C48   N32   1.482423 S    
C55   C63   1.548865 S    
N28   H63   1.046067 S    
C29   C30   1.428207 S    
H12   C42   1.093901 S    
O36   Cr8   2.046963 S    
C18   C77   1.479893 S    
H11   C41   1.082677 S    
O24   C12   1.326978 A    
C53   C61   1.568540 S    
H13   C59   1.113853 S    
C87   C95   1.211904 T    
N6    O56   1.300014 A    
O39   C19   1.305220 A    
C48   H20   1.109726 S    
O26   Cr2   2.093505 S    
N32   O91   1.302703 A    
C65   N5    1.511249 S    
C73   C77   1.617825 S    
O47   C23   1.279457 A    
C24   C96   1.437335 S    
C46   C50   1.542326 S    
C45   H17   1.109371 S    
N15   O73   1.298199 A    
O18   Cr10  2.021523 S    
O21   C9    1.325088 A    
C36   H4    1.102559 S    
C13   C84   1.436602 S    
O23   Cr11  2.000139 S    
N28   H64   1.017446 S    
C44   C52   1.560322 S    
C37   C53   1.590853 S    
O30   C14   1.290053 A    
C59   H35   1.113210 S    
C25   C30   1.215074 T    
O32   Cr4   1.982349 S    
C1    O9    1.251637 A    
C2    C51   1.503466 S    
C17   C78   1.477959 S    
C74   N9    1.482034 S    
O25   Cr1   2.090310 S    
C75   N15   1.495352 S    
C11   C55   1.483754 S    
C27   C32   1.216558 T    
C62   H22   1.075615 S    
C73   N13   1.494305 S    
C3    O11   1.256250 A    
O41   Cr9   2.120331 S    
C72   C75   1.609103 S    
C67   C79   1.645971 S    
C4    O12   1.247921 A    
C9    C53   1.507750 S    
N22   O79   1.289624 A    
C68   C80   1.633753 S    
H9    C43   1.048865 S    
C43   C59   1.531474 S    
C48   C52   1.540596 S    
N27   H61   1.046353 S    
O6    Cr2   1.982499 S    
C35   C39   1.533296 S    
C7    O19   1.319986 A    
C14   C83   1.444379 S    
O3    Cr3   2.116391 S    
Cr4   O52   1.985689 S    
C38   N22   1.459987 S    
O2    Cr2   2.107116 S    
O8    C4    1.282949 A    
C33   H5    1.115803 S    
N19   H54   1.036455 S    
Cr6   O50   2.032361 S    
C20   C79   1.492612 S    
N27   H62   1.028110 S    
O42   Cr10  2.114383 S    
Cr5   O49   2.045105 S    
H10   C44   1.084118 S    
C22   C94   1.435402 S    
O28   C24   1.274639 A    
Cr7   O51   2.045105 S    
C60   H36   1.113532 S    
C39   N27   1.454010 S    
C21   C93   1.437585 S    
N2    H43   1.031291 S    
N1    H42   1.047556 S    
C56   C64   1.566903 S    
C40   N28   1.451501 S    
C19   C80   1.486951 S    
N12   O68   1.302956 A    
C75   N12   1.474685 S    
O34   Cr6   2.046963 S    
C46   H18   1.110200 S    
C67   N7    1.507944 S    
N10   O63   1.301666 A    
Cr9   O49   2.035554 S    
O7    C3    1.288365 A    
O9    Cr5   2.116001 S    
C5    C26   1.447435 S    
N5    O54   1.298508 A    
C69   N18   1.450217 S    
O31   Cr3   1.989733 S    
O24   Cr12  1.992467 S    
N16   O76   1.301418 A    
C36   H8    1.115916 S    
N17   H50   1.035322 S    
C4    C49   1.448304 S    
O16   Cr8   1.922868 S    
H40   C72   1.108062 S    
N3    H45   1.034115 S    
O48   Cr12  1.908956 S    
C75   C79   1.614015 S    
C56   C60   1.575372 S    
N9    O61   1.301312 A    
C38   C54   1.584774 S    
H16   C58   1.101482 S    
N6    O55   1.303827 A    
C6    O18   1.317452 A    
N24   O83   1.296944 A    
C5    O17   1.318210 A    
C54   C58   1.563151 S    
C68   N8    1.502748 S    
C67   C68   1.518623 S    
N21   O78   1.303028 A    
O22   C10   1.298405 A    
O15   C7    1.290625 A    
C48   C64   1.551409 S    
C88   C96   1.207849 T    
C47   N31   1.490020 S    
C87   C91   1.422516 S    
N15   O74   1.301016 A    
N8    O60   1.296947 A    
C34   H2    1.092586 S    
H39   C71   1.108896 S    
C10   C54   1.496861 S    
C28   C31   1.216491 T    
O13   C5    1.293432 A    
O28   Cr4   2.093505 S    
O43   Cr11  2.120331 S    
O48   C24   1.283601 A    
O12   Cr8   2.127306 S    
C67   N3    1.482674 S    
O22   Cr10  1.992467 S    
O37   Cr5   1.993808 S    
O5    C1    1.288948 A    
N29   O85   1.302573 A    
C41   C57   1.543132 S    
N7    O58   1.298197 A    
O39   Cr7   1.993808 S    
O25   C21   1.271305 A    
C23   C95   1.443607 S    
O45   Cr9   1.911762 S    
C62   H26   1.110998 S    
C45   N29   1.481603 S    
O3    C11   1.282182 A    
O14   Cr6   1.922868 S    
C33   H1    1.101355 S    
C43   C51   1.551243 S    
C34   C50   1.548686 S    
N14   O72   1.300648 A    
C13   O33   1.287126 A    
N17   H49   1.044337 S    
N11   O66   1.302509 A    
C66   N2    1.480390 S    
O47   Cr11  1.911762 S    
Cr2   O50   1.985689 S    
C15   C82   1.436063 S    
O15   Cr7   1.919665 S    
C12   C56   1.504147 S    
C70   C73   1.569338 S    
Cr1   O49   1.985045 S    
C74   C78   1.610215 S    
O30   Cr2   1.982349 S    
C38   N26   1.464517 S    
Cr3   O51   1.985045 S    
O26   C22   1.278223 A    
N2    H44   1.045965 S    
O21   Cr9   2.000139 S    
C36   C40   1.534303 S    
N4    H48   1.044511 S    
C65   N1    1.496152 S    
C45   C49   1.538591 S    
C2    O10   1.292268 A    
N10   O64   1.302622 A    
H15   C57   1.101362 S    
C8    O20   1.322240 A    
N24   O84   1.302571 A    
O38   Cr6   2.003809 S    
N12   O67   1.301190 A    
C42   C58   1.561726 S    
C39   N23   1.462144 S    
C40   N24   1.457399 S    
N19   H53   1.038516 S    
C3    C50   1.457283 S    
C88   C92   1.415469 S    
N20   H56   1.031895 S    
N7    O57   1.303609 A    
C63   H27   1.107196 S    
C86   C94   1.206793 T    
C26   C29   1.215192 T    
N18   H52   1.033337 S    
O38   C18   1.341532 A    
C1    C52   1.446493 S    
C85   C93   1.207743 T    
C61   H25   1.111631 S    
C72   C80   1.618008 S    
C53   C57   1.575795 S    
N16   O75   1.298599 A    
C41   C49   1.560863 S    
C37   N21   1.459322 S    
O37   C17   1.308719 A    
C42   H30   1.104389 S    
N31   O90   1.302998 A    
O14   C6    1.294653 A    
C71   C79   1.629905 S    
C19   O43   1.293551 A    
C82   C90   1.207003 T    
C44   C60   1.544744 S    
C64   H24   1.062310 S    
C81   C89   1.208016 T    
O31   C15   1.291085 A    
O17   Cr9   2.023724 S    
O40   Cr8   2.003809 S    
Cr11  O51   2.035554 S    
C58   H34   1.113453 S    
C15   O35   1.289797 A    
N23   O81   1.298393 A    
C36   C52   1.539955 S    
C70   N17   1.473372 S    
C17   O41   1.280089 A    
C71   C76   1.621534 S    
H38   C70   1.099941 S    
O11   Cr7   2.116001 S    
C72   N19   1.476722 S    
N25   H57   1.045876 S    
C42   C50   1.559112 S    
C35   H7    1.113206 S    
C14   O34   1.287795 A    
H14   C60   1.101410 S    
C34   H6    1.114881 S    
O29   C13   1.293680 A    
C35   C51   1.546826 S    
C20   O44   1.299040 A    
C65   C77   1.651937 S    
N30   O87   1.303247 A    
N18   H51   1.041283 S    
C47   C51   1.561724 S    
N13   O70   1.303744 A    
C33   C37   1.536710 S    
C33   C49   1.540891 S    
C16   C81   1.436995 S    
N29   O86   1.304526 A    
O32   C16   1.286238 A    
Cr10  O50   2.047732 S    
O46   Cr10  1.908956 S    
N32   O92   1.304979 A    
O13   Cr5   1.919665 S    
N23   O82   1.301954 A    
H37   C69   1.101176 S    
O2    C10   1.272327 A    
N21   O77   1.296745 A    
Cr12  O52   2.047732 S    
C43   H31   1.106545 S    
C69   C74   1.583383 S    
C54   C62   1.567228 S    
O45   C21   1.279559 A    
C63   H23   1.068119 S    
C44   H32   1.101866 S    
O19   Cr11  2.023724 S    
N14   O71   1.296221 A    
N25   H58   1.017843 S    
C6    C25   1.447772 S    
O33   Cr5   2.044093 S    
N20   H55   1.038441 S    
N30   O88   1.305782 A    
O23   C11   1.322103 A    
O10   Cr6   2.127306 S    
O5    Cr1   1.977886 S    
N8    O59   1.303128 A    
C47   H19   1.112021 S    
O35   Cr7   2.044093 S    
O4    Cr4   2.107116 S    
O6    C2    1.331227 A    
C86   C90   1.413807 S    
C71   N20   1.478415 S    
C69   C77   1.593438 S    
C8    C27   1.448987 S    
C85   C89   1.415015 S    
C16   O36   1.283834 A    
C41   H29   1.102067 S    
O40   C20   1.303605 A    
N26   H59   1.042385 S    
C84   C92   1.207423 T    
O44   Cr12  2.114383 S    
N22   O80   1.303503 A    
N4    H47   1.033700 S    
C61   H21   1.061073 S    
C47   C63   1.527598 S    
N11   O65   1.301541 A    
N3    H46   1.044698 S    
O27   C23   1.271725 A    
C7    C28   1.449144 S    
C83   C91   1.211441 T    
C45   C61   1.553500 S    
C64   H28   1.111216 S    
N31   O89   1.302319 A    
N13   O69   1.294420 A    
N26   H60   1.034177 S    
O16   C8    1.291425 A    
C37   N25   1.451324 S    
C76   C80   1.619927 S    
C66   N6    1.509479 S    
C68   N4    1.483285 S    
C73   N10   1.487559 S    
C76   N16   1.505355 S    
