data_mof_unit_12122.cif
_audit_creation_date              2013-03-05T16:00:29-0500
_audit_creation_method            fapswitch 2.2
_symmetry_space_group_name_H-M    P1
_symmetry_Int_Tables_number       1
_space_group_crystal_system       triclinic
_cell_length_a                    13.915083
_cell_length_b                    14.749714
_cell_length_c                    14.722359
_cell_angle_alpha                 114.914194
_cell_angle_beta                  106.258379
_cell_angle_gamma                 72.123324
_cell_volume                      2568.12405052

loop_
_atom_site_label
_atom_site_type_symbol
_atom_site_description
_atom_site_fract_x
_atom_site_fract_y
_atom_site_fract_z
_atom_type_partial_charge
O1    O     O_R   0.534760 0.019630 0.662610 -0.552728
O2    O     O_R   0.465240 0.980370 0.337390 -0.549758
O3    O     O_R   0.490220 0.160840 0.620610 -0.600209
O4    O     O_R   0.509780 0.839160 0.379390 -0.601466
C1    C     C_R   0.516332 0.118514 0.688053 0.810979
C2    C     C_R   0.484289 0.881534 0.312011 0.813243
O5    O     O_R   0.663260 0.919400 0.523940 -0.530491
O6    O     O_R   0.336740 0.080600 0.476060 -0.531468
O7    O     O_R   0.618720 0.060610 0.481950 -0.580162
O8    O     O_R   0.381280 0.939390 0.518050 -0.577052
C3    C     C_R   0.686833 0.986556 0.503760 0.825010
C4    C     C_R   0.313164 0.013477 0.496269 0.826487
Cu1   Cu    Cu3+1 0.526370 0.916390 0.524860 1.027893
Cu2   Cu    Cu3+1 0.473630 0.083610 0.475140 1.027147
C5    C     C_1   0.208193 0.022594 0.495870 -0.044679
C6    C     C_1   0.791795 0.977716 0.504428 -0.048373
C7    C     C_2   0.014203 0.039058 0.497003 0.197458
C8    C     C_2   0.985731 0.962048 0.503863 0.197091
C9    C     C_1   0.880091 0.970291 0.504347 0.092975
C10   C     C_1   0.119870 0.030413 0.496214 0.094490
C11   C     C_R   0.524945 0.185753 0.795880 -0.053435
C12   C     C_R   0.484095 0.813942 0.204950 -0.049228
C13   C     C_R   0.534664 0.216128 0.972527 -0.119799
C14   C     C_R   0.497895 0.781270 0.033309 -0.126316
C15   C     C_R   0.529489 0.149819 0.871373 -0.105663
C16   C     C_R   0.487143 0.849754 0.131824 -0.118867
C17   C     C_R   0.525120 0.288688 0.822527 -0.206999
C18   C     C_R   0.489585 0.709848 0.178114 -0.202855
C19   C     C_R   0.529222 0.357705 0.923971 0.093915
C20   C     C_R   0.505751 0.638398 0.080895 0.093421
C21   C     C_R   0.533565 0.319599 0.999220 0.143079
C22   C     C_R   0.507903 0.676082 0.007523 0.133847
C23   C     C_R   0.525683 0.463712 0.952179 0.066301
C24   C     C_R   0.519040 0.531119 0.054606 0.073424
C25   C     C_R   0.527915 0.488844 0.127734 -0.160017
C26   C     C_R   0.528860 0.504598 0.881761 -0.150589
C27   C     C_R   0.535539 0.385125 0.100309 -0.122003
C28   C     C_R   0.520700 0.608577 0.909381 -0.125072
H1    H     H_    0.541402 0.356283 0.158766 0.164940
H2    H     H_    0.523860 0.636384 0.853037 0.172325
H3    H     H_    0.480555 0.686807 0.234971 0.148755
H4    H     H_    0.519140 0.313491 0.761834 0.149911
H5    H     H_    0.483387 0.930058 0.151210 0.187697
H6    H     H_    0.526521 0.071291 0.852142 0.195833
H7    H     H_    0.537397 0.186957 0.029798 0.164880
H8    H     H_    0.500277 0.810291 0.977657 0.170759
N1    N     N_R   0.433980 0.209250 0.437830 -0.256811
N2    N     N_R   0.566020 0.790750 0.562170 -0.257878
C29   C     C_R   0.324790 0.302516 0.332332 0.175663
C30   C     C_R   0.667657 0.705469 0.677214 0.173133
C31   C     C_R   0.351386 0.218580 0.363192 0.415232
C32   C     C_R   0.642339 0.787251 0.643555 0.425481
C33   C     C_R   0.489163 0.283710 0.487009 -0.018438
C34   C     C_R   0.515807 0.712459 0.509704 -0.021729
C35   C     C_R   0.466991 0.370639 0.458884 -0.061857
C36   C     C_R   0.543637 0.622774 0.534538 -0.055825
C37   C     C_R   0.387843 0.374824 0.374501 -0.120569
C38   C     C_R   0.622284 0.619671 0.619791 -0.130949
C39   C     C_R   0.520437 0.452993 0.511399 0.065920
C40   C     C_R   0.494882 0.537255 0.478389 0.067630
C41   C     C_R   0.424968 0.531183 0.387333 -0.262783
C42   C     C_R   0.600140 0.452562 0.594578 -0.263638
C43   C     C_R   0.374123 0.450814 0.334198 0.372405
C44   C     C_R   0.653534 0.530889 0.645067 0.353880
H9    H     H_    0.453402 0.722660 0.449803 0.159618
H10   H     H_    0.550516 0.272303 0.547061 0.155687
N3    N     N_R   0.058355 0.870580 0.512130 0.138371
O9    O     O_R   0.027023 0.786146 0.481364 -0.259924
O10   O     O_R   0.150813 0.874323 0.563529 -0.334299
N4    N     N_R   0.941758 0.130751 0.489002 0.138542
O11   O     O_R   0.973679 0.214634 0.518335 -0.253967
O12   O     O_R   0.848529 0.127837 0.439536 -0.340039
N5    N     N_R   0.228054 0.319372 0.267076 0.187681
O13   O     O_R   0.204248 0.247766 0.180545 -0.213498
O14   O     O_R   0.160713 0.404511 0.297347 -0.244132
N6    N     N_R   0.732456 0.715295 0.774359 0.181722
O15   O     O_R   0.825097 0.728401 0.791353 -0.195280
O16   O     O_R   0.694791 0.722483 0.849268 -0.322479
H11   H     H_    0.412554 0.585317 0.351718 0.154727
H12   H     H_    0.627228 0.389168 0.619990 0.165302
H13   H     H_    0.531380 0.533308 0.207814 0.139266
H14   H     H_    0.539880 0.458315 0.804673 0.149761
N7    N     N_R   0.316850 0.442673 0.234264 0.153755
O17   O     O_R   0.260461 0.524355 0.217237 -0.278699
O18   O     O_R   0.335739 0.357740 0.157166 -0.328634
N8    N     N_R   0.745114 0.513656 0.716028 0.169470
O19   O     O_R   0.743029 0.482392 0.785832 -0.314077
O20   O     O_R   0.833333 0.507397 0.697136 -0.232086
N9    N     N_R   0.696532 0.868244 0.697460 0.161580
O21   O     O_R   0.681023 0.929258 0.788880 -0.335425
O22   O     O_R   0.782570 0.858347 0.672056 -0.280849
N10   N     N_R   0.287851 0.145352 0.318759 0.162709
O23   O     O_R   0.302719 0.071083 0.232498 -0.319515
O24   O     O_R   0.199411 0.170127 0.346431 -0.278783

loop_
_geom_bond_atom_site_label_1
_geom_bond_atom_site_label_2
_geom_bond_distance
_ccdc_geom_bond_type
C20   C22   1.418066 A    
C13   H7    1.084036 S    
C35   C39   1.437967 A    
C17   C19   1.406093 A    
N5    O13   1.301176 A    
C7    C10   1.439290 S    
C25   H13   1.076356 S    
C34   H9    1.075726 S    
N2    C34   1.363812 A    
O1    C1    1.302769 A    
C42   H12   1.075058 S    
C25   C27   1.385126 A    
N6    O16   1.301239 A    
C24   C25   1.416689 A    
N8    O20   1.301083 A    
C2    C12   1.467535 S    
C19   C23   1.427148 A    
C18   H3    1.075519 S    
C23   C26   1.417452 A    
C29   C37   1.415749 A    
C8    C9    1.439136 S    
O4    Cu1   1.940822 S    
C41   C43   1.393355 A    
C42   C44   1.390505 A    
C26   H14   1.076104 S    
C29   C31   1.405187 A    
C30   C32   1.403456 A    
N4    O11   1.301686 A    
C22   C28   1.390647 A    
N9    O22   1.300757 A    
N1    C33   1.362546 A    
C11   C17   1.399616 A    
C39   C40   1.431114 A    
C12   C18   1.397523 A    
Cu1   Cu2   2.695700 S    
N5    O14   1.301358 A    
C32   N9    1.429973 S    
O2    C2    1.301675 A    
C15   H6    1.081644 S    
C44   N8    1.435057 S    
C16   H5    1.082908 S    
C37   C43   1.417850 A    
C33   C35   1.429520 A    
C38   C44   1.418705 A    
C5    C10   1.199923 T    
C34   C36   1.430816 A    
C20   C24   1.425563 A    
N3    O9    1.301435 A    
C30   C38   1.416018 A    
C23   C24   1.424599 A    
N6    O15   1.301321 A    
O4    C2    1.299886 A    
N8    O19   1.301451 A    
N1    C31   1.367646 A    
C8    N3    1.445203 S    
C36   C40   1.437894 A    
C43   N7    1.437893 S    
C40   C41   1.404868 A    
N3    O10   1.301602 A    
C13   C21   1.402702 A    
O5    C3    1.295767 A    
O7    Cu2   1.922518 S    
C14   C22   1.404052 A    
C30   N6    1.436321 S    
C31   N10   1.429435 S    
C3    C6    1.423530 S    
N7    O17   1.301513 A    
C4    C5    1.423714 S    
O5    Cu1   1.922871 S    
O6    C4    1.295594 A    
N10   O24   1.301235 A    
C7    C8    1.361155 D    
C33   H10   1.073931 S    
O7    C3    1.297686 A    
O3    Cu2   1.940822 S    
O8    C4    1.297886 A    
N7    O18   1.301415 A    
C35   C37   1.420173 A    
C29   N5    1.438189 S    
O1    Cu1   1.954472 S    
C11   C15   1.398786 A    
C39   C42   1.404075 A    
O6    Cu2   1.922871 S    
C14   C16   1.393087 A    
O3    C1    1.299467 A    
O8    Cu1   1.922517 S    
Cu1   N2    2.024974 S    
Cu2   N1    2.024972 S    
C14   H8    1.083982 S    
C18   C20   1.404890 A    
C27   H1    1.084508 S    
C28   H2    1.084627 S    
C17   H4    1.074369 S    
C41   H11   1.076870 S    
C6    C9    1.199863 T    
C26   C28   1.387036 A    
N10   O23   1.300580 A    
C36   C38   1.422539 A    
C13   C15   1.391259 A    
O2    Cu2   1.954471 S    
C21   C27   1.389722 A    
N2    C32   1.368232 A    
C1    C11   1.469010 S    
C19   C21   1.418862 A    
C12   C16   1.399379 A    
N4    O12   1.301549 A    
N9    O21   1.300333 A    
C7    N4    1.445647 S    
