data_mof_unit_29314.cif
_audit_creation_date              2012-12-10T16:37:46-0500
_audit_creation_method            fapswitch 2.2
_symmetry_space_group_name_H-M    P1
_symmetry_Int_Tables_number       1
_space_group_crystal_system       triclinic
_cell_length_a                    28.259521
_cell_length_b                    18.71341
_cell_length_c                    17.017235
_cell_angle_alpha                 89.490263
_cell_angle_beta                  62.150089
_cell_angle_gamma                 89.863612
_cell_volume                      7956.58270581

loop_
_atom_site_label
_atom_site_type_symbol
_atom_type_description
_atom_site_fract_x
_atom_site_fract_y
_atom_site_fract_z
_atom_type_partial_charge
C1    C     C_R   0.701879 0.268173 0.676226 0.877596
C2    C     C_R   0.298121 0.731827 0.323773 0.877595
C3    C     C_R   0.297242 0.269356 0.324163 0.884368
C4    C     C_R   0.702758 0.730644 0.675837 0.884369
C5    C     C_R   0.201879 0.768173 0.676226 0.877596
C6    C     C_R   0.798121 0.231827 0.323773 0.877596
C7    C     C_R   0.797241 0.769356 0.324163 0.884369
C8    C     C_R   0.202758 0.230644 0.675837 0.884369
C9    C     C_R   0.901155 0.499657 0.500049 0.018409
C10   C     C_R   0.098845 0.500343 0.499951 0.018409
C11   C     C_R   0.401155 0.999657 0.500049 0.018409
C12   C     C_R   0.598845 0.000343 0.499951 0.018409
C13   C     C_R   0.106395 0.374329 0.472029 0.191884
C14   C     C_R   0.893605 0.625671 0.527971 0.191884
C15   C     C_R   0.894815 0.372897 0.525961 0.187527
C16   C     C_R   0.105185 0.627103 0.474038 0.187527
C17   C     C_R   0.606395 0.874329 0.472029 0.191884
C18   C     C_R   0.393605 0.125671 0.527971 0.191884
C19   C     C_R   0.394815 0.872897 0.525962 0.187527
C20   C     C_R   0.605185 0.127103 0.474038 0.187527
C21   C     C_R   0.722240 0.271266 0.952223 0.008784
C22   C     C_R   0.277760 0.728734 0.047778 0.008785
C23   C     C_R   0.281332 0.263395 0.043305 0.005909
C24   C     C_R   0.718668 0.736606 0.956695 0.005909
C25   C     C_R   0.222240 0.771266 0.952222 0.008784
C26   C     C_R   0.777760 0.228734 0.047778 0.008784
C27   C     C_R   0.781332 0.763394 0.043305 0.005910
C28   C     C_R   0.218667 0.236607 0.956696 0.005909
C29   C     C_R   0.753237 0.207757 0.928770 0.069353
C30   C     C_R   0.246763 0.792243 0.071230 0.069352
C31   C     C_R   0.234338 0.221447 0.085789 0.077443
C32   C     C_R   0.765661 0.778553 0.914211 0.077444
C33   C     C_R   0.253237 0.707757 0.928769 0.069353
C34   C     C_R   0.746763 0.292243 0.071231 0.069352
C35   C     C_R   0.734339 0.721446 0.085788 0.077443
C36   C     C_R   0.265661 0.278554 0.914212 0.077443
C37   C     C_R   0.778840 0.183988 0.979671 -0.000912
C38   C     C_R   0.221160 0.816012 0.020329 -0.000912
C39   C     C_R   0.200382 0.212858 0.045526 0.001760
C40   C     C_R   0.799618 0.787142 0.954474 0.001760
C41   C     C_R   0.278840 0.683988 0.979670 -0.000912
C42   C     C_R   0.721160 0.316012 0.020329 -0.000912
C43   C     C_R   0.700382 0.712857 0.045526 0.001759
C44   C     C_R   0.299617 0.287144 0.954474 0.001760
C45   C     C_R   0.660302 0.351876 0.930680 0.020196
C46   C     C_R   0.339698 0.648124 0.069320 0.020195
C47   C     C_R   0.357987 0.321134 0.048258 0.016591
C48   C     C_R   0.642012 0.678867 0.951742 0.016590
C49   C     C_R   0.160302 0.851876 0.930679 0.020195
C50   C     C_R   0.839698 0.148124 0.069320 0.020196
C51   C     C_R   0.857988 0.821133 0.048257 0.016590
C52   C     C_R   0.142012 0.178868 0.951743 0.016590
C53   C     C_R   0.628880 0.367845 0.887459 -0.177407
C54   C     C_R   0.371120 0.632155 0.112541 -0.177406
C55   C     C_R   0.379745 0.351558 0.101811 -0.163580
C56   C     C_R   0.620255 0.648442 0.898189 -0.163580
C57   C     C_R   0.128880 0.867844 0.887459 -0.177405
C58   C     C_R   0.871120 0.132155 0.112541 -0.177405
C59   C     C_R   0.879746 0.851557 0.101811 -0.163581
C60   C     C_R   0.120254 0.148443 0.898189 -0.163581
C61   C     C_R   0.644899 0.343267 0.802356 -0.132960
C62   C     C_R   0.355102 0.656734 0.197643 -0.132960
C63   C     C_R   0.352854 0.341957 0.193420 -0.123197
C64   C     C_R   0.647146 0.658043 0.806580 -0.123193
C65   C     C_R   0.144897 0.843265 0.802357 -0.132963
C66   C     C_R   0.855103 0.156735 0.197643 -0.132962
C67   C     C_R   0.852854 0.841957 0.193420 -0.123191
C68   C     C_R   0.147146 0.158043 0.806580 -0.123191
C69   C     C_R   0.681082 0.286303 0.770619 -0.152478
C70   C     C_R   0.318918 0.713698 0.229381 -0.152479
C71   C     C_R   0.316934 0.285401 0.229140 -0.152692
C72   C     C_R   0.683066 0.714599 0.770860 -0.152693
C73   C     C_R   0.181081 0.786302 0.770619 -0.152480
C74   C     C_R   0.818918 0.213698 0.229381 -0.152480
C75   C     C_R   0.816934 0.785400 0.229140 -0.152694
C76   C     C_R   0.183066 0.214600 0.770860 -0.152694
C77   C     C_R   0.702152 0.255906 0.825979 0.070538
C78   C     C_R   0.297848 0.744094 0.174021 0.070538
C79   C     C_R   0.294734 0.253873 0.176450 0.067246
C80   C     C_R   0.705266 0.746127 0.823550 0.067245
C81   C     C_R   0.202152 0.755905 0.825979 0.070539
C82   C     C_R   0.797848 0.244094 0.174021 0.070538
C83   C     C_R   0.794734 0.753872 0.176449 0.067245
C84   C     C_R   0.205266 0.246128 0.823551 0.067245
C85   C     C_R   0.695190 0.128398 0.521454 0.900648
C86   C     C_R   0.304810 0.871602 0.478546 0.900648
C87   C     C_R   0.304777 0.128405 0.478647 0.898135
C88   C     C_R   0.695223 0.871595 0.521353 0.898135
C89   C     C_R   0.195190 0.628398 0.521454 0.900647
C90   C     C_R   0.804810 0.371602 0.478546 0.900647
C91   C     C_R   0.804777 0.628405 0.478647 0.898134
C92   C     C_R   0.195223 0.371595 0.521353 0.898134
C93   C     C_R   0.694543 0.292466 0.903478 0.086717
C94   C     C_R   0.305457 0.707534 0.096522 0.086717
C95   C     C_R   0.310871 0.280340 0.089736 0.079195
C96   C     C_R   0.689129 0.719661 0.910264 0.079195
C97   C     C_R   0.194544 0.792465 0.903477 0.086717
C98   C     C_R   0.805456 0.207534 0.096523 0.086717
C99   C     C_R   0.810871 0.780339 0.089736 0.079194
C100  C     C_R   0.189128 0.219662 0.910264 0.079195
C101  C     C_R   0.663621 0.398743 0.991746 -0.172000
C102  C     C_R   0.336379 0.601257 0.008254 -0.172001
C103  C     C_R   0.381466 0.328147 0.954930 -0.189956
C104  C     C_R   0.618533 0.671853 0.045070 -0.189956
C105  C     C_R   0.163621 0.898743 0.991745 -0.172001
C106  C     C_R   0.836379 0.101257 0.008254 -0.172002
C107  C     C_R   0.881467 0.828146 0.954930 -0.189956
C108  C     C_R   0.118533 0.171854 0.045070 -0.189955
C109  C     C_R   0.696797 0.384526 0.030241 0.132651
C110  C     C_R   0.303203 0.615475 0.969759 0.132651
C111  C     C_R   0.353309 0.311925 0.908176 0.147643
C112  C     C_R   0.646690 0.688075 0.091824 0.147644
C113  C     C_R   0.196797 0.884526 0.030240 0.132651
C114  C     C_R   0.803203 0.115474 0.969760 0.132651
C115  C     C_R   0.853310 0.811924 0.908175 0.147643
C116  C     C_R   0.146689 0.188076 0.091825 0.147643
C117  C     C_R   0.733918 0.194007 0.803424 -0.154668
C118  C     C_R   0.266082 0.805993 0.196575 -0.154668
C119  C     C_R   0.257104 0.197392 0.205374 -0.142307
C120  C     C_R   0.742896 0.802608 0.794626 -0.142306
C121  C     C_R   0.233918 0.694007 0.803424 -0.154667
C122  C     C_R   0.766082 0.305993 0.196576 -0.154667
C123  C     C_R   0.757104 0.697392 0.205374 -0.142306
C124  C     C_R   0.242896 0.302609 0.794626 -0.142306
C125  C     C_R   0.760744 0.173019 0.850721 -0.143451
C126  C     C_R   0.239256 0.826981 0.149279 -0.143450
C127  C     C_R   0.227020 0.182481 0.161636 -0.127658
C128  C     C_R   0.772979 0.817519 0.838364 -0.127659
C129  C     C_R   0.260744 0.673019 0.850720 -0.143450
C130  C     C_R   0.739256 0.326981 0.149280 -0.143451
C131  C     C_R   0.727021 0.682480 0.161635 -0.127658
C132  C     C_R   0.272979 0.317520 0.838365 -0.127658
C133  C     C_R   0.074881 0.098876 0.933957 0.894913
C134  C     C_R   0.925119 0.901124 0.066042 0.894912
C135  C     C_R   0.919677 0.088892 0.071497 0.903238
C136  C     C_R   0.080323 0.911108 0.928503 0.903239
C137  C     C_R   0.574881 0.598876 0.933957 0.894912
C138  C     C_R   0.425119 0.401124 0.066043 0.894912
C139  C     C_R   0.419677 0.588892 0.071497 0.903238
C140  C     C_R   0.580323 0.411108 0.928503 0.903239
C141  C     C_R   0.551564 0.130323 0.491497 -0.060055
C142  C     C_R   0.448435 0.869677 0.508502 -0.060055
C143  C     C_R   0.447031 0.129692 0.511125 -0.060450
C144  C     C_R   0.552969 0.870308 0.488875 -0.060450
C145  C     C_R   0.051564 0.630323 0.491497 -0.060055
C146  C     C_R   0.948435 0.369677 0.508502 -0.060055
C147  C     C_R   0.947031 0.629692 0.511125 -0.060450
C148  C     C_R   0.052969 0.370308 0.488875 -0.060450
C149  C     C_R   0.525016 0.195839 0.497646 0.150402
C150  C     C_R   0.474984 0.804161 0.502354 0.150402
C151  C     C_R   0.472743 0.195527 0.506399 0.158366
C152  C     C_R   0.527257 0.804473 0.493601 0.158366
C153  C     C_R   0.025015 0.695839 0.497646 0.150402
C154  C     C_R   0.974984 0.304161 0.502354 0.150403
C155  C     C_R   0.972743 0.695527 0.506398 0.158366
C156  C     C_R   0.027257 0.304473 0.493601 0.158366
C157  C     C_R   0.474248 0.065131 0.503358 -0.002875
C158  C     C_R   0.525752 0.934869 0.496642 -0.002876
C159  C     C_R   0.525056 0.065391 0.497983 -0.000449
C160  C     C_R   0.474944 0.934608 0.502017 -0.000448
C161  C     C_R   0.974248 0.565131 0.503358 -0.002875
C162  C     C_R   0.025752 0.434868 0.496642 -0.002876
C163  C     C_R   0.025056 0.565391 0.497983 -0.000449
C164  C     C_R   0.974944 0.434609 0.502017 -0.000449
C165  C     C_R   0.949707 0.499764 0.503624 0.013214
C166  C     C_R   0.050293 0.500236 0.496376 0.013214
C167  C     C_R   0.449707 0.999764 0.503624 0.013213
C168  C     C_R   0.550293 0.000236 0.496376 0.013214
C169  C     C_R   0.876095 0.434952 0.501257 0.003078
C170  C     C_R   0.123905 0.565048 0.498742 0.003079
C171  C     C_R   0.124277 0.435748 0.498159 -0.004210
C172  C     C_R   0.875723 0.564252 0.501841 -0.004211
C173  C     C_R   0.376095 0.934952 0.501257 0.003079
C174  C     C_R   0.623905 0.065047 0.498742 0.003079
C175  C     C_R   0.624277 0.935748 0.498158 -0.004210
C176  C     C_R   0.375723 0.064252 0.501842 -0.004210
C177  C     C_R   0.831371 0.436023 0.483878 -0.092801
C178  C     C_R   0.168629 0.563977 0.516122 -0.092801
C179  C     C_R   0.168753 0.436317 0.515948 -0.092468
C180  C     C_R   0.831247 0.563683 0.484052 -0.092468
C181  C     C_R   0.331371 0.936023 0.483878 -0.092801
C182  C     C_R   0.668629 0.063977 0.516122 -0.092801
C183  C     C_R   0.668753 0.936317 0.515948 -0.092469
C184  C     C_R   0.331247 0.063683 0.484052 -0.092469
C185  C     C_R   0.811394 0.500002 0.471585 -0.288136
C186  C     C_R   0.188606 0.499998 0.528415 -0.288136
C187  C     C_R   0.311394 0.000002 0.471585 -0.288134
C188  C     C_R   0.688606 0.999998 0.528415 -0.288135
H1    H     H_    0.778301 0.500200 0.456013 0.197182
H2    H     H_    0.221699 0.499800 0.543987 0.197182
H3    H     H_    0.278301 0.000200 0.456013 0.197182
H4    H     H_    0.721699 0.999800 0.543987 0.197182
H5    H     H_    0.646060 0.451411 0.000934 0.189010
H6    H     H_    0.353940 0.548589 0.999066 0.189010
H7    H     H_    0.423009 0.342186 0.915486 0.198139
H8    H     H_    0.576991 0.657814 0.084514 0.198139
H9    H     H_    0.146060 0.951411 0.000933 0.189010
H10   H     H_    0.853940 0.048589 0.999066 0.189011
H11   H     H_    0.923009 0.842185 0.915486 0.198138
H12   H     H_    0.076990 0.157814 0.084514 0.198138
H13   H     H_    0.738992 0.160446 0.748844 0.177626
H14   H     H_    0.261008 0.839554 0.251156 0.177626
H15   H     H_    0.250444 0.162960 0.260693 0.182830
H16   H     H_    0.749556 0.837040 0.739307 0.182830
H17   H     H_    0.238992 0.660446 0.748844 0.177626
H18   H     H_    0.761008 0.339554 0.251156 0.177626
H19   H     H_    0.750444 0.662959 0.260693 0.182830
H20   H     H_    0.249555 0.337041 0.739307 0.182830
H21   H     H_    0.790064 0.131577 0.821296 0.186766
H22   H     H_    0.209936 0.868423 0.178704 0.186765
H23   H     H_    0.199522 0.137961 0.185767 0.192364
H24   H     H_    0.800478 0.862039 0.814232 0.192364
H25   H     H_    0.290065 0.631577 0.821295 0.186765
H26   H     H_    0.709935 0.368423 0.178705 0.186765
H27   H     H_    0.699523 0.637961 0.185767 0.192364
H28   H     H_    0.300477 0.362040 0.814233 0.192364
O1    O     O_R   0.746490 0.236330 0.638080 -0.617735
O2    O     O_R   0.253510 0.763670 0.361920 -0.617735
O3    O     O_R   0.253510 0.236330 0.361920 -0.624205
O4    O     O_R   0.746490 0.763670 0.638080 -0.624205
O5    O     O_R   0.246490 0.736330 0.638080 -0.617734
O6    O     O_R   0.753510 0.263670 0.361920 -0.617735
O7    O     O_R   0.753510 0.736330 0.361920 -0.624205
O8    O     O_R   0.246490 0.263670 0.638080 -0.624204
O9    O     O_R   0.674170 0.186160 0.516270 -0.605610
O10   O     O_R   0.325830 0.813840 0.483730 -0.605610
O11   O     O_R   0.325830 0.186160 0.483730 -0.607410
O12   O     O_R   0.674170 0.813840 0.516270 -0.607410
O13   O     O_R   0.174170 0.686160 0.516270 -0.605611
O14   O     O_R   0.825830 0.313840 0.483730 -0.605611
O15   O     O_R   0.825830 0.686160 0.483730 -0.607410
O16   O     O_R   0.174170 0.313840 0.516270 -0.607410
O17   O     O_R   0.739960 0.127620 0.525000 -0.634331
O18   O     O_R   0.260040 0.872380 0.475000 -0.634331
O19   O     O_R   0.260040 0.127620 0.475000 -0.633142
O20   O     O_R   0.739960 0.872380 0.525000 -0.633142
O21   O     O_R   0.239960 0.627620 0.525000 -0.634332
O22   O     O_R   0.760040 0.372380 0.475000 -0.634332
O23   O     O_R   0.760040 0.627620 0.475000 -0.633142
O24   O     O_R   0.239960 0.372380 0.525000 -0.633143
O25   O     O_R   0.680700 0.294870 0.629350 -0.615099
O26   O     O_R   0.319300 0.705130 0.370650 -0.615098
O27   O     O_R   0.319300 0.294870 0.370650 -0.608245
O28   O     O_R   0.680700 0.705130 0.629350 -0.608245
O29   O     O_R   0.180700 0.794870 0.629350 -0.615100
O30   O     O_R   0.819300 0.205130 0.370650 -0.615100
O31   O     O_R   0.819300 0.794870 0.370650 -0.608244
O32   O     O_R   0.180700 0.205130 0.629350 -0.608245
O33   O     O_R   0.062020 0.072840 0.007170 -0.639436
O34   O     O_R   0.937980 0.927160 0.992830 -0.639436
O35   O     O_R   0.937980 0.072840 0.992830 -0.620374
O36   O     O_R   0.062020 0.927160 0.007170 -0.620374
O37   O     O_R   0.562020 0.572840 0.007170 -0.639436
O38   O     O_R   0.437980 0.427160 0.992830 -0.639435
O39   O     O_R   0.437980 0.572840 0.992830 -0.620374
O40   O     O_R   0.562020 0.427160 0.007170 -0.620374
O41   O     O_R   0.947860 0.073950 0.109290 -0.617681
O42   O     O_R   0.052140 0.926050 0.890710 -0.617681
O43   O     O_R   0.052140 0.073950 0.890710 -0.607374
O44   O     O_R   0.947860 0.926050 0.109290 -0.607373
O45   O     O_R   0.447860 0.573950 0.109290 -0.617679
O46   O     O_R   0.552140 0.426050 0.890710 -0.617679
O47   O     O_R   0.552140 0.573950 0.890710 -0.607374
O48   O     O_R   0.447860 0.426050 0.109290 -0.607374
Zn1   Zn    Zn3+2 0.792340 0.208750 0.507670 1.046488
Zn2   Zn    Zn3+2 0.207660 0.791250 0.492330 1.046488
Zn3   Zn    Zn3+2 0.207660 0.208750 0.492330 1.046646
Zn4   Zn    Zn3+2 0.792340 0.791250 0.507670 1.046646
Zn5   Zn    Zn3+2 0.292340 0.708750 0.507670 1.046489
Zn6   Zn    Zn3+2 0.707660 0.291250 0.492330 1.046488
Zn7   Zn    Zn3+2 0.707660 0.708750 0.492330 1.046646
Zn8   Zn    Zn3+2 0.292340 0.291250 0.507670 1.046646
Zn9   Zn    Zn3+2 0.505960 0.500000 0.080520 1.014194
Zn10  Zn    Zn3+2 0.494040 0.500000 0.919480 1.014194
Zn11  Zn    Zn3+2 0.005960 0.000000 0.080520 1.014194
Zn12  Zn    Zn3+2 0.994040 0.000000 0.919480 1.014193
I1    I     I_    0.063415 0.206273 0.503476 -0.218702
I2    I     I_    0.936585 0.793727 0.496524 -0.218702
I3    I     I_    0.940007 0.205841 0.490934 -0.218447
I4    I     I_    0.059993 0.794159 0.509066 -0.218447
I5    I     I_    0.563415 0.706273 0.503476 -0.218702
I6    I     I_    0.436585 0.293727 0.496523 -0.218701
I7    I     I_    0.440007 0.705841 0.490934 -0.218446
I8    I     I_    0.559993 0.294159 0.509066 -0.218447
I9    I     I_    0.162075 0.334509 0.345059 -0.271447
I10   I     I_    0.837925 0.665491 0.654941 -0.271447
I11   I     I_    0.840160 0.328736 0.652338 -0.295755
I12   I     I_    0.159840 0.671264 0.347662 -0.295755
I13   I     I_    0.662075 0.834508 0.345059 -0.271446
I14   I     I_    0.337925 0.165492 0.654941 -0.271446
I15   I     I_    0.340160 0.828736 0.652338 -0.295755
I16   I     I_    0.659840 0.171264 0.347662 -0.295755
C189  C     C_1   0.627101 0.381978 0.745811 0.306366
N1    N     N_1   0.612722 0.412098 0.701093 -0.143046
C190  C     C_1   0.372900 0.618023 0.254188 0.306366
N2    N     N_1   0.387278 0.587903 0.298907 -0.143046
C191  C     C_1   0.356893 0.395839 0.251406 0.271898
N3    N     N_1   0.359738 0.438282 0.298038 -0.167453
C192  C     C_1   0.643108 0.604160 0.748594 0.271895
N4    N     N_1   0.640265 0.561715 0.701962 -0.167456
C193  C     C_1   0.127098 0.881974 0.745813 0.306371
N5    N     N_1   0.112718 0.912093 0.701095 -0.143045
C194  C     C_1   0.872903 0.118026 0.254187 0.306371
N6    N     N_1   0.887282 0.087908 0.298905 -0.143044
C195  C     C_1   0.856891 0.895841 0.251406 0.271895
N7    N     N_1   0.859733 0.938287 0.298038 -0.167459
C196  C     C_1   0.143109 0.104159 0.748594 0.271895
N8    N     N_1   0.140267 0.061713 0.701962 -0.167459
I17   I     I_    0.720676 0.480182 0.070627 -0.401628
I18   I     I_    0.279324 0.519818 0.929374 -0.401628
I19   I     I_    0.402312 0.308592 0.767381 -0.293482
I20   I     I_    0.597688 0.691410 0.232619 -0.293482
I21   I     I_    0.220676 0.980182 0.070626 -0.401627
I22   I     I_    0.779324 0.019818 0.929374 -0.401627
I23   I     I_    0.902312 0.808589 0.767381 -0.293483
I24   I     I_    0.097687 0.191410 0.232619 -0.293483

loop_
_geom_bond_atom_site_label_1
_geom_bond_atom_site_label_2
_ccdc_geom_bond_type
C85   C182  S    
C122  H18   S    
C68   C196  S    
C9    C169  A    
C34   C42   A    
O38   Zn10  S    
C193  N5    T    
C27   C99   A    
C170  C178  A    
C85   O17   A    
C12   C174  A    
C42   C109  A    
C155  I2    S    
C24   C96   A    
C92   O16   A    
C87   O19   A    
O25   Zn6   S    
C62   C70   A    
C91   O23   A    
O22   Zn6   S    
O44   Zn11  S    
O33   Zn11  S    
C15   I11   S    
C132  H28   S    
O34   Zn12  S    
O30   Zn1   S    
C147  C155  A    
C105  H9    S    
C90   C177  S    
O15   Zn4   S    
C124  H20   S    
C11   C167  A    
C82   C98   A    
C76   C84   A    
C102  H6    S    
C73   C81   A    
C161  C163  A    
C162  C164  A    
C181  C187  A    
O46   Zn10  S    
C66   C194  S    
O41   Zn11  S    
C90   O22   A    
O42   Zn12  S    
C84   C100  A    
C5    O29   A    
C57   C65   A    
C37   C114  A    
C27   C35   A    
C10   C171  A    
C21   C29   A    
C81   C121  A    
C23   C31   A    
C186  H2    S    
C24   C32   A    
O7    Zn7   S    
O8    Zn8   S    
C7    O7    A    
C194  N6    T    
C146  C154  A    
O47   Zn10  S    
O43   Zn12  S    
C13   I9    S    
C63   C71   A    
C36   C44   A    
C134  O34   A    
C175  C183  A    
C176  C184  A    
C48   C96   A    
C6    O30   A    
C60   C68   A    
C113  I21   S    
C148  C162  A    
C183  C188  A    
C116  I24   S    
C108  C116  A    
C21   C93   A    
C78   C94   A    
C9    C165  A    
O2    Zn2   S    
C23   C95   A    
C130  H26   S    
C150  I7    S    
O9    Zn6   S    
C49   C97   A    
C21   C42   A    
C22   C41   A    
C51   C107  A    
C2    O2    A    
C24   C43   A    
C136  O36   A    
C82   C122  A    
C161  C165  A    
C17   C175  A    
C6    O6    A    
C18   C176  A    
C29   C125  A    
C69   C77   A    
C31   C127  A    
C45   C93   A    
C174  C182  A    
C71   C79   A    
C179  C186  A    
C18   I14   S    
C30   C38   A    
C11   C176  A    
C17   C144  A    
C105  C113  A    
C18   C143  A    
C78   C118  A    
C149  C151  A    
C66   C74   A    
C7    O31   A    
C8    C76   S    
C49   C57   A    
C124  C132  A    
O27   Zn8   S    
C52   C60   A    
C59   C67   A    
C53   C61   A    
C141  C159  A    
C20   C174  A    
C55   C63   A    
C86   C181  S    
C56   C64   A    
C35   C43   A    
C45   C53   A    
C140  O46   A    
C22   C94   A    
C171  C179  A    
C118  H14   S    
C169  C177  A    
O19   Zn3   S    
C50   C98   A    
O39   Zn10  S    
C20   I16   S    
O26   Zn5   S    
O35   Zn12  S    
C104  C112  A    
C125  H21   S    
C145  C163  A    
C65   C193  S    
C146  C164  A    
C14   C147  A    
C52   C100  A    
C91   O15   A    
C16   C145  A    
C178  C186  A    
C189  N1    T    
C25   C38   A    
C54   C139  S    
C46   C94   A    
C27   C40   A    
C10   C166  A    
C91   C180  S    
C182  C188  A    
C89   C178  S    
C2    O26   A    
C28   C36   A    
C25   C97   A    
C138  O48   A    
C39   C116  A    
C139  O45   A    
C120  H16   S    
C85   O9    A    
C133  O33   A    
O20   Zn4   S    
C67   C195  S    
C92   O24   A    
C22   C30   A    
C20   C141  A    
C135  O35   A    
C15   C146  A    
O21   Zn5   S    
C185  H1    S    
C58   C135  S    
C68   C76   A    
C59   C134  S    
C184  C187  A    
C188  H4    S    
C32   C128  A    
C72   C80   A    
C138  O38   A    
C107  H11   S    
C56   C137  S    
C88   O12   A    
C14   I10   S    
C143  C151  A    
C129  H25   S    
O17   Zn1   S    
O11   Zn8   S    
C13   C171  A    
C67   C75   A    
C90   O14   A    
C19   I15   S    
C117  C125  A    
C4    O28   A    
C25   C33   A    
C119  C127  A    
C114  I22   S    
C121  H17   S    
C157  C167  A    
C80   C120  A    
C158  C168  A    
O32   Zn3   S    
C86   O18   A    
O3    Zn3   S    
C164  C165  A    
C40   C115  A    
C101  C109  A    
O28   Zn7   S    
C177  C185  A    
C103  C111  A    
C162  C166  A    
C135  O41   A    
C4    O4    A    
C79   C119  A    
C153  C155  A    
C154  C156  A    
C8    O8    A    
C106  H10   S    
C172  C180  A    
C111  I19   S    
C173  C181  A    
C157  C159  A    
C83   C99   A    
C158  C160  A    
C103  H7    S    
C74   C82   A    
C101  H5    S    
C6    C74   S    
C63   C191  S    
C47   C103  A    
C196  N8    T    
C50   C58   A    
C89   O21   A    
C163  C166  A    
C119  H15   S    
C147  C161  A    
C151  I6    S    
C190  N2    T    
C38   C113  A    
C49   C105  A    
C54   C62   A    
C28   C39   A    
C131  H27   S    
C1    C69   S    
C23   C44   A    
C139  O39   A    
C192  N4    T    
C19   C173  A    
C79   C95   A    
C92   C179  S    
C46   C54   A    
C64   C192  S    
C62   C190  S    
C104  H8    S    
C45   C101  A    
C137  O47   A    
C19   C142  A    
C87   O11   A    
C153  I4    S    
O40   Zn9   S    
C102  C110  A    
C35   C131  A    
C4    C72   S    
C33   C129  A    
C154  I3    S    
C123  C131  A    
C121  C129  A    
C120  C128  A    
C26   C37   A    
C10   C170  A    
O48   Zn9   S    
O16   Zn3   S    
C33   C41   A    
C142  C150  A    
C36   C132  A    
O37   Zn9   S    
C128  H24   S    
C75   C83   A    
C77   C93   A    
C44   C111  A    
C16   C170  A    
C133  O43   A    
C8    O32   A    
C3    O3    A    
C195  N7    T    
C29   C37   A    
C50   C106  A    
C9    C172  A    
C1    O1    A    
C148  C156  A    
C83   C123  A    
C2    C70   S    
C60   C133  S    
C144  C152  A    
C5    O5    A    
C30   C126  A    
C70   C78   A    
C53   C140  S    
C191  N3    T    
C3    C71   S    
O29   Zn2   S    
C141  C149  A    
C46   C102  A    
C110  I18   S    
C55   C138  S    
C81   C97   A    
C106  C114  A    
C77   C117  A    
O10   Zn5   S    
O18   Zn2   S    
O45   Zn9   S    
C48   C104  A    
C65   C73   A    
C159  C168  A    
C15   C169  A    
C160  C167  A    
C26   C34   A    
C57   C136  S    
C140  O40   A    
C80   C96   A    
C115  I23   S    
C187  H3    S    
C145  C153  A    
C28   C100  A    
C32   C40   A    
C52   C108  A    
C112  I20   S    
C5    C73   S    
C117  H13   S    
C58   C66   A    
C143  C157  A    
C51   C99   A    
C88   O20   A    
C11   C173  A    
C14   C172  A    
C126  H22   S    
C87   C184  S    
C88   C183  S    
C7    C75   S    
C108  H12   S    
C123  H19   S    
C3    O27   A    
C107  C115  A    
C1    O25   A    
C26   C98   A    
C12   C175  A    
O31   Zn4   S    
C127  H23   S    
C41   C110  A    
C136  O42   A    
C86   O10   A    
O1    Zn1   S    
C150  C152  A    
C51   C59   A    
C43   C112  A    
C144  C158  A    
O4    Zn4   S    
O5    Zn5   S    
C152  I5    S    
C47   C55   A    
C61   C69   A    
C48   C56   A    
C142  C160  A    
O12   Zn7   S    
C16   I12   S    
C12   C168  A    
O13   Zn2   S    
C84   C124  A    
C61   C189  S    
O23   Zn7   S    
O24   Zn8   S    
C156  I1    S    
C17   I13   S    
C149  I8    S    
C31   C39   A    
C64   C72   A    
O36   Zn11  S    
C180  C185  A    
O6    Zn6   S    
C34   C130  A    
C134  O44   A    
C109  I17   S    
C47   C95   A    
C118  C126  A    
C13   C148  A    
C89   O13   A    
C122  C130  A    
C137  O37   A    
O14   Zn1   S    
