data_mof_unit_8298.cif
_audit_creation_date              2012-12-10T17:02:56-0500
_audit_creation_method            fapswitch 2.2
_symmetry_space_group_name_H-M    P1
_symmetry_Int_Tables_number       1
_space_group_crystal_system       triclinic
_cell_length_a                    9.795921
_cell_length_b                    11.0408
_cell_length_c                    13.450152
_cell_angle_alpha                 93.864021
_cell_angle_beta                  81.773071
_cell_angle_gamma                 111.279741
_cell_volume                      1341.37870032

loop_
_atom_site_label
_atom_site_type_symbol
_atom_type_description
_atom_site_fract_x
_atom_site_fract_y
_atom_site_fract_z
_atom_type_partial_charge
C1    C     C_R   0.556664 0.745526 0.506951 0.865476
C2    C     C_R   0.426780 0.446639 0.968680 0.050828
C3    C     C_R   0.461918 0.430093 0.863742 0.077787
C4    C     C_R   0.535764 0.461290 0.032605 -0.033911
C5    C     C_R   0.681970 0.481891 0.989489 0.059070
C6    C     C_R   0.709031 0.447431 0.888985 -0.299940
C7    C     C_R   0.593530 0.404563 0.830131 -0.005735
C8    C     C_R   0.504370 0.453265 0.137731 0.379915
C9    C     C_R   0.768665 0.550963 0.152235 -0.068003
C10   C     C_R   0.368520 0.446326 0.797223 -0.072596
C11   C     C_2   0.588922 0.884714 0.510145 -0.351063
C12   C     C_R   0.420009 0.475643 0.689569 0.839187
C13   C     C_2   0.485422 0.930731 0.495155 -0.150876
C14   C     C_2   0.412550 0.115552 0.486235 -0.318141
C15   C     C_2   0.517102 0.069652 0.498865 -0.110987
C16   C     C_2   0.922227 0.489942 0.491614 -0.079151
C17   C     C_2   0.076977 0.508684 0.509335 -0.071004
C18   C     C_R   0.443924 0.254579 0.491634 0.901793
C19   C     C_R   0.577557 0.510484 0.308956 0.802296
C20   C     C_R   0.797167 0.528710 0.048715 -0.170832
C21   C     C_R   0.619675 0.507290 0.198658 -0.250084
C22   C     C_R   0.229532 0.450091 0.836560 -0.206591
C23   C     C_R   0.189672 0.453506 0.939547 -0.158131
C24   C     C_R   0.289488 0.458906 0.004871 -0.103221
Cu1   Cu    Cu3+1 0.362000 0.479240 0.482530 0.969369
Cu2   Cu    Cu3+1 0.638000 0.520760 0.517470 0.940339
H1    H     H_    0.376131 0.865694 0.480497 0.182908
H2    H     H_    0.303110 0.050257 0.472262 0.140355
H3    H     H_    0.698036 0.950044 0.524761 0.150043
H4    H     H_    0.125459 0.575328 0.568571 0.156195
H5    H     H_    0.873008 0.422004 0.433266 0.166023
H6    H     H_    0.106554 0.386536 0.399723 0.207523
H7    H     H_    0.894731 0.616100 0.598571 0.193354
H8    H     H_    0.816025 0.442627 0.859449 0.128387
H9    H     H_    0.909857 0.553917 0.012989 0.170486
H10   H     H_    0.154147 0.457640 0.787775 0.150734
H11   H     H_    0.259319 0.479323 0.082722 0.214621
H12   H     H_    0.084242 0.460473 0.968850 0.153177
H13   H     H_    0.626671 0.134729 0.512942 0.176713
N1    N     N_2   0.845330 0.551960 0.543750 -0.299685
N2    N     N_2   0.154690 0.448120 0.456210 -0.276523
O1    O     O_R   0.426290 0.668220 0.490680 -0.576320
O2    O     O_R   0.659360 0.703290 0.520190 -0.575547
O3    O     O_R   0.326580 0.473880 0.629020 -0.588572
O4    O     O_R   0.559660 0.508940 0.658530 -0.578241
O5    O     O_R   0.340640 0.296710 0.479810 -0.586645
O6    O     O_R   0.573710 0.331780 0.509320 -0.574333
O7    O     O_R   0.440340 0.491060 0.341470 -0.501978
O8    O     O_R   0.673420 0.526120 0.370980 -0.608415
C25   C     C_2   0.895978 0.620300 0.208209 0.381182
H14   H     H_    0.882810 0.675405 0.276265 0.098432
O9    O     O_2   0.019145 0.619616 0.177165 -0.564943
O10   O     O_3   0.362714 0.382043 0.180873 -0.577609
C26   C     C_3   0.346486 0.249517 0.179738 0.090769
H15   H     H_    0.429947 0.234699 0.221051 0.129077
H16   H     H_    0.357463 0.211893 0.101178 0.149772
C27   C     C_3   0.193724 0.171093 0.231173 -0.776487
H17   H     H_    0.107676 0.183901 0.191887 0.246116
H18   H     H_    0.178901 0.066398 0.229392 0.203050
H19   H     H_    0.180725 0.203867 0.310650 0.249831
C28   C     C_2   0.605427 0.315903 0.744423 0.422015
H20   H     H_    0.713095 0.317836 0.709244 0.053850
O11   O     O_2   0.494679 0.235539 0.715584 -0.565111

loop_
_geom_bond_atom_site_label_1
_geom_bond_atom_site_label_2
_ccdc_geom_bond_type
Cu1   O1    S    
C8    O10   S    
C25   O9    D    
H6    N2    S    
C6    C7    A    
C12   O4    A    
C23   H12   S    
C22   H10   S    
C14   C18   S    
C9    C20   A    
C2    C4    A    
C1    C11   S    
C4    C8    A    
C23   C24   A    
C15   H13   S    
C18   O6    A    
C24   H11   S    
C12   O3    A    
C3    C10   A    
O10   C26   S    
C10   C22   A    
C16   H5    S    
C17   H4    S    
C11   C13   D    
Cu1   O7    S    
Cu2   N1    S    
C27   H17   S    
C28   H20   S    
C10   C12   S    
Cu2   O6    S    
C16   N1    D    
C18   O5    A    
Cu1   O3    S    
C19   C21   S    
Cu2   O2    S    
C25   H14   S    
C3    C7    A    
C17   N2    D    
C13   C15   S    
C2    C24   A    
C5    C6    A    
C26   H16   S    
C27   H18   S    
H7    N1    S    
C16   C17   S    
C26   H15   S    
C9    C21   A    
C1    O1    A    
C11   H3    S    
C28   O11   D    
Cu2   O8    S    
Cu1   N2    S    
C5    C20   A    
C19   O8    A    
C14   C15   D    
C13   H1    S    
C27   H19   S    
C2    C3    A    
Cu2   O4    S    
C14   H2    S    
Cu1   Cu2   S    
C19   O7    A    
C20   H9    S    
Cu1   O5    S    
C1    O2    A    
C22   C23   A    
C7    C28   S    
C9    C25   S    
C6    H8    S    
C4    C5    A    
C26   C27   S    
C8    C21   A    
