data_mof_unit_41769.cif
_audit_creation_date              2012-12-11T14:14:05-0500
_audit_creation_method            fapswitch 2.2
_symmetry_space_group_name_H-M    P1
_symmetry_Int_Tables_number       1
_space_group_crystal_system       triclinic
_cell_length_a                    16.867381
_cell_length_b                    7.272258
_cell_length_c                    17.022585
_cell_angle_alpha                 89.85422
_cell_angle_beta                  99.175095
_cell_angle_gamma                 90.552235
_cell_volume                      2061.24533484

loop_
_atom_site_label
_atom_site_type_symbol
_atom_type_description
_atom_site_fract_x
_atom_site_fract_y
_atom_site_fract_z
_atom_type_partial_charge
O1    O     O_R   0.414560 0.494370 0.416770 -0.538910
O2    O     O_R   0.585440 0.994370 0.583230 -0.539582
O3    O     O_R   0.578370 0.819590 0.429320 -0.538889
O4    O     O_R   0.421630 0.319590 0.570680 -0.537442
C1    C     C_R   0.604507 0.656174 0.413496 0.700265
C2    C     C_R   0.395716 0.154247 0.586626 0.704060
O5    O     O_R   0.414740 0.823790 0.407360 -0.537387
O6    O     O_R   0.585260 0.323790 0.592640 -0.539532
O7    O     O_R   0.420650 0.998510 0.561120 -0.534259
O8    O     O_R   0.579350 0.498510 0.438880 -0.533658
C3    C     C_R   0.387441 0.654362 0.386019 0.738215
C4    C     C_R   0.612717 0.155431 0.613542 0.734821
O9    O     O_3   0.502130 0.662240 0.550470 -0.378803
O10   O     O_3   0.497870 0.162240 0.449530 -0.378116
V1    V     V_3+5 0.499600 0.935390 0.490640 1.406157
V2    V     V_3+5 0.500400 0.435390 0.509360 1.405263
C5    C     C_2   0.785530 0.269562 0.785662 0.349131
C6    C     C_2   0.193942 0.748709 0.233403 0.310143
C7    C     C_2   0.812339 0.112461 0.825401 0.146133
C8    C     C_2   0.187293 0.623767 0.172769 0.197643
C9    C     C_2   0.707903 0.273782 0.728605 -0.240868
C10   C     C_2   0.268387 0.771967 0.294827 -0.214494
C11   C     C_2   0.684882 0.141633 0.674736 -0.324272
C12   C     C_2   0.319251 0.635019 0.320020 -0.339577
H1    H     H_    0.671969 0.397160 0.727678 0.142011
H2    H     H_    0.277414 0.902592 0.325792 0.142909
H3    H     H_    0.721421 0.020209 0.672982 0.169196
H4    H     H_    0.307485 0.497630 0.296400 0.179606
C13   C     C_R   0.331503 0.140814 0.636539 -0.053934
C14   C     C_R   0.669113 0.649413 0.363804 -0.052434
C15   C     C_R   0.167653 0.124527 0.863724 -0.027382
C16   C     C_R   0.832826 0.619869 0.136874 -0.040404
C17   C     C_R   0.307887 0.161764 0.849905 -0.162864
C18   C     C_R   0.693701 0.671809 0.150563 -0.167619
C19   C     C_R   0.248171 0.147075 0.897980 -0.172301
C20   C     C_R   0.753811 0.659976 0.102960 -0.174983
C21   C     C_R   0.147548 0.113480 0.780810 -0.250600
C22   C     C_R   0.851607 0.594740 0.219464 -0.237990
C23   C     C_R   0.207559 0.112444 0.731030 0.109208
C24   C     C_R   0.793226 0.623224 0.269670 0.105229
C25   C     C_R   0.288526 0.145610 0.766722 0.144992
C26   C     C_R   0.712407 0.653423 0.233668 0.147971
C27   C     C_R   0.349226 0.163030 0.719149 -0.232955
C28   C     C_R   0.651234 0.664976 0.280871 -0.232058
C29   C     C_R   0.252810 0.095747 0.601564 -0.214222
C30   C     C_R   0.749385 0.632032 0.399885 -0.216811
C31   C     C_R   0.189787 0.082320 0.647046 0.002138
C32   C     C_R   0.812495 0.621813 0.354391 0.003846
H5    H     H_    0.410665 0.191742 0.746456 0.102387
H6    H     H_    0.589413 0.684294 0.253073 0.101176
H7    H     H_    0.240782 0.070672 0.538012 0.103467
H8    H     H_    0.762691 0.631485 0.464306 0.098837
H9    H     H_    0.369563 0.183750 0.877933 0.113565
H10   H     H_    0.632584 0.697960 0.122401 0.110970
H11   H     H_    0.264747 0.154581 0.962019 0.102930
H12   H     H_    0.738549 0.679012 0.039281 0.107092
H13   H     H_    0.084507 0.108453 0.756787 0.110979
H14   H     H_    0.912152 0.554409 0.243456 0.120008
O11   O     O_R   0.920750 0.773600 0.061260 -0.529578
O12   O     O_R   0.079250 0.273600 0.938740 -0.537851
O13   O     O_R   0.085340 0.439850 0.092570 -0.542624
O14   O     O_R   0.914660 0.939850 0.907430 -0.525222
C33   C     C_R   0.112568 0.609445 0.113813 0.691803
C34   C     C_R   0.886432 0.108036 0.886616 0.676755
O15   O     O_R   0.921720 0.444130 0.070790 -0.539390
O16   O     O_R   0.078280 0.944130 0.929210 -0.541717
O17   O     O_R   0.914480 0.269530 0.916840 -0.514786
O18   O     O_R   0.085520 0.769530 0.083160 -0.544535
C35   C     C_R   0.896182 0.611765 0.086199 0.699903
C36   C     C_R   0.104259 0.113252 0.914367 0.664632
O19   O     O_3   0.997840 0.601520 0.949550 -0.366539
O20   O     O_3   0.002160 0.101520 0.050450 -0.389022
V3    V     V_3+5 0.000400 0.328340 0.009360 1.419671
V4    V     V_3+5 0.999600 0.828340 0.990640 1.429332
O21   O     O_3   0.826523 0.434466 0.805539 -0.560298
C37   C     C_3   0.839436 0.533856 0.736920 0.148101
H15   H     H_    0.861257 0.673784 0.756092 0.169622
H16   H     H_    0.783179 0.557150 0.694496 0.072429
C38   C     C_3   0.902415 0.442309 0.694292 -0.401339
H17   H     H_    0.887001 0.295420 0.681434 0.187492
H18   H     H_    0.901760 0.511596 0.636322 0.154054
C39   C     C_3   0.986582 0.457077 0.742611 -0.673182
H19   H     H_    0.002188 0.602534 0.758224 0.208285
H20   H     H_    0.031101 0.403548 0.707211 0.194695
H21   H     H_    0.990143 0.374916 0.797925 0.249965
O22   O     O_3   0.125538 0.845709 0.243142 -0.592487
C40   C     C_3   0.137849 0.038272 0.239716 0.095884
H22   H     H_    0.097670 0.091264 0.186736 0.176366
H23   H     H_    0.199972 0.082175 0.232924 0.103646
C41   C     C_3   0.114089 0.126073 0.313945 -0.351083
H24   H     H_    0.051782 0.083395 0.319408 0.199719
H25   H     H_    0.155369 0.078461 0.367452 0.181936
C42   C     C_3   0.117472 0.334825 0.310508 -0.797186
H26   H     H_    0.179196 0.381393 0.305943 0.236225
H27   H     H_    0.100854 0.391393 0.365876 0.234662
H28   H     H_    0.074746 0.386975 0.259032 0.230588
O23   O     O_3   0.770705 0.948015 0.809490 -0.589180
C43   C     C_3   0.713555 0.930175 0.861375 0.086880
H29   H     H_    0.672548 0.050523 0.855782 0.120880
H30   H     H_    0.744058 0.918536 0.924234 0.106511
C44   C     C_3   0.663441 0.756111 0.839452 -0.279361
H31   H     H_    0.639990 0.756791 0.774576 0.200231
H32   H     H_    0.702077 0.633560 0.853045 0.210956
C45   C     C_3   0.592680 0.742488 0.885069 -0.867151
H33   H     H_    0.614070 0.743685 0.950192 0.227531
H34   H     H_    0.559111 0.612196 0.869262 0.232431
H35   H     H_    0.551209 0.859356 0.869256 0.234708
O24   O     O_3   0.251329 0.515957 0.159828 -0.592446
C46   C     C_3   0.302548 0.617619 0.116961 0.033488
H36   H     H_    0.362859 0.553964 0.129684 0.153563
H37   H     H_    0.310805 0.763695 0.136729 0.110532
C47   C     C_3   0.272886 0.608731 0.026928 -0.310322
H38   H     H_    0.258437 0.464104 0.009155 0.204006
H39   H     H_    0.217577 0.691319 0.011538 0.182981
C48   C     C_3   0.335869 0.683754 0.979769 -0.822427
H40   H     H_    0.351207 0.828712 0.996734 0.227481
H41   H     H_    0.311750 0.678971 0.915157 0.243034
H42   H     H_    0.391086 0.599402 0.991059 0.226250
C49   C     C_R   0.106965 0.038685 0.604594 0.092786
C50   C     C_R   0.078019 0.123028 0.531199 -0.159846
C51   C     C_R   0.998456 0.095655 0.494627 -0.115049
C52   C     C_R   0.946067 0.989813 0.532069 -0.073189
C53   C     C_R   0.974865 0.898988 0.602924 -0.109158
C54   C     C_R   0.055824 0.914619 0.636518 -0.141594
H43   H     H_    0.115906 0.215218 0.503270 0.112601
H44   H     H_    0.976877 0.160441 0.438071 0.123894
H45   H     H_    0.883799 0.974015 0.505066 0.102493
H46   H     H_    0.934624 0.814778 0.631257 0.100865
H47   H     H_    0.077639 0.835208 0.689255 0.110136
C55   C     C_R   0.897121 0.619766 0.397535 0.092704
C56   C     C_R   0.957815 0.729011 0.372021 -0.138224
C57   C     C_R   0.036857 0.722559 0.412092 -0.095727
C58   C     C_R   0.055315 0.619816 0.481560 -0.094442
C59   C     C_R   0.994986 0.520819 0.510322 -0.117961
C60   C     C_R   0.916914 0.516329 0.467799 -0.154806
H48   H     H_    0.944314 0.819715 0.321250 0.116634
H49   H     H_    0.083742 0.800542 0.390751 0.144647
H50   H     H_    0.116076 0.619163 0.513749 0.110534
H51   H     H_    0.009178 0.445243 0.565306 0.132384
H52   H     H_    0.872151 0.431659 0.489937 0.102815

loop_
_geom_bond_atom_site_label_1
_geom_bond_atom_site_label_2
_ccdc_geom_bond_type
C40   H22   S    
C44   H31   S    
C3    C12   S    
C55   C60   A    
O1    C3    A    
C37   C38   S    
O2    C4    A    
C2    O7    A    
C45   H34   S    
O23   C43   S    
C7    O23   S    
C53   C54   A    
C23   C25   A    
C49   C54   A    
O5    C3    A    
C4    C11   S    
C42   H26   S    
C16   C20   A    
C37   H16   S    
C46   H37   S    
C29   H7    S    
O18   V4    S    
C48   H40   S    
O16   V4    S    
C30   H8    S    
O12   V3    S    
O15   V3    S    
O24   C46   S    
O6    V2    S    
C52   H45   S    
O13   C33   A    
C45   H33   S    
C39   H20   S    
O14   C34   A    
C17   C19   A    
C22   H14   S    
C15   C36   S    
C57   C58   A    
C48   H41   S    
C18   C26   A    
O17   V3    S    
C16   C22   A    
C24   C26   A    
C18   C20   A    
C31   C49   S    
C58   H50   S    
C42   H27   S    
C13   C27   A    
C25   C27   A    
C14   C28   A    
C26   C28   A    
C47   H39   S    
C47   H38   S    
C29   C31   A    
C17   H9    S    
C60   H52   S    
C30   C32   A    
C19   H11   S    
C34   O17   A    
C37   H15   S    
O4    C2    A    
C56   H48   S    
C46   C47   S    
C59   H51   S    
C38   H18   S    
C50   H43   S    
C27   H5    S    
O13   V3    S    
C57   H49   S    
C39   H19   S    
C5    C9    S    
C15   C21   A    
C13   C29   A    
O4    V2    S    
O21   C37   S    
C20   H12   S    
O19   V4    S    
C41   H25   S    
O12   C36   A    
C7    C34   S    
O6    C4    A    
C48   H42   S    
O1    V2    S    
C6    O22   S    
O2    V1    S    
O11   V4    S    
C51   C52   A    
C16   C35   S    
O11   C35   A    
C18   H10   S    
C42   H28   S    
C11   H3    S    
C40   H23   S    
C58   C59   A    
C10   C12   D    
O9    V2    S    
C41   H24   S    
C56   C57   A    
C39   H21   S    
O3    V1    S    
C50   C51   A    
O22   C40   S    
C41   C42   S    
C23   C31   A    
C1    C14   S    
C28   H6    S    
C24   C32   A    
C9    H1    S    
C33   O18   A    
C6    C10   S    
C14   C30   A    
C12   H4    S    
O20   V3    S    
O3    C1    A    
C38   C39   S    
C49   C50   A    
C59   C60   A    
C44   C45   S    
C43   C44   S    
C43   H30   S    
C17   C25   A    
C8    C33   S    
C9    C11   D    
C55   C56   A    
O7    V1    S    
C1    O8    A    
C21   C23   A    
O8    V2    S    
C46   H36   S    
C22   C24   A    
C32   C55   S    
C53   H46   S    
O16   C36   A    
O15   C35   A    
C15   C19   A    
O5    V1    S    
C5    C7    D    
C54   H47   S    
C6    C8    D    
C45   H35   S    
C38   H17   S    
C51   H44   S    
C2    C13   S    
C44   H32   S    
C43   H29   S    
C10   H2    S    
C40   C41   S    
C5    O21   S    
O10   V1    S    
O14   V4    S    
C52   C53   A    
C47   C48   S    
C21   H13   S    
C8    O24   S    
