data_mof_unit_10454.cif
_audit_creation_date              2012-12-11T16:04:51-0500
_audit_creation_method            fapswitch 2.2
_symmetry_space_group_name_H-M    P1
_symmetry_Int_Tables_number       1
_space_group_crystal_system       triclinic
_cell_length_a                    10.642856
_cell_length_b                    10.643578
_cell_length_c                    16.843299
_cell_angle_alpha                 98.973589
_cell_angle_beta                  98.974334
_cell_angle_gamma                 61.644424
_cell_volume                      1651.12086396

loop_
_atom_site_label
_atom_site_type_symbol
_atom_type_description
_atom_site_fract_x
_atom_site_fract_y
_atom_site_fract_z
_atom_type_partial_charge
C1    C     C_R   0.381069 0.708435 0.386407 0.554641
C2    C     C_3   0.480298 0.750559 0.263135 -0.099270
C3    C     C_3   0.362766 0.761858 0.310011 -0.027571
C4    C     C_R   0.369001 0.345494 0.359438 0.618600
C5    C     C_3   0.273768 0.922170 0.300745 -0.163062
C6    C     C_3   0.196230 0.883742 0.222699 -0.142083
C7    C     C_3   0.286907 0.724102 0.233172 0.372622
C8    C     C_3   0.402968 0.712108 0.184101 -0.119551
C9    C     C_3   0.313173 0.873587 0.174736 0.008366
C10   C     C_3   0.484959 0.281016 0.794767 -0.152249
C11   C     C_3   0.436767 0.428769 0.764571 -0.215229
C12   C     C_3   0.748613 0.402257 0.258624 -0.175088
C13   C     C_3   0.382466 0.376235 0.682514 -0.021407
C14   C     C_3   0.431636 0.229386 0.712266 -0.084432
C15   C     C_3   0.281868 0.286564 0.740068 0.236645
C16   C     C_R   0.787098 0.371895 0.406721 0.593252
C17   C     C_3   0.233762 0.433102 0.711499 0.219175
C18   C     C_3   0.286583 0.484819 0.794742 -0.162124
C19   C     C_3   0.335065 0.336628 0.822468 -0.012070
C20   C     C_1   0.766100 0.369239 0.715918 -0.003532
C21   C     C_1   0.810331 0.331138 0.782761 0.002758
C22   C     C_1   0.359905 0.759792 0.715134 0.029154
C23   C     C_3   0.853086 0.333831 0.331887 -0.000056
C24   C     C_1   0.328207 0.806392 0.782992 0.031585
C25   C     C_R   0.962740 0.284081 0.102748 0.531408
C26   C     C_R   0.318600 0.298853 0.120519 0.587977
C27   C     C_R   0.267412 0.941533 0.100234 0.517135
C28   C     C_R   0.380406 0.713834 0.631508 0.518452
C29   C     C_R   0.876193 0.303242 0.862947 0.589415
C30   C     C_R   0.311095 0.296666 0.894676 0.588443
C31   C     C_R   0.283592 0.877518 0.860556 0.586935
C32   C     C_R   0.410875 0.380318 0.601331 0.512129
C33   C     C_R   0.717205 0.411356 0.635626 0.510594
C34   C     C_3   0.926501 0.188551 0.283286 -0.189822
C35   C     C_1   0.340934 0.333976 0.275770 0.128298
C36   C     C_1   0.329444 0.324049 0.204384 0.141596
C37   C     C_3   0.823529 0.256066 0.209713 0.207626
C38   C     C_3   0.034011 0.234279 0.259151 -0.211071
C39   C     C_3   0.959348 0.378577 0.310020 0.374890
C40   C     C_3   0.857293 0.446323 0.236944 0.169107
C41   C     C_3   0.928601 0.301153 0.185860 -0.033142
C42   C     C_3   0.389566 0.911099 0.251914 0.394663
Cr1   Cr    Cr6+3 0.608340 0.611040 0.520430 1.122901
Cr2   Cr    Cr6+3 0.287650 0.601120 0.489350 1.172320
Cr3   Cr    Cr6+3 0.604040 0.287870 0.490280 1.074069
Cr4   Cr    Cr6+3 0.054020 0.052700 0.970850 1.127066
Cr5   Cr    Cr6+3 0.059230 0.375120 0.993390 1.133471
Cr6   Cr    Cr6+3 0.374950 0.061200 0.992340 1.165777
F1    F     F_    0.230809 0.629405 0.225851 -0.599692
F2    F     F_    0.031210 0.438364 0.365226 -0.593295
F3    F     F_    0.444313 0.007293 0.259446 -0.588712
H1    H     H_    0.630365 0.462337 0.257835 0.111099
H2    H     H_    0.591991 0.696009 0.288954 0.178263
H3    H     H_    0.225002 0.003595 0.351560 0.167076
H4    H     H_    0.031335 0.171056 0.620934 0.379169
H5    H     H_    0.974198 0.500063 0.757560 0.352500
H6    H     H_    0.721826 0.055637 0.243106 0.383466
H7    H     H_    0.828437 0.683320 0.343456 0.368665
H8    H     H_    0.080375 0.932434 0.202141 0.191741
H9    H     H_    0.454961 0.627455 0.135238 0.173125
H10   H     H_    0.499985 0.488605 0.774494 0.092643
H11   H     H_    0.588421 0.218334 0.830075 0.163699
H12   H     H_    0.493517 0.122735 0.679565 0.196305
H13   H     H_    0.226836 0.589011 0.830170 0.158037
H14   H     H_    0.950451 0.086370 0.306020 0.147602
H15   H     H_    0.151213 0.178456 0.256271 0.134636
O1    O     O_R   0.751220 0.499230 0.435170 -0.482490
O2    O     O_R   0.412990 0.180750 0.091610 -0.413492
O3    O     O_R   0.366620 0.943130 0.065760 -0.454025
O4    O     O_R   0.477220 0.727600 0.436870 -0.490243
O5    O     O_R   0.160510 0.906330 0.879210 -0.483392
O6    O     O_R   0.930190 0.179050 0.889450 -0.461872
O7    O     O_R   0.909140 0.398170 0.896710 -0.497042
O8    O     O_R   0.186190 0.363460 0.918830 -0.490297
O9    O     O_R   0.401670 0.173200 0.913310 -0.478103
O10   O     O_R   0.356120 0.936130 0.900470 -0.470217
O11   O     O_3   0.162740 0.163010 0.985530 -0.331915
O12   O     O_R   0.297880 0.469080 0.560050 -0.430055
O13   O     O_R   0.258650 0.745120 0.411470 -0.456880
O14   O     O_R   0.297070 0.467240 0.395960 -0.442095
O15   O     O_R   0.488830 0.252610 0.387790 -0.465931
O16   O     O_R   0.724400 0.302390 0.420980 -0.501987
O17   O     O_R   0.752100 0.501210 0.612190 -0.393949
O18   O     O_R   0.478040 0.729440 0.600970 -0.464152
O19   O     O_R   0.259530 0.747110 0.588490 -0.438727
O20   O     O_2   0.298712 0.035185 0.675689 -0.292109
O21   O     O_2   0.146641 0.155148 0.786910 -0.299233
O22   O     O_3   0.052053 0.250784 0.645663 -0.470414
O23   O     O_R   0.489720 0.254590 0.564810 -0.491185
O24   O     O_2   0.058363 0.689612 0.656599 -0.248052
O25   O     O_2   0.031236 0.484567 0.584076 -0.150582
O26   O     O_3   0.933905 0.583553 0.725546 -0.474550
O27   O     O_2   0.624150 0.266188 0.088822 -0.261557
O28   O     O_2   0.832564 0.031031 0.105882 -0.242127
O29   O     O_3   0.644792 0.129499 0.210112 -0.463861
O30   O     O_2   0.970016 0.597200 0.187061 -0.161053
O31   O     O_2   0.714527 0.673702 0.148352 -0.233855
O32   O     O_3   0.795118 0.738901 0.295880 -0.463045
O33   O     O_R   0.725220 0.304230 0.585080 -0.505924
O34   O     O_3   0.500010 0.500010 0.500020 -0.397047
O35   O     O_R   0.171830 0.913880 0.057510 -0.502629
O36   O     O_R   0.940690 0.186050 0.054730 -0.450873
O37   O     O_R   0.920470 0.405720 0.075010 -0.433329
O38   O     O_R   0.196690 0.370460 0.084120 -0.502880
S1    S     S_3+6 0.193943 0.177047 0.713301 0.014988
S2    S     S_3+6 0.061116 0.550205 0.665772 0.104817
S3    S     S_3+6 0.730231 0.168175 0.149354 0.051127
S4    S     S_3+6 0.833578 0.617167 0.214616 0.094598

loop_
_geom_bond_atom_site_label_1
_geom_bond_atom_site_label_2
_ccdc_geom_bond_type
C5    C42   S    
C11   C18   S    
C30   O9    A    
C28   O18   A    
C34   C37   S    
Cr1   O17   S    
Cr6   O10   S    
C13   C32   S    
Cr3   O16   S    
Cr6   O9    S    
Cr6   O3    S    
C6    C9    S    
C7    F1    S    
C7    C8    S    
C15   C19   S    
Cr4   O36   S    
C12   C23   S    
C9    C42   S    
C37   S3    S    
C3    C7    S    
C38   C39   S    
C30   O8    A    
C25   O36   A    
C11   C13   S    
C29   O7    A    
H4    O22   S    
O32   S4    S    
C18   C19   S    
C12   C37   S    
C26   O38   A    
O31   S4    D    
C4    O15   A    
C35   C36   T    
C8    C9    S    
H7    O32   S    
Cr3   O23   S    
Cr4   O6    S    
C27   O3    A    
C42   F3    S    
C40   S4    S    
C29   O6    A    
C31   O5    A    
O30   S4    D    
C4    C35   S    
C22   C28   S    
C13   C14   S    
Cr1   O18   S    
O25   S2    D    
C10   H11   S    
C34   H14   S    
C12   H1    S    
Cr4   O35   S    
C2    C8    S    
O28   S3    D    
Cr5   O37   S    
C38   H15   S    
C5    H3    S    
Cr2   O14   S    
Cr1   O34   S    
Cr5   O7    S    
C38   C41   S    
Cr3   O33   S    
C25   C41   S    
C39   C40   S    
C25   O37   A    
C11   H10   S    
C21   C29   S    
Cr3   O34   S    
C33   O33   A    
Cr6   O11   S    
C12   C40   S    
C32   O23   A    
O21   S1    D    
C10   C19   S    
C23   C34   S    
C16   O16   A    
C17   C18   S    
C16   O1    A    
Cr6   O2    S    
C33   O17   A    
O24   S2    D    
Cr4   O5    S    
O29   S3    S    
C20   C33   S    
C26   C36   S    
C40   C41   S    
Cr1   O4    S    
C10   C14   S    
C1    O13   A    
C22   C24   T    
O20   S1    D    
Cr5   O11   S    
Cr2   O19   S    
C9    C27   S    
O26   S2    S    
C15   C17   S    
Cr5   O38   S    
C34   C38   S    
C6    H8    S    
Cr2   O13   S    
Cr3   O15   S    
Cr5   O8    S    
C3    C5    S    
C2    H2    S    
Cr4   O11   S    
C4    O14   A    
C6    C7    S    
C16   C23   S    
C1    O4    A    
C13   C17   S    
C26   O2    A    
C15   S1    S    
Cr2   O12   S    
C2    C3    S    
C24   C31   S    
C17   S2    S    
O27   S3    D    
O22   S1    S    
Cr2   O34   S    
C18   H13   S    
C31   O10   A    
C5    C6    S    
C2    C42   S    
C23   C39   S    
C14   H12   S    
C27   O35   A    
C37   C41   S    
C10   C11   S    
C32   O12   A    
H5    O26   S    
C39   F2    S    
C20   C21   T    
Cr1   O1    S    
H6    O29   S    
C28   O19   A    
C14   C15   S    
C1    C3    S    
C19   C30   S    
C8    H9    S    
