data_mof_unit_48398.cif
_audit_creation_date              2012-12-10T20:38:15-0500
_audit_creation_method            fapswitch 2.2
_symmetry_space_group_name_H-M    P1
_symmetry_Int_Tables_number       1
_space_group_crystal_system       triclinic
_cell_length_a                    9.850969
_cell_length_b                    10.680552
_cell_length_c                    16.645009
_cell_angle_alpha                 89.984399
_cell_angle_beta                  85.512076
_cell_angle_gamma                 90.080225
_cell_volume                      1745.91288219

loop_
_atom_site_label
_atom_site_type_symbol
_atom_type_description
_atom_site_fract_x
_atom_site_fract_y
_atom_site_fract_z
_atom_type_partial_charge
C1    C     C_R   0.499606 0.740043 0.502229 0.882846
C2    C     C_R   0.343624 0.535401 0.783054 -0.201911
C3    C     C_R   0.427677 0.685145 0.164004 0.138799
C4    C     C_R   0.418599 0.627011 0.239268 -0.241261
C5    C     C_R   0.648715 0.547203 0.215472 -0.208198
C6    C     C_R   0.657084 0.599920 0.138945 -0.191243
C7    C     C_R   0.545136 0.663334 0.111549 0.165849
C8    C     C_2   0.444577 0.613081 0.989004 -0.246597
C9    C     C_2   0.541975 0.675162 0.024436 -0.263949
C10   C     C_R   0.527386 0.556082 0.264589 -0.061830
C11   C     C_R   0.376487 0.935997 0.502286 0.131800
C12   C     C_R   0.481525 0.501389 0.653672 0.857730
C13   C     C_R   0.496213 0.871567 0.513425 -0.103277
C14   C     C_R   0.610034 0.935547 0.538130 -0.222444
C15   C     C_R   0.610161 0.065073 0.537839 -0.224525
C16   C     C_R   0.496271 0.128501 0.512923 -0.109814
C17   C     C_R   0.376543 0.063702 0.501945 0.143956
C18   C     C_3   0.286816 0.070343 0.433650 -0.483130
C19   C     C_3   0.287181 0.928521 0.433896 -0.495202
C20   C     C_R   0.920141 0.539592 0.566259 0.219608
C21   C     C_R   0.936157 0.450080 0.437591 -0.134847
C22   C     C_R   0.080200 0.450050 0.437592 -0.144409
C23   C     C_R   0.499587 0.259977 0.501920 0.884394
C24   C     C_R   0.062758 0.539207 0.566357 0.217904
C25   C     C_3   0.064586 0.665754 0.603825 -0.509937
C26   C     C_3   0.910583 0.666812 0.603049 -0.521063
C27   C     C_R   0.518283 0.508280 0.346811 0.865436
C28   C     C_R   0.471176 0.518686 0.740731 -0.032655
C29   C     C_R   0.590331 0.529642 0.781053 -0.217685
C30   C     C_R   0.582522 0.561811 0.861821 -0.151766
C31   C     C_R   0.455308 0.583738 0.903252 0.213586
C32   C     C_R   0.335908 0.567121 0.864241 -0.183481
H1    H     H_    0.689911 0.515506 0.750010 0.151641
H2    H     H_    0.747525 0.583553 0.098961 0.132498
H3    H     H_    0.700723 0.886564 0.552927 0.161082
H4    H     H_    0.701122 0.114597 0.552367 0.170801
H5    H     H_    0.185492 0.111119 0.452420 0.206889
H6    H     H_    0.338914 0.111622 0.378099 0.197084
H7    H     H_    0.185883 0.887181 0.452201 0.202773
H8    H     H_    0.340889 0.887035 0.379078 0.193722
H9    H     H_    0.888524 0.411737 0.386623 0.145571
H10   H     H_    0.141123 0.411610 0.386630 0.148783
H11   H     H_    0.099899 0.662690 0.665585 0.195107
H12   H     H_    0.326831 0.639101 0.278776 0.157984
H13   H     H_    0.116026 0.736971 0.563344 0.217415
H14   H     H_    0.856998 0.665670 0.664332 0.196785
H15   H     H_    0.873474 0.737867 0.561334 0.211500
H16   H     H_    0.735179 0.496406 0.235278 0.147531
H17   H     H_    0.630976 0.712108 0.989666 0.153845
H18   H     H_    0.237011 0.580630 0.896336 0.122887
H19   H     H_    0.250259 0.526645 0.753213 0.148980
H20   H     H_    0.357870 0.574126 0.025165 0.156164
H21   H     H_    0.675982 0.567557 0.891749 0.123471
N1    N     N_R   0.857140 0.500860 0.500530 -0.104689
N2    N     N_R   0.142780 0.500820 0.500530 -0.105088
O1    O     O_R   0.385310 0.683210 0.499990 -0.618296
O2    O     O_R   0.614650 0.683240 0.500000 -0.618088
O3    O     O_R   0.371780 0.500000 0.615800 -0.617568
O4    O     O_R   0.601120 0.500040 0.615800 -0.619432
O5    O     O_R   0.385350 0.316760 0.500000 -0.611388
O6    O     O_R   0.614690 0.316790 0.500010 -0.619607
O7    O     O_R   0.398880 0.499960 0.384200 -0.626078
O8    O     O_R   0.628220 0.500000 0.384200 -0.615712
Zn1   Zn    Zn3+2 0.346870 0.499980 0.499990 0.937470
Zn2   Zn    Zn3+2 0.653130 0.500020 0.500010 0.941891
C33   C     C_3   0.309774 0.765106 0.140206 -0.453305
C34   C     C_3   0.283121 0.876251 0.197726 -0.342791
C35   C     C_3   0.176977 0.965058 0.167620 -0.877606
H22   H     H_    0.213652 0.005165 0.108254 0.260000
H23   H     H_    0.079534 0.914639 0.161753 0.261861
H24   H     H_    0.158364 0.042944 0.211273 0.248876
H25   H     H_    0.244580 0.841611 0.258092 0.218137
H26   H     H_    0.379270 0.928969 0.203601 0.226780
H27   H     H_    0.330363 0.803131 0.078384 0.227019
H28   H     H_    0.216744 0.705977 0.140604 0.192423

loop_
_geom_bond_atom_site_label_1
_geom_bond_atom_site_label_2
_ccdc_geom_bond_type
C10   C27   S    
O8    Zn2   S    
C25   H11   S    
N1    Zn2   S    
C22   H10   S    
C24   N2    A    
C11   C19   S    
C12   C28   S    
C5    C6    A    
C19   H7    S    
C28   C29   A    
C18   H5    S    
C34   H25   S    
C3    C7    A    
C21   N1    A    
C16   C17   A    
C15   C16   A    
C33   H27   S    
C29   H1    S    
C2    C32   A    
C18   C19   S    
O7    Zn1   S    
C12   O4    A    
C20   C24   A    
C8    C9    D    
O1    Zn1   S    
C34   H26   S    
C8    H20   S    
C12   O3    A    
C33   C34   S    
C21   C22   A    
C30   H21   S    
O3    Zn1   S    
C23   O5    A    
C5    H16   S    
C34   C35   S    
C9    H17   S    
C24   C25   S    
C20   N1    A    
C19   H8    S    
C14   H3    S    
C35   H22   S    
C4    H12   S    
C25   C26   S    
C6    H2    S    
C29   C30   A    
C27   O7    A    
C1    O2    A    
C31   C32   A    
N2    Zn1   S    
C17   C18   S    
C32   H18   S    
C6    C7    A    
C27   O8    A    
C26   H15   S    
C21   H9    S    
C16   C23   S    
C3    C33   S    
C1    C13   S    
C4    C10   A    
C3    C4    A    
C25   H13   S    
C15   H4    S    
C7    C9    S    
C11   C17   A    
C8    C31   S    
C1    O1    A    
O2    Zn2   S    
C22   N2    A    
O5    Zn1   S    
C18   H6    S    
C5    C10   A    
O4    Zn2   S    
C11   C13   A    
C30   C31   A    
C20   C26   S    
C35   H24   S    
C33   H28   S    
C2    H19   S    
C26   H14   S    
O6    Zn2   S    
C23   O6    A    
C35   H23   S    
C14   C15   A    
C2    C28   A    
C13   C14   A    
