data_mof_unit_38122.cif
_audit_creation_date              2012-12-11T15:10:49-0500
_audit_creation_method            fapswitch 2.2
_symmetry_space_group_name_H-M    P1
_symmetry_Int_Tables_number       1
_space_group_crystal_system       triclinic
_cell_length_a                    21.173311
_cell_length_b                    7.237313
_cell_length_c                    18.317741
_cell_angle_alpha                 89.99575
_cell_angle_beta                  93.162719
_cell_angle_gamma                 89.997248
_cell_volume                      2802.69639636

loop_
_atom_site_label
_atom_site_type_symbol
_atom_type_description
_atom_site_fract_x
_atom_site_fract_y
_atom_site_fract_z
_atom_type_partial_charge
O1    O     O_R   0.448880 0.506250 0.415280 -0.525865
O2    O     O_R   0.551120 0.006250 0.584720 -0.525222
O3    O     O_R   0.434830 0.174000 0.557310 -0.524041
O4    O     O_R   0.565170 0.674000 0.442690 -0.524072
C1    C     C_R   0.417450 0.344455 0.580264 0.736274
C2    C     C_R   0.582551 0.844456 0.419738 0.735477
O5    O     O_R   0.441680 0.176440 0.414130 -0.534879
O6    O     O_R   0.558320 0.676440 0.585870 -0.534418
O7    O     O_R   0.558020 0.007570 0.440520 -0.517571
O8    O     O_R   0.441980 0.507570 0.559480 -0.517387
C3    C     C_R   0.427603 0.344976 0.388815 0.776333
C4    C     C_R   0.572392 0.844959 0.611186 0.775872
O9    O     O_3   0.538160 0.339670 0.508820 -0.370058
O10   O     O_3   0.461840 0.839670 0.491180 -0.370130
V1    V     V_3+5 0.492920 0.064260 0.498360 1.429698
V2    V     V_3+5 0.507080 0.564260 0.501640 1.430239
C5    C     C_R   0.879116 0.981279 0.688978 -0.149536
C6    C     C_R   0.120778 0.479979 0.311090 -0.150182
H1    H     H_    0.802518 0.977889 0.571577 0.128239
H2    H     H_    0.197370 0.476285 0.428527 0.127700
H3    H     H_    0.901988 0.009870 0.638686 0.113309
H4    H     H_    0.097857 0.507944 0.361398 0.113270
C7    C     C_R   0.888121 0.942595 0.820045 -0.038255
C8    C     C_R   0.111879 0.442464 0.179959 -0.037351
C9    C     C_R   0.584320 0.817503 0.743854 -0.190735
C10   C     C_R   0.415692 0.317940 0.256090 -0.226775
C11   C     C_R   0.618168 0.815805 0.811067 0.267557
C12   C     C_R   0.381555 0.316446 0.188754 0.266885
C13   C     C_R   0.683510 0.846651 0.814345 -0.180363
C14   C     C_R   0.316437 0.346997 0.185719 -0.146045
C15   C     C_R   0.716503 0.880748 0.750589 -0.005582
C16   C     C_R   0.283459 0.380837 0.249467 -0.022268
C17   C     C_R   0.681002 0.884471 0.681209 0.068614
C18   C     C_R   0.318968 0.384300 0.318829 0.068400
C19   C     C_R   0.783747 0.911266 0.753989 0.086614
C20   C     C_R   0.216223 0.411162 0.246065 0.086087
C21   C     C_R   0.813792 0.947625 0.688199 0.109836
C22   C     C_R   0.186131 0.446794 0.311874 0.112342
C23   C     C_R   0.778900 0.950817 0.621564 -0.250196
C24   C     C_R   0.221014 0.449716 0.378521 -0.248805
C25   C     C_R   0.713832 0.919173 0.617059 0.169573
C26   C     C_R   0.286113 0.418447 0.383003 0.169063
C27   C     C_R   0.822707 0.907854 0.820165 -0.200487
C28   C     C_R   0.177329 0.408251 0.179849 -0.200653
C29   C     C_R   0.915759 0.979978 0.754307 -0.165103
C30   C     C_R   0.084167 0.478950 0.245731 -0.165270
C31   C     C_R   0.614039 0.851728 0.678979 -0.126865
C32   C     C_R   0.385955 0.351798 0.321011 -0.109114
H5    H     H_    0.533799 0.791580 0.742271 0.119794
H6    H     H_    0.466239 0.292518 0.258039 0.103041
H7    H     H_    0.707182 0.843570 0.867801 0.107666
H8    H     H_    0.293068 0.343210 0.132051 0.125583
C33   C     C_1   0.864475 0.938920 0.132025 -0.208471
C34   C     C_1   0.135524 0.438922 0.867973 -0.206223
C35   C     C_1   0.821556 0.924844 0.175697 -0.002784
C36   C     C_1   0.178442 0.424846 0.824300 0.000337
C37   C     C_1   0.770895 0.905690 0.227688 -0.003927
C38   C     C_1   0.229102 0.405690 0.772309 -0.000517
C39   C     C_1   0.728235 0.889023 0.271560 -0.003101
C40   C     C_1   0.271763 0.389021 0.728438 0.000291
C41   C     C_1   0.677579 0.869858 0.323549 -0.006204
C42   C     C_1   0.322421 0.369855 0.676451 -0.002990
C43   C     C_1   0.634695 0.855779 0.367252 -0.215457
C44   C     C_1   0.365306 0.355776 0.632750 -0.212992
O11   O     O_R   0.058070 0.289240 0.940580 -0.520108
O12   O     O_R   0.941930 0.789240 0.059420 -0.520372
O13   O     O_R   0.058330 0.616740 0.085880 -0.532675
O14   O     O_R   0.941670 0.116740 0.914120 -0.532934
C45   C     C_R   0.071969 0.448719 0.111467 0.684322
C46   C     C_R   0.928042 0.948741 0.888527 0.683324
O15   O     O_R   0.065180 0.619040 0.942700 -0.522246
O16   O     O_R   0.934820 0.119040 0.057300 -0.522524
O17   O     O_R   0.948870 0.787780 0.915270 -0.530622
O18   O     O_R   0.051130 0.287780 0.084730 -0.530331
C47   C     C_R   0.083204 0.450321 0.920219 0.705483
C48   C     C_R   0.916795 0.950320 0.079780 0.704793
O19   O     O_3   0.961870 0.453310 0.991210 -0.366215
O20   O     O_3   0.038130 0.953310 0.008790 -0.365374
V3    V     V_3+5 0.007070 0.728770 0.001630 1.418859
V4    V     V_3+5 0.992930 0.228770 0.998370 1.418156
H9    H     H_    0.965979 0.008281 0.753606 0.106233
H10   H     H_    0.033917 0.506792 0.246432 0.106249
H11   H     H_    0.804098 0.880834 0.872648 0.093376
H12   H     H_    0.196054 0.382039 0.127365 0.093742
N1    N     N_3   0.585171 0.779915 0.876004 -0.660010
H13   H     H_    0.554614 0.891043 0.883374 0.229021
H14   H     H_    0.616696 0.776562 0.921977 0.223551
N2    N     N_3   0.412319 0.281460 0.122212 -0.661135
H15   H     H_    0.460476 0.255353 0.133273 0.227470
H16   H     H_    0.409356 0.402375 0.090966 0.227972
N3    N     N_3   0.682040 0.922401 0.546131 -0.682259
H17   H     H_    0.702780 0.822528 0.513859 0.218357
H18   H     H_    0.689329 0.051827 0.522638 0.231599
N4    N     N_3   0.317907 0.421417 0.453926 -0.683685
H19   H     H_    0.310569 0.550736 0.477489 0.231504
H20   H     H_    0.297200 0.321328 0.486140 0.218275

loop_
_geom_bond_atom_site_label_1
_geom_bond_atom_site_label_2
_ccdc_geom_bond_type
O14   V4    S    
C14   C16   A    
C7    C29   A    
C11   C13   A    
C27   H11   S    
O1    C3    A    
O16   C48   A    
O2    C4    A    
C2    O7    A    
O15   V3    S    
C23   C25   A    
N1    H13   S    
O5    C3    A    
O12   V3    S    
C16   C20   A    
C19   C21   A    
C5    C29   A    
C10   H6    S    
H2    C24   S    
C37   C39   T    
C38   C40   T    
C7    C27   A    
C40   C42   S    
C11   N1    S    
C42   C44   T    
C30   H10   S    
C18   C26   A    
C12   N2    S    
C15   C17   A    
C19   C27   A    
C9    C31   A    
C10   C32   A    
N1    H14   S    
O6    V2    S    
O11   V4    S    
C26   N4    S    
C13   C15   A    
C7    C46   S    
C3    C32   S    
C4    C31   S    
C6    C30   A    
C8    C45   S    
C33   C35   T    
C21   C23   A    
C34   C36   T    
C39   C41   S    
O13   V3    S    
O4    C2    A    
N3    H17   S    
O20   V3    S    
C28   H12   S    
C5    H3    S    
C1    C44   S    
O13   C45   A    
C16   C18   A    
C2    C43   S    
O4    V2    S    
N3    H18   S    
O6    C4    A    
O12   C48   A    
C46   O17   A    
C41   C43   T    
O17   V3    S    
C45   O18   A    
O1    V2    S    
C5    C21   A    
N4    H20   S    
O2    V1    S    
H1    C23   S    
C25   N3    S    
N2    H16   S    
C35   C37   S    
C17   C31   A    
C15   C19   A    
C20   C28   A    
C33   C48   S    
C18   C32   A    
C20   C22   A    
O3    V1    S    
C13   H7    S    
O19   V4    S    
C14   H8    S    
C6    H4    S    
C29   H9    S    
O15   C47   A    
C24   C26   A    
O3    C1    A    
C9    C11   A    
C10   C12   A    
O11   C47   A    
C8    C30   A    
C12   C14   A    
C6    C22   A    
C17   C25   A    
C1    O8    A    
O16   V4    S    
O8    V2    S    
C22   C24   A    
C8    C28   A    
O5    V1    S    
C36   C38   S    
O7    V1    S    
N4    H19   S    
C9    H5    S    
C34   C47   S    
N2    H15   S    
O14   C46   A    
O9    V2    S    
O10   V1    S    
O18   V4    S    
