data_mof_unit_18345.cif
_audit_creation_date              2012-10-26T21:03:30-0400
_audit_creation_method            fapswitch 2.2
_symmetry_space_group_name_H-M    P1
_symmetry_Int_Tables_number       1
_space_group_crystal_system       triclinic
_cell_length_a                    15.978025
_cell_length_b                    14.734782
_cell_length_c                    10.853726
_cell_angle_alpha                 89.69102
_cell_angle_beta                  89.535866
_cell_angle_gamma                 89.918988
_cell_volume                      2555.19878728

loop_
_atom_site_label
_atom_site_type_symbol
_atom_type_description
_atom_site_fract_x
_atom_site_fract_y
_atom_site_fract_z
_atom_type_partial_charge
C1    C     C_R   0.340827 0.499979 0.499997 0.594162
C2    C     C_R   0.434983 0.952209 0.449887 0.189224
C3    C     C_R   0.504253 0.902947 0.497083 -0.114540
C4    C     C_R   0.430515 0.048367 0.465779 0.143464
C5    C     C_R   0.573480 0.048400 0.548324 0.193149
C6    C     C_R   0.501750 0.096890 0.506486 -0.117129
C7    C     C_1   0.501591 0.802673 0.499387 0.331697
C8    C     C_1   0.500964 0.197280 0.502340 0.303494
C9    C     C_R   0.510187 0.499965 0.262201 0.568485
C10   C     C_R   0.500026 0.499818 0.738947 0.576278
C11   C     C_R   0.549339 0.667108 0.102823 0.279861
C12   C     C_R   0.659167 0.499858 0.500191 0.555790
C13   C     C_R   0.439186 0.653084 0.902292 0.273377
C14   C     C_R   0.515919 0.747255 0.049163 0.009739
C15   C     C_R   0.456421 0.739789 0.953049 0.001366
C16   C     C_R   0.485918 0.577202 0.944023 -0.043256
C17   C     C_R   0.520400 0.581990 0.061187 -0.041974
C18   C     C_R   0.526313 0.499733 0.128208 0.047062
C19   C     C_R   0.505748 0.498695 0.873681 0.035846
C20   C     C_R   0.540258 0.417891 0.062164 0.001351
C21   C     C_R   0.544576 0.423393 0.933056 -0.016637
C22   C     C_R   0.956652 0.571301 0.485892 -0.137267
C23   C     C_R   0.955730 0.406741 0.517522 0.259115
C24   C     C_R   0.043216 0.571584 0.487626 -0.141832
C25   C     C_R   0.912819 0.490167 0.500327 -0.014130
C26   C     C_R   0.087159 0.491524 0.510302 -0.015770
C27   C     C_3   0.551640 0.326614 0.126140 -0.331938
C28   C     C_3   0.596277 0.354340 0.862242 -0.328662
C29   C     C_3   0.541305 0.840576 0.094076 -0.301504
C30   C     C_3   0.414756 0.825080 0.903920 -0.318496
C31   C     C_R   0.044356 0.408616 0.532072 0.255939
C32   C     C_1   0.823227 0.495510 0.500057 0.053539
C33   C     C_1   0.176756 0.496448 0.506468 0.060545
C34   C     C_1   0.251770 0.499373 0.502964 0.106477
C35   C     C_1   0.748209 0.498909 0.500150 0.083184
C36   C     C_R   0.574692 0.950674 0.543896 0.188729
Cu1   Cu    Cu3+1 0.500000 0.589220 0.500000 1.207532
Cu2   Cu    Cu3+1 0.500000 0.410780 0.500000 1.104670
H1    H     H_    0.076183 0.634979 0.472405 0.169435
H2    H     H_    0.215098 0.675814 0.852168 0.381965
H3    H     H_    0.578911 0.839105 0.178995 0.211259
H4    H     H_    0.578129 0.875886 0.021159 0.176136
H5    H     H_    0.485098 0.881670 0.116712 0.163633
H6    H     H_    0.375912 0.813977 0.821821 0.212806
H7    H     H_    0.374124 0.855022 0.976559 0.174492
H8    H     H_    0.463012 0.875269 0.875437 0.136324
H9    H     H_    0.922464 0.161944 0.473367 0.400411
H10   H     H_    0.078126 0.187610 0.683620 0.386061
H11   H     H_    0.693277 0.248930 0.652701 0.392839
H12   H     H_    0.923603 0.634745 0.471440 0.171323
H13   H     H_    0.324478 0.168924 0.623094 0.346901
H14   H     H_    0.708894 0.848534 0.778174 0.386003
H15   H     H_    0.272448 0.921357 0.214950 0.380255
H16   H     H_    0.604417 0.329951 0.191919 0.177068
H17   H     H_    0.492883 0.306819 0.174251 0.184011
H18   H     H_    0.563858 0.269602 0.062501 0.136109
H19   H     H_    0.629649 0.386763 0.783495 0.154935
H20   H     H_    0.647478 0.325990 0.919304 0.157146
H21   H     H_    0.555561 0.298486 0.829897 0.196304
H22   H     H_    0.761713 0.744105 0.163008 0.386842
N1    N     N_1   0.500000 0.276710 0.500000 -0.133510
N2    N     N_1   0.500000 0.723290 0.500000 -0.098992
O1    O     O_R   0.380310 0.575320 0.500020 -0.452349
O2    O     O_2   0.683608 0.579107 0.200117 -0.293220
O3    O     O_3   0.712585 0.738647 0.108473 -0.513072
O4    O     O_2   0.347932 0.679393 0.697611 -0.280858
O5    O     O_2   0.325282 0.535705 0.808760 -0.271863
O6    O     O_3   0.265456 0.683225 0.903774 -0.502719
O7    O     O_2   0.872024 0.279548 0.645815 -0.229545
O8    O     O_2   0.821055 0.311637 0.438337 -0.265030
O9    O     O_3   0.955868 0.217455 0.457637 -0.413093
O10   O     O_2   0.129052 0.258518 0.468603 -0.166363
O11   O     O_2   0.178898 0.338385 0.650636 -0.249817
O12   O     O_R   0.619690 0.575320 0.499980 -0.447598
O13   O     O_3   0.044633 0.243776 0.673865 -0.424287
O14   O     O_2   0.695303 0.066405 0.720150 -0.171630
O15   O     O_2   0.728488 0.112296 0.507958 -0.197683
O16   O     O_3   0.638456 0.218628 0.642881 -0.558166
O17   O     O_2   0.335234 0.147184 0.312584 -0.188010
O18   O     O_2   0.259183 0.051124 0.460146 -0.154553
O19   O     O_3   0.326716 0.197307 0.540191 -0.465250
O20   O     O_2   0.665663 0.791546 0.551043 -0.264525
O21   O     O_2   0.744184 0.931573 0.558601 -0.166609
O22   O     O_3   0.658706 0.883256 0.752859 -0.499679
O23   O     O_R   0.380310 0.424640 0.499960 -0.456366
O24   O     O_2   0.392068 0.809303 0.305056 -0.316796
O25   O     O_2   0.287810 0.864241 0.452778 -0.211169
O26   O     O_3   0.316548 0.958661 0.253402 -0.444037
O27   O     O_R   0.619690 0.424640 0.500040 -0.499208
O28   O     O_R   0.500000 0.575360 0.319640 -0.467343
O29   O     O_R   0.500000 0.575360 0.680360 -0.484194
O30   O     O_R   0.500000 0.424670 0.319580 -0.533017
O31   O     O_R   0.500000 0.424670 0.680420 -0.507908
O32   O     O_2   0.629773 0.711470 0.311301 -0.253265
S1    S     S_3+6 0.645043 0.671684 0.186193 0.021173
S2    S     S_3+6 0.343665 0.635157 0.822464 0.018745
S3    S     S_3+6 0.898100 0.302688 0.516054 0.098188
S4    S     S_3+6 0.102266 0.310920 0.580662 0.114692
S5    S     S_3+6 0.661488 0.110812 0.605996 0.093925
S6    S     S_3+6 0.335051 0.109898 0.441707 0.111853
S7    S     S_3+6 0.663684 0.887195 0.598058 0.080540
S8    S     S_3+6 0.356478 0.892634 0.365361 0.059414

loop_
_geom_bond_atom_site_label_1
_geom_bond_atom_site_label_2
_ccdc_geom_bond_type
Cu1   O12   S    
C12   O12   A    
C29   H4    S    
C30   H7    S    
Cu1   N2    S    
C27   H16   S    
O10   S4    D    
C28   H19   S    
O14   S5    D    
O9    S3    S    
Cu2   O27   S    
O6    S2    S    
Cu1   O28   S    
C19   C21   A    
C24   C26   A    
C3    C7    S    
C5    C6    A    
C11   C14   A    
C27   H17   S    
C2    S8    S    
C5    C36   A    
Cu2   O30   S    
C24   H1    S    
H11   O16   S    
C31   S4    S    
H14   O22   S    
C5    S5    S    
C16   C17   A    
C22   C25   A    
H13   O19   S    
O8    S3    D    
C8    N1    T    
C22   H12   S    
Cu2   N1    S    
C25   C32   S    
C26   C31   A    
C29   H5    S    
O22   S7    S    
H10   O13   S    
C30   H6    S    
C1    O1    A    
C9    O30   A    
Cu1   O1    S    
C1    C34   S    
C33   C34   T    
C1    O23   A    
O11   S4    D    
Cu1   O29   S    
C13   S2    S    
C32   C35   T    
C12   O27   A    
C4    C6    A    
C27   H18   S    
C6    C8    S    
Cu2   O23   S    
C10   O31   A    
O13   S4    S    
C36   S7    S    
C23   C31   A    
C2    C4    A    
C7    N2    T    
Cu1   Cu2   S    
O25   S8    D    
O17   S6    D    
C26   C33   S    
C10   C19   S    
C20   C27   S    
C17   C18   A    
C12   C35   S    
H9    O9    S    
C23   S3    S    
C21   C28   S    
H22   O3    S    
C4    S6    S    
O5    S2    D    
C22   C24   A    
C14   C29   S    
O24   S8    D    
C15   C30   S    
O4    S2    D    
C28   H21   S    
C11   S1    S    
C11   C17   A    
O21   S7    D    
C29   H3    S    
C30   H8    S    
O2    S1    D    
C9    O28   A    
C10   O29   A    
O26   S8    S    
O19   S6    S    
C28   H20   S    
C13   C15   A    
C2    C3    A    
C3    C36   A    
C16   C19   A    
Cu2   O31   S    
O20   S7    D    
O15   S5    D    
H15   O26   S    
C18   C20   A    
C23   C25   A    
O32   S1    D    
C9    C18   S    
O3    S1    S    
C20   C21   A    
H2    O6    S    
C13   C16   A    
O16   S5    S    
C14   C15   A    
O18   S6    D    
O7    S3    D    
