data_mof_unit_21355.cif
_audit_creation_date              2013-03-05T16:02:16-0500
_audit_creation_method            fapswitch 2.2
_symmetry_space_group_name_H-M    P1
_symmetry_Int_Tables_number       1
_space_group_crystal_system       triclinic
_cell_length_a                    21.871515
_cell_length_b                    6.925239
_cell_length_c                    14.415186
_cell_angle_alpha                 90.004139
_cell_angle_beta                  102.652007
_cell_angle_gamma                 90.003676
_cell_volume                      2130.38627161

loop_
_atom_site_label
_atom_site_type_symbol
_atom_site_description
_atom_site_fract_x
_atom_site_fract_y
_atom_site_fract_z
_atom_type_partial_charge
O1    O     O_R   0.835850 0.638310 0.002120 -0.600279
O2    O     O_R   0.164150 0.361690 0.997880 -0.600319
O3    O     O_R   0.664150 0.138310 0.997880 -0.600274
O4    O     O_R   0.335850 0.861690 0.002120 -0.600297
O5    O     O_R   0.717530 0.306070 0.861970 -0.588125
O6    O     O_R   0.282470 0.693930 0.138030 -0.588135
O7    O     O_R   0.782470 0.806070 0.138030 -0.588167
O8    O     O_R   0.217530 0.193930 0.861970 -0.588203
C1    C     C_R   0.700589 0.474534 0.824677 1.029327
C2    C     C_R   0.299402 0.525464 0.175330 1.029349
C3    C     C_R   0.799401 0.974555 0.175327 1.029305
C4    C     C_R   0.200586 0.025445 0.824680 1.029268
O9    O     O_R   0.838690 0.308440 0.993250 -0.576874
O10   O     O_R   0.161310 0.691560 0.006750 -0.576912
O11   O     O_R   0.661310 0.808440 0.006750 -0.576878
O12   O     O_R   0.338690 0.191560 0.993250 -0.576900
O13   O     O_R   0.786170 0.140510 0.130090 -0.578532
O14   O     O_R   0.213830 0.859490 0.869910 -0.578490
O15   O     O_R   0.713830 0.640510 0.869910 -0.578516
O16   O     O_R   0.286170 0.359490 0.130090 -0.578527
C5    C     C_R   0.863979 0.477307 0.989210 1.021876
C6    C     C_R   0.136031 0.522693 0.010823 1.021760
C7    C     C_R   0.636020 0.977299 0.010784 1.021822
C8    C     C_R   0.363967 0.022695 0.989163 1.021892
O17   O     O_3   0.732630 0.472520 0.044740 -0.256294
O18   O     O_3   0.267370 0.527480 0.955260 -0.256329
O19   O     O_3   0.767370 0.972520 0.955260 -0.256283
O20   O     O_3   0.232630 0.027480 0.044740 -0.256271
V1    V     V_3+5 0.753220 0.196740 0.991700 1.265783
V2    V     V_3+5 0.246780 0.803260 0.008300 1.265767
V3    V     V_3+5 0.746780 0.696740 0.008300 1.265769
V4    V     V_3+5 0.253220 0.303260 0.991700 1.265714
C9    C     C_R   0.551575 0.045980 0.837325 -0.263040
C10   C     C_R   0.448401 0.953917 0.162585 -0.263006
C11   C     C_R   0.948422 0.546384 0.162627 -0.263010
C12   C     C_R   0.051597 0.453737 0.837405 -0.262990
C13   C     C_R   0.514968 0.093049 0.749957 -0.280539
C14   C     C_R   0.484983 0.906498 0.249912 -0.280660
C15   C     C_R   0.985020 0.593761 0.249958 -0.280603
C16   C     C_R   0.015004 0.406389 0.750071 -0.280651
C17   C     C_R   0.451096 0.123377 0.738906 0.249871
C18   C     C_R   0.548842 0.875975 0.260943 0.249879
C19   C     C_R   0.048889 0.624137 0.260996 0.249945
C20   C     C_R   0.951138 0.375986 0.739033 0.249912
C21   C     C_R   0.423449 0.101581 0.818789 0.199165
C22   C     C_R   0.576512 0.898055 0.181100 0.199195
C23   C     C_R   0.076548 0.602029 0.181144 0.199142
C24   C     C_R   0.923474 0.398051 0.818883 0.199192
C25   C     C_R   0.460055 0.048877 0.910249 -0.063532
C26   C     C_R   0.539923 0.950994 0.089664 -0.063524
C27   C     C_R   0.039944 0.549088 0.089711 -0.063591
C28   C     C_R   0.960072 0.450962 0.910322 -0.063522
C29   C     C_R   0.526130 0.027192 0.919153 0.115745
C30   C     C_R   0.473851 0.972750 0.080767 0.115775
C31   C     C_R   0.973869 0.527399 0.080813 0.115787
C32   C     C_R   0.026147 0.472661 0.919221 0.115773
C33   C     C_R   0.433447 0.016137 0.992046 -0.245722
C34   C     C_R   0.566537 0.983847 0.007883 -0.245743
C35   C     C_R   0.066553 0.516133 0.007935 -0.245712
C36   C     C_R   0.933461 0.483888 0.992100 -0.245777
H1    H     H_    0.600607 0.022648 0.838543 0.151827
H2    H     H_    0.399379 0.977399 0.161389 0.151877
H3    H     H_    0.899393 0.523012 0.161428 0.151828
H4    H     H_    0.100624 0.477138 0.838605 0.151878
H5    H     H_    0.537250 0.106767 0.690152 0.199017
H6    H     H_    0.462686 0.892654 0.309697 0.199035
H7    H     H_    0.962728 0.607665 0.309746 0.198957
H8    H     H_    0.037296 0.392521 0.690281 0.198975
C37   C     C_R   0.172177 0.032974 0.720345 -0.168066
C38   C     C_R   0.827799 0.967016 0.279668 -0.168179
C39   C     C_R   0.327804 0.533035 0.279675 -0.168143
C40   C     C_R   0.672170 0.466948 0.720342 -0.168191
C41   C     C_R   0.172217 0.199793 0.571358 0.342526
C42   C     C_R   0.827739 0.800231 0.428664 0.342775
C43   C     C_R   0.327752 0.699687 0.428730 0.343338
C44   C     C_R   0.672222 0.300177 0.571329 0.342734
C45   C     C_R   0.200102 0.155701 0.664876 -0.094301
C46   C     C_R   0.799867 0.844296 0.335134 -0.094691
C47   C     C_R   0.299914 0.655876 0.335144 -0.094770
C48   C     C_R   0.700111 0.344313 0.664849 -0.094699
C49   C     C_R   0.111378 0.964658 0.681047 -0.227973
C50   C     C_R   0.888596 0.035333 0.318980 -0.227945
C51   C     C_R   0.388563 0.464495 0.319008 -0.227781
C52   C     C_R   0.611348 0.535083 0.681072 -0.228037
C53   C     C_R   0.079262 0.017290 0.586412 0.100533
C54   C     C_R   0.920705 0.982698 0.413618 0.100397
C55   C     C_R   0.420669 0.517006 0.413672 0.100414
C56   C     C_R   0.579229 0.482388 0.586441 0.100368
C57   C     C_R   0.113298 0.120017 0.528473 0.000312
C58   C     C_R   0.886665 0.879977 0.471556 0.000326
C59   C     C_R   0.386635 0.619689 0.471640 0.000137
C60   C     C_R   0.613276 0.379788 0.528471 0.000331
C61   C     C_R   0.014131 0.977021 0.548441 0.106140
C62   C     C_R   0.985836 0.022970 0.451588 0.106156
C63   C     C_R   0.485794 0.476680 0.451634 0.106128
C64   C     C_R   0.514089 0.522532 0.548499 0.105885
C65   C     C_R   0.024413 0.095998 0.393715 -0.165744
C66   C     C_R   0.975556 0.903983 0.606312 -0.165774
C67   C     C_R   0.475508 0.595369 0.606406 -0.165901
C68   C     C_R   0.524370 0.403744 0.393737 -0.165656
C69   C     C_R   0.087237 0.141557 0.429932 0.230185
C70   C     C_R   0.912732 0.858423 0.570099 0.230362
C71   C     C_R   0.412689 0.640992 0.570204 0.230057
C72   C     C_R   0.587199 0.358238 0.429929 0.230341
H9    H     H_    0.910247 0.122377 0.273112 0.121417
H10   H     H_    0.089729 0.877619 0.726921 0.121417
H11   H     H_    0.589686 0.622056 0.726957 0.121432
H12   H     H_    0.410196 0.377381 0.273141 0.121408
H13   H     H_    0.757526 0.768318 0.303904 0.227009
H14   H     H_    0.242438 0.231705 0.696102 0.226907
H15   H     H_    0.742474 0.268444 0.696051 0.227029
H16   H     H_    0.257610 0.732012 0.303909 0.226998
H17   H     H_    0.007156 0.112766 0.318234 0.115577
H18   H     H_    0.992819 0.887200 0.681792 0.115586
H19   H     H_    0.492768 0.611955 0.681899 0.115619
H20   H     H_    0.507106 0.387014 0.318253 0.115578
N1    N     N_R   0.584818 0.828851 0.354666 0.237931
O21   O     O_R   0.641166 0.759106 0.367631 -0.315916
O22   O     O_R   0.561580 0.860680 0.429039 -0.399294
N2    N     N_R   0.415084 0.170034 0.645137 0.237765
O23   O     O_R   0.358727 0.239727 0.632130 -0.315941
O24   O     O_R   0.438279 0.137708 0.570767 -0.399620
N3    N     N_R   0.915147 0.329011 0.645297 0.237895
O25   O     O_R   0.858802 0.259212 0.632319 -0.315979
O26   O     O_R   0.938369 0.361039 0.570927 -0.399368
N4    N     N_R   0.084886 0.671117 0.354733 0.237937
O27   O     O_R   0.141258 0.740740 0.367730 -0.316021
O28   O     O_R   0.061640 0.639231 0.429092 -0.399282
N5    N     N_R   0.358044 0.130212 0.805606 0.216558
O29   O     O_R   0.336294 0.303587 0.811615 -0.392718
O30   O     O_R   0.320434 0.986111 0.778001 -0.460457
N6    N     N_R   0.641924 0.869528 0.194308 0.216588
O31   O     O_R   0.679507 0.013676 0.221955 -0.460585
O32   O     O_R   0.663709 0.696199 0.188290 -0.392380
N7    N     N_R   0.141961 0.630543 0.194342 0.216573
O33   O     O_R   0.163754 0.803873 0.188338 -0.392429
O34   O     O_R   0.179537 0.486428 0.222047 -0.460479
N8    N     N_R   0.858059 0.369559 0.805674 0.216574
O35   O     O_R   0.820491 0.513733 0.778065 -0.460643
O36   O     O_R   0.836258 0.196240 0.811678 -0.392431
C73   C     C_3   0.126793 0.191032 0.359333 -0.647901
H21   H     H_    0.170594 0.104790 0.373993 0.294229
H22   H     H_    0.102182 0.159914 0.284891 0.210728
H23   H     H_    0.138770 0.345558 0.363235 0.274306
C74   C     C_3   0.873189 0.808902 0.640711 -0.647866
H24   H     H_    0.829403 0.895208 0.626108 0.294247
H25   H     H_    0.861190 0.654393 0.636770 0.274302
H26   H     H_    0.897821 0.839906 0.715156 0.210694
C75   C     C_3   0.373145 0.690314 0.640838 -0.647679
H27   H     H_    0.361084 0.844769 0.636906 0.274292
H28   H     H_    0.329401 0.603786 0.626259 0.294511
H29   H     H_    0.397803 0.659430 0.715281 0.210567
C76   C     C_3   0.626737 0.308807 0.359297 -0.647982
H30   H     H_    0.670519 0.395149 0.373908 0.294285
H31   H     H_    0.638745 0.154310 0.363209 0.274270
H32   H     H_    0.602098 0.339826 0.284861 0.210681
N9    N     N_R   0.197562 0.359902 0.529927 0.227315
O37   O     O_R   0.179600 0.532739 0.546856 -0.306725
O38   O     O_R   0.248610 0.338851 0.498848 -0.304904
N10   N     N_R   0.802342 0.640266 0.470131 0.227307
O39   O     O_R   0.751349 0.661617 0.501323 -0.304833
O40   O     O_R   0.820185 0.467320 0.453155 -0.306912
N11   N     N_R   0.302361 0.859589 0.470261 0.227612
O41   O     O_R   0.319596 0.032748 0.452295 -0.307279
O42   O     O_R   0.251673 0.837583 0.502228 -0.304835
N12   N     N_R   0.697631 0.140264 0.529840 0.227271
O43   O     O_R   0.748629 0.161680 0.498665 -0.304804
O44   O     O_R   0.679777 0.967292 0.546748 -0.306924

loop_
_geom_bond_atom_site_label_1
_geom_bond_atom_site_label_2
_geom_bond_distance
_ccdc_geom_bond_type
O17   V3    1.689407 S    
C7    C34   1.511768 S    
C51   C55   1.437902 A    
C4    C37   1.497158 S    
C56   C64   1.436996 A    
O1    C5    1.306343 A    
N9    O37   1.299437 A    
C55   C59   1.424937 A    
O19   V1    1.689373 S    
O13   V1    2.005258 S    
C37   C45   1.395962 A    
O12   C8    1.300391 A    
O3    C7    1.306338 A    
C63   C64   1.433500 A    
C68   H20   1.077024 S    
C1    C40   1.497199 S    
O1    V3    2.010688 S    
O15   V3    2.005183 S    
C39   C47   1.395989 A    
C74   H24   1.109261 S    
C3    C38   1.497195 S    
O4    V2    2.010641 S    
N3    O25   1.298565 A    
O7    C3    1.303935 A    
O20   V4    2.141453 S    
C61   C62   1.433559 A    
C47   H16   1.074447 S    
C43   N11   1.427829 S    
N11   O42   1.299375 A    
C14   C18   1.386889 A    
C75   H28   1.109254 S    
C70   C74   1.512392 S    
C22   N6    1.415196 S    
O4    C8    1.306351 A    
C66   H18   1.077027 S    
C38   C46   1.395984 A    
C64   C67   1.404219 A    
C41   N9    1.427732 S    
C10   H2    1.080848 S    
C52   H11   1.077967 S    
C25   C33   1.442565 A    
C51   H12   1.077959 S    
O17   V1    2.141406 S    
O2    V4    2.010690 S    
C18   C22   1.421094 A    
C50   H9    1.077952 S    
O3    V1    2.010642 S    
C58   C70   1.417907 A    
C12   C16   1.375328 A    
C54   C62   1.437004 A    
N3    O26   1.301918 A    
C53   C61   1.437005 A    
C1    O15   1.321863 A    
C68   C72   1.394935 A    
N11   O41   1.299967 A    
C2    O16   1.321875 A    
C8    C33   1.511747 S    
C55   C63   1.437008 A    
O2    C6    1.306352 A    
C44   C48   1.386577 A    
C44   N12   1.427759 S    
O14   V2    2.005257 S    
C72   C76   1.512397 S    
C76   H31   1.100205 S    
C28   C36   1.442563 A    
C16   C20   1.386879 A    
C39   C51   1.408115 A    
C43   C59   1.413970 A    
C23   N7    1.415200 S    
C2    C39   1.497260 S    
C12   H4    1.080845 S    
O11   C7    1.300375 A    
N9    O38   1.299110 A    
C31   C36   1.418469 A    
N12   O44   1.299411 A    
C69   C73   1.512393 S    
O10   V2    2.018635 S    
C19   N4    1.444108 S    
C74   H25   1.100207 S    
N2    O24   1.301925 A    
O5    V1    2.010126 S    
C9    C29   1.416185 A    
O7    V3    2.009987 S    
C11   C31   1.416150 A    
O8    V4    2.009986 S    
C56   C60   1.424859 A    
N7    O33   1.301357 A    
C5    C36   1.511779 S    
C67   C71   1.394950 A    
C54   C58   1.424885 A    
C73   H23   1.100205 S    
C6    C35   1.511691 S    
C53   C57   1.424842 A    
C63   C68   1.404269 A    
N6    O31   1.298984 A    
C15   C19   1.386931 A    
C62   C65   1.404280 A    
C66   C70   1.394922 A    
O19   V3    2.141452 S    
C9    C13   1.375443 A    
C13   H5    1.083432 S    
C73   H22   1.111139 S    
C26   C34   1.442570 A    
C11   C15   1.375377 A    
O5    C1    1.303940 A    
C12   C32   1.416170 A    
C60   C72   1.417903 A    
C21   C25   1.431829 A    
O8    C4    1.303950 A    
O9    C5    1.300369 A    
C26   C30   1.430470 A    
C17   C21   1.421093 A    
C76   H32   1.111136 S    
O11   V3    2.018728 S    
C40   C52   1.408174 A    
N8    O36   1.301361 A    
C44   C60   1.413874 A    
N6    O32   1.301363 A    
O6    V2    2.010127 S    
O18   V2    2.141405 S    
C73   H21   1.109290 S    
C16   H8    1.083432 S    
N12   O43   1.299089 A    
C75   H29   1.111180 S    
C27   C35   1.442526 A    
C65   H17   1.077027 S    
C74   H26   1.111149 S    
N2    O23   1.298565 A    
N5    O29   1.301353 A    
O16   V4    2.005184 S    
O9    V1    2.018637 S    
N7    O34   1.298982 A    
C14   H6    1.083434 S    
C49   H10   1.077955 S    
C3    O13   1.321859 A    
N4    O28   1.301916 A    
C57   C69   1.417852 A    
C10   C14   1.375328 A    
C15   H7    1.083430 S    
C52   C56   1.437908 A    
C59   C71   1.417927 A    
O6    C2    1.303950 A    
C23   C27   1.431848 A    
C29   C34   1.418482 A    
C18   N1    1.444069 S    
C10   C30   1.416167 A    
O18   V4    1.689406 S    
C24   N8    1.415194 S    
O12   V4    2.018730 S    
C22   C26   1.431834 A    
C20   N3    1.444041 S    
C32   C35   1.418410 A    
C42   N10   1.427765 S    
N10   O39   1.299092 A    
C42   C58   1.413887 A    
N1    O22   1.301919 A    
C41   C57   1.413822 A    
C40   C48   1.395988 A    
C50   C54   1.437907 A    
C75   H27   1.100185 S    
C67   H19   1.077032 S    
O10   C6    1.300343 A    
C43   C47   1.386650 A    
N4    O27   1.298627 A    
C25   C29   1.430488 A    
C21   N5    1.415171 S    
C48   H15   1.074405 S    
O20   V2    1.689373 S    
C46   H13   1.074422 S    
C27   C31   1.430492 A    
C17   N2    1.444151 S    
C13   C17   1.386915 A    
C45   H14   1.074413 S    
C38   C50   1.408145 A    
C65   C69   1.394912 A    
C37   C49   1.408171 A    
N8    O35   1.298986 A    
C71   C75   1.512334 S    
C28   C32   1.430478 A    
C24   C28   1.431819 A    
C9    H1    1.080848 S    
C42   C46   1.386570 A    
C4    O14   1.321839 A    
C41   C45   1.386525 A    
C11   H3    1.080846 S    
C76   H30   1.109243 S    
N1    O21   1.298565 A    
C19   C23   1.421050 A    
C61   C66   1.404246 A    
C49   C53   1.437912 A    
C20   C24   1.421071 A    
N10   O40   1.299423 A    
N5    O30   1.298975 A    
C30   C33   1.418412 A    
