data_mof_unit_63961.cif
_audit_creation_date              2013-03-05T15:55:18-0500
_audit_creation_method            fapswitch 2.2
_symmetry_space_group_name_H-M    P1
_symmetry_Int_Tables_number       1
_space_group_crystal_system       triclinic
_cell_length_a                    21.685174
_cell_length_b                    21.685095
_cell_length_c                    30.195377
_cell_angle_alpha                 90.000069
_cell_angle_beta                  89.999893
_cell_angle_gamma                 89.999691
_cell_volume                      14199.226817

loop_
_atom_site_label
_atom_site_type_symbol
_atom_site_description
_atom_site_fract_x
_atom_site_fract_y
_atom_site_fract_z
_atom_type_partial_charge
O1    O     O_R   0.447800 0.090100 0.499990 -0.576730
O2    O     O_R   0.090100 0.552200 0.499990 -0.576723
O3    O     O_R   0.552200 0.909900 0.499990 -0.576729
O4    O     O_R   0.909900 0.447800 0.499990 -0.576726
O5    O     O_R   0.447800 0.909900 0.500010 -0.576734
O6    O     O_R   0.090100 0.447800 0.500010 -0.576712
O7    O     O_R   0.552200 0.090100 0.500010 -0.576735
O8    O     O_R   0.909900 0.552200 0.500010 -0.576713
O9    O     O_R   0.947800 0.590100 0.999990 -0.576769
O10   O     O_R   0.590100 0.052200 0.999990 -0.576743
O11   O     O_R   0.052200 0.409900 0.999990 -0.576767
O12   O     O_R   0.409900 0.947800 0.999990 -0.576742
O13   O     O_R   0.947800 0.409900 0.000010 -0.576753
O14   O     O_R   0.590100 0.947800 0.000010 -0.576749
O15   O     O_R   0.052200 0.590100 0.000010 -0.576752
O16   O     O_R   0.409900 0.052200 0.000010 -0.576749
C1    C     C_R   0.500000 0.118853 0.500000 0.778784
C2    C     C_R   0.118854 0.500000 0.500000 0.778809
C3    C     C_R   0.500000 0.881147 0.500000 0.778784
C4    C     C_R   0.881146 0.500000 0.500000 0.778797
C5    C     C_R   1.000000 0.618853 0.999999 0.778797
C6    C     C_R   0.618853 1.000000 0.000000 0.778815
C7    C     C_R   0.000000 0.381147 0.999999 0.778791
C8    C     C_R   0.381146 0.000000 0.000000 0.778816
O17   O     O_R   0.447790 0.999890 0.564870 -0.575747
O18   O     O_R   0.999890 0.552210 0.564870 -0.575835
O19   O     O_R   0.552210 0.000110 0.564870 -0.575746
O20   O     O_R   0.000110 0.447790 0.564870 -0.575852
O21   O     O_R   0.447790 0.000110 0.435130 -0.575755
O22   O     O_R   0.999890 0.447790 0.435130 -0.575755
O23   O     O_R   0.552210 0.999890 0.435130 -0.575755
O24   O     O_R   0.000110 0.552210 0.435130 -0.575754
O25   O     O_R   0.947790 0.499890 0.064870 -0.575763
O26   O     O_R   0.499890 0.052210 0.064870 -0.575764
O27   O     O_R   0.052210 0.500110 0.064870 -0.575763
O28   O     O_R   0.500110 0.947790 0.064870 -0.575763
O29   O     O_R   0.947790 0.500110 0.935130 -0.575683
O30   O     O_R   0.499890 0.947790 0.935130 -0.575772
O31   O     O_R   0.052210 0.499890 0.935130 -0.575670
O32   O     O_R   0.500110 0.052210 0.935130 -0.575771
C9    C     C_R   0.499999 0.185750 0.500000 -0.018338
C10   C     C_R   0.185750 0.500000 0.500000 -0.018320
C11   C     C_R   0.500000 0.814250 0.500000 -0.018338
C12   C     C_R   0.814249 0.500000 0.499999 -0.018316
C13   C     C_R   0.999999 0.685750 0.999999 -0.018375
C14   C     C_R   0.685750 0.999999 0.000000 -0.018349
C15   C     C_R   0.000001 0.314250 0.999999 -0.018371
C16   C     C_R   0.314250 0.000000 0.000000 -0.018349
C17   C     C_R   0.500000 0.000000 0.585638 0.792300
C18   C     C_R   0.999999 0.500000 0.585642 0.792412
C19   C     C_R   0.500000 0.000000 0.414362 0.792302
C20   C     C_R   1.000000 0.500000 0.414362 0.792299
C21   C     C_R   1.000000 0.500000 0.085638 0.792334
C22   C     C_R   0.500000 0.000000 0.085638 0.792327
C23   C     C_R   0.000000 0.500000 0.914366 0.792219
C24   C     C_R   0.500000 1.000000 0.914362 0.792332
Cu1   Cu    Cu3+1 0.438190 0.000000 0.500000 1.028043
Cu2   Cu    Cu3+1 1.000000 0.561810 0.500000 1.028088
Cu3   Cu    Cu3+1 0.561810 0.000000 0.500000 1.028043
Cu4   Cu    Cu3+1 0.000000 0.438190 0.500000 1.028069
Cu5   Cu    Cu3+1 0.938190 0.500000 0.000000 1.027882
Cu6   Cu    Cu3+1 0.500000 0.061810 0.000000 1.027927
Cu7   Cu    Cu3+1 0.061810 0.500000 0.000000 1.027898
Cu8   Cu    Cu3+1 0.500000 0.938190 0.000000 1.027927
H1    H     H_    0.570249 0.193281 0.449361 0.155768
H2    H     H_    0.193283 0.429733 0.449374 0.155772
H3    H     H_    0.429751 0.806719 0.449362 0.155769
H4    H     H_    0.806717 0.570267 0.449374 0.155773
H5    H     H_    0.570249 0.806718 0.550638 0.155764
H6    H     H_    0.193282 0.570268 0.550625 0.155744
H7    H     H_    0.429751 0.193282 0.550638 0.155764
H8    H     H_    0.806717 0.429731 0.550624 0.155734
H9    H     H_    0.070230 0.693280 0.949348 0.155797
H10   H     H_    0.693282 0.929751 0.949361 0.155764
H11   H     H_    0.929769 0.306719 0.949349 0.155788
H12   H     H_    0.306718 0.070248 0.949361 0.155764
H13   H     H_    0.070232 0.306719 0.050649 0.155758
H14   H     H_    0.693281 0.070248 0.050639 0.155760
H15   H     H_    0.929768 0.693281 0.050650 0.155758
H16   H     H_    0.306718 0.929751 0.050639 0.155761
C25   C     C_R   0.538878 0.281961 0.471032 -0.143804
C26   C     C_R   0.281962 0.461112 0.471039 -0.143812
C27   C     C_R   0.461122 0.718039 0.471032 -0.143803
C28   C     C_R   0.718038 0.538888 0.471039 -0.143814
C29   C     C_R   0.538878 0.718039 0.528968 -0.143848
C30   C     C_R   0.281961 0.538888 0.528960 -0.143993
C31   C     C_R   0.461122 0.281961 0.528968 -0.143848
C32   C     C_R   0.718038 0.461111 0.528960 -0.144006
C33   C     C_R   0.038867 0.781960 0.971024 -0.143598
C34   C     C_R   0.781961 0.961122 0.971032 -0.143760
C35   C     C_R   0.961132 0.218039 0.971025 -0.143612
C36   C     C_R   0.218039 0.038878 0.971032 -0.143761
C37   C     C_R   0.038869 0.218039 0.028974 -0.143797
C38   C     C_R   0.781961 0.038877 0.028968 -0.143803
C39   C     C_R   0.961132 0.781961 0.028974 -0.143796
C40   C     C_R   0.218039 0.961122 0.028968 -0.143803
H17   H     H_    0.569257 0.306506 0.448653 0.157468
H18   H     H_    0.306507 0.430724 0.448665 0.157454
H19   H     H_    0.430742 0.693494 0.448653 0.157468
H20   H     H_    0.693493 0.569276 0.448665 0.157453
H21   H     H_    0.569258 0.693493 0.551347 0.157419
H22   H     H_    0.306506 0.569276 0.551334 0.157419
H23   H     H_    0.430742 0.306507 0.551347 0.157422
H24   H     H_    0.693494 0.430723 0.551333 0.157415
H25   H     H_    0.069239 0.806505 0.948639 0.157518
H26   H     H_    0.806507 0.930742 0.948652 0.157511
H27   H     H_    0.930760 0.193495 0.948640 0.157513
H28   H     H_    0.193494 0.069257 0.948652 0.157508
H29   H     H_    0.069241 0.193494 0.051359 0.157477
H30   H     H_    0.806505 0.069257 0.051348 0.157463
H31   H     H_    0.930759 0.806506 0.051359 0.157478
H32   H     H_    0.193494 0.930743 0.051347 0.157463
C41   C     C_R   0.500000 0.314070 0.500000 -0.023725
C42   C     C_R   0.314070 0.500000 0.500000 -0.023685
C43   C     C_R   0.500000 0.685930 0.500000 -0.023724
C44   C     C_R   0.685930 0.500000 0.499999 -0.023679
C45   C     C_R   1.000000 0.814069 1.000000 -0.023777
C46   C     C_R   0.814070 1.000000 0.000000 -0.023731
C47   C     C_R   0.000000 0.185931 1.000000 -0.023772
C48   C     C_R   0.185930 0.000000 1.000000 -0.023730
C49   C     C_R   0.380989 0.500000 0.500000 0.771116
C50   C     C_R   0.500000 0.619011 0.500000 0.771124
C51   C     C_R   0.619011 0.500000 0.500000 0.771115
C52   C     C_R   0.500000 0.380989 0.500000 0.771124
C53   C     C_R   0.880989 1.000000 0.000000 0.771059
C54   C     C_R   0.000000 0.119011 0.000000 0.771067
C55   C     C_R   0.119011 0.000000 1.000000 0.771058
C56   C     C_R   1.000000 0.880989 1.000000 0.771069
C57   C     C_R   0.537427 0.041365 0.843085 -0.134680
C58   C     C_R   0.041024 0.462199 0.843101 -0.134726
C59   C     C_R   0.462573 0.958634 0.843085 -0.134680
C60   C     C_R   0.958983 0.537812 0.843100 -0.134708
C61   C     C_R   0.537428 0.958634 0.156915 -0.134668
C62   C     C_R   0.041364 0.537428 0.156915 -0.134672
C63   C     C_R   0.462572 0.041366 0.156915 -0.134668
C64   C     C_R   0.958635 0.462572 0.156915 -0.134671
C65   C     C_R   0.037427 0.541366 0.343085 -0.134655
C66   C     C_R   0.541366 0.962572 0.343085 -0.134658
C67   C     C_R   0.962573 0.458634 0.343085 -0.134655
C68   C     C_R   0.458634 0.037428 0.343085 -0.134658
C69   C     C_R   0.037052 0.458298 0.656930 -0.134604
C70   C     C_R   0.541365 0.037428 0.656915 -0.134647
C71   C     C_R   0.962954 0.541708 0.656930 -0.134624
C72   C     C_R   0.458635 0.962572 0.656915 -0.134648
C73   C     C_R   0.500000 1.000000 0.866050 -0.097331
C74   C     C_R   0.000001 0.500003 0.866061 -0.096941
C75   C     C_R   0.500000 0.000000 0.133950 -0.097336
C76   C     C_R   1.000000 0.500000 0.133950 -0.097337
C77   C     C_R   0.000000 0.500000 0.366049 -0.097335
C78   C     C_R   0.500000 0.000000 0.366050 -0.097334
C79   C     C_R   0.000001 0.500001 0.633961 -0.097714
C80   C     C_R   0.500000 0.000000 0.633950 -0.097341
C81   C     C_R   0.460297 0.959482 0.796663 -0.024722
C82   C     C_R   0.959866 0.540093 0.796679 -0.024616
C83   C     C_R   0.539703 0.040518 0.796663 -0.024723
C84   C     C_R   0.040151 0.459926 0.796679 -0.024632
C85   C     C_R   0.460297 0.040518 0.203337 -0.024720
C86   C     C_R   0.959483 0.460296 0.203337 -0.024720
C87   C     C_R   0.539704 0.959482 0.203337 -0.024721
C88   C     C_R   0.040517 0.539704 0.203337 -0.024720
C89   C     C_R   0.960297 0.459481 0.296663 -0.024723
C90   C     C_R   0.459482 0.039704 0.296664 -0.024722
C91   C     C_R   0.039703 0.540518 0.296663 -0.024723
C92   C     C_R   0.540518 0.960296 0.296663 -0.024723
C93   C     C_R   0.960688 0.540896 0.703352 -0.024830
C94   C     C_R   0.459483 0.960296 0.703337 -0.024721
C95   C     C_R   0.039330 0.459120 0.703353 -0.024813
C96   C     C_R   0.540517 0.039704 0.703337 -0.024721
C97   C     C_R   0.500000 1.000000 0.773296 -0.013998
C98   C     C_R   0.000008 0.500008 0.773311 -0.014065
C99   C     C_R   0.500000 0.000000 0.226704 -0.014002
C100  C     C_R   1.000000 0.500000 0.226704 -0.014002
C101  C     C_R   1.000000 0.500000 0.273296 -0.014003
C102  C     C_R   0.500000 0.000000 0.273296 -0.014003
C103  C     C_R   0.000008 0.500007 0.726720 -0.013947
C104  C     C_R   0.500000 1.000000 0.726704 -0.014008
C105  C     C_R   0.420071 0.919893 0.773293 0.236865
C106  C     C_R   0.920678 0.580709 0.773309 0.236913
C107  C     C_R   0.579929 0.080107 0.773293 0.236868
C108  C     C_R   0.079357 0.419325 0.773310 0.236936
C109  C     C_R   0.420070 0.080107 0.226707 0.236870
C110  C     C_R   0.919895 0.420068 0.226706 0.236871
C111  C     C_R   0.579931 0.919893 0.226706 0.236871
C112  C     C_R   0.080105 0.579932 0.226706 0.236872
C113  C     C_R   0.920072 0.419892 0.273293 0.236870
C114  C     C_R   0.419893 0.079931 0.273294 0.236868
C115  C     C_R   0.079928 0.580108 0.273293 0.236869
C116  C     C_R   0.580107 0.920070 0.273293 0.236868
C117  C     C_R   0.920857 0.580879 0.726723 0.236846
C118  C     C_R   0.419894 0.920069 0.726706 0.236873
C119  C     C_R   0.079179 0.419152 0.726723 0.236809
C120  C     C_R   0.580106 0.079930 0.726707 0.236875
O33   O     O_R   0.409730 0.499930 0.462460 -0.575240
O34   O     O_R   0.499930 0.590270 0.462460 -0.575252
O35   O     O_R   0.590270 0.500070 0.462460 -0.575239
O36   O     O_R   0.500070 0.409730 0.462460 -0.575252
O37   O     O_R   0.409730 0.500070 0.537540 -0.575351
O38   O     O_R   0.499930 0.409730 0.537540 -0.575317
O39   O     O_R   0.590270 0.499930 0.537540 -0.575358
O40   O     O_R   0.500070 0.590270 0.537540 -0.575318
O41   O     O_R   0.909730 0.999930 0.962460 -0.575217
O42   O     O_R   0.999930 0.090270 0.962460 -0.575183
O43   O     O_R   0.090270 0.000070 0.962460 -0.575217
O44   O     O_R   0.000070 0.909730 0.962460 -0.575177
O45   O     O_R   0.909730 0.000070 0.037540 -0.575284
O46   O     O_R   0.999930 0.909730 0.037540 -0.575296
O47   O     O_R   0.090270 0.999930 0.037540 -0.575284
O48   O     O_R   0.000070 0.090270 0.037540 -0.575295
C121  C     C_R   0.539636 0.217842 0.471569 -0.139910
C122  C     C_R   0.217844 0.460353 0.471576 -0.139898
C123  C     C_R   0.460364 0.782157 0.471569 -0.139909
C124  C     C_R   0.782156 0.539647 0.471576 -0.139895
C125  C     C_R   0.539637 0.782157 0.528431 -0.139910
C126  C     C_R   0.217843 0.539647 0.528423 -0.140073
C127  C     C_R   0.460363 0.217843 0.528431 -0.139911
C128  C     C_R   0.782157 0.460352 0.528423 -0.140099
C129  C     C_R   0.039626 0.717842 0.971561 -0.139734
C130  C     C_R   0.717843 0.960363 0.971569 -0.139921
C131  C     C_R   0.960374 0.282158 0.971561 -0.139756
C132  C     C_R   0.282157 0.039637 0.971569 -0.139920
C133  C     C_R   0.039628 0.282158 0.028437 -0.139933
C134  C     C_R   0.717843 0.039636 0.028431 -0.139921
C135  C     C_R   0.960373 0.717842 0.028437 -0.139936
C136  C     C_R   0.282157 0.960364 0.028431 -0.139921
Cu9   Cu    Cu3+1 0.500000 0.500000 0.455560 1.030467
Cu10  Cu    Cu3+1 0.500000 0.500000 0.544440 1.030103
Cu11  Cu    Cu3+1 0.000000 0.000000 0.955560 1.030824
Cu12  Cu    Cu3+1 0.000000 0.000000 0.044440 1.030456
H33   H     H_    0.565470 0.073246 0.861930 0.192497
H34   H     H_    0.072646 0.433868 0.861951 0.192201
H35   H     H_    0.434529 0.926754 0.861930 0.192497
H36   H     H_    0.927359 0.566140 0.861950 0.192198
H37   H     H_    0.565471 0.926754 0.138070 0.192502
H38   H     H_    0.073244 0.565472 0.138070 0.192501
H39   H     H_    0.434529 0.073247 0.138070 0.192502
H40   H     H_    0.926755 0.434528 0.138070 0.192501
H41   H     H_    0.065469 0.573247 0.361930 0.192508
H42   H     H_    0.573246 0.934529 0.361930 0.192507
H43   H     H_    0.934531 0.426753 0.361930 0.192508
H44   H     H_    0.426754 0.065472 0.361930 0.192507
H45   H     H_    0.064810 0.426162 0.638091 0.192801
H46   H     H_    0.573245 0.065471 0.638070 0.192513
H47   H     H_    0.935191 0.573840 0.638091 0.192791
H48   H     H_    0.426754 0.934529 0.638070 0.192513
N1    N     N_R   0.379458 0.878899 0.796624 0.148063
O49   O     O_R   0.381877 0.819805 0.789381 -0.261626
O50   O     O_R   0.336082 0.901079 0.821779 -0.324205
N2    N     N_R   0.880107 0.621750 0.796638 0.148030
O51   O     O_R   0.820998 0.620000 0.789355 -0.261619
O52   O     O_R   0.902739 0.664859 0.821824 -0.324402
N3    N     N_R   0.620542 0.121100 0.796624 0.148062
O53   O     O_R   0.618123 0.180194 0.789381 -0.261633
O54   O     O_R   0.663918 0.098920 0.821779 -0.324210
N4    N     N_R   0.119957 0.378319 0.796641 0.148054
O55   O     O_R   0.179070 0.380150 0.789386 -0.261648
O56   O     O_R   0.097358 0.335170 0.821807 -0.324365
N5    N     N_R   0.379457 0.121101 0.203376 0.148062
O57   O     O_R   0.381875 0.180195 0.210618 -0.261547
O58   O     O_R   0.336081 0.098921 0.178221 -0.324275
N6    N     N_R   0.878902 0.379454 0.203376 0.148062
O59   O     O_R   0.819809 0.381872 0.210618 -0.261546
O60   O     O_R   0.901084 0.336079 0.178221 -0.324278
N7    N     N_R   0.620544 0.878899 0.203376 0.148062
O61   O     O_R   0.618125 0.819805 0.210618 -0.261547
O62   O     O_R   0.663919 0.901080 0.178220 -0.324275
N8    N     N_R   0.121097 0.620545 0.203376 0.148061
O63   O     O_R   0.180191 0.618128 0.210618 -0.261546
O64   O     O_R   0.098916 0.663921 0.178221 -0.324277
N9    N     N_R   0.879459 0.378897 0.296624 0.148066
O65   O     O_R   0.881879 0.319804 0.289381 -0.261522
O66   O     O_R   0.836083 0.401077 0.321779 -0.324265
N10   N     N_R   0.378900 0.120544 0.296625 0.148067
O67   O     O_R   0.319806 0.118126 0.289382 -0.261522
O68   O     O_R   0.401080 0.163920 0.321780 -0.324270
N11   N     N_R   0.120540 0.621102 0.296624 0.148067
O69   O     O_R   0.118121 0.680196 0.289382 -0.261521
O70   O     O_R   0.163917 0.598923 0.321779 -0.324265
N12   N     N_R   0.621101 0.879456 0.296624 0.148067
O71   O     O_R   0.680194 0.881875 0.289382 -0.261522
O72   O     O_R   0.598920 0.836080 0.321779 -0.324269
N13   N     N_R   0.880678 0.622296 0.703392 0.148077
O73   O     O_R   0.837017 0.600572 0.678284 -0.324097
O74   O     O_R   0.883794 0.681373 0.710580 -0.261477
N14   N     N_R   0.378901 0.879456 0.703376 0.148066
O75   O     O_R   0.319807 0.881875 0.710619 -0.261432
O76   O     O_R   0.401081 0.836080 0.678221 -0.324332
N15   N     N_R   0.119394 0.377767 0.703393 0.148060
O77   O     O_R   0.116389 0.318697 0.710627 -0.261407
O78   O     O_R   0.162998 0.399527 0.678252 -0.324168
N16   N     N_R   0.621099 0.120544 0.703376 0.148066
O79   O     O_R   0.680193 0.118125 0.710618 -0.261439
O80   O     O_R   0.598919 0.163920 0.678221 -0.324336

loop_
_geom_bond_atom_site_label_1
_geom_bond_atom_site_label_2
_geom_bond_distance
_ccdc_geom_bond_type
C25   C121  1.390607 A    
O27   C21   1.294255 A    
O43   Cu11  1.968576 S    
C116  N12   1.436022 S    
C54   O42   1.293579 A    
N14   O75   1.301042 A    
O18   C18   1.294301 A    
Cu1   Cu3   2.680723 S    
C58   C74   1.394294 A    
Cu2   Cu4   2.680714 S    
C68   H44   1.082380 S    
C82   C98   1.418169 A    
N7    O62   1.301163 A    
O23   Cu3   1.969811 S    
Cu5   Cu7   2.680723 S    
C55   O47   1.293578 A    
O24   C20   1.294252 A    
N4    O56   1.301197 A    
C4    C12   1.450669 S    
C20   C77   1.458811 S    
N15   O78   1.301192 A    
H3    C123  1.083510 S    
C11   C123  1.400038 A    
C57   C73   1.394350 A    
C71   C79   1.394424 A    
N1    O49   1.301042 A    
C26   H18   1.083495 S    
C56   O46   1.293579 A    
C50   O34   1.293578 A    
O7    Cu3   1.964908 S    
N2    O52   1.301208 A    
O30   Cu8   1.969810 S    
C28   H20   1.083493 S    
C35   H27   1.083490 S    
N3    O53   1.301044 A    
C106  C117  1.406707 A    
C110  C113  1.406722 A    
C83   C97   1.418147 A    
Cu11  Cu12  2.683768 S    
H11   C131  1.083511 S    
O14   Cu8   1.964918 S    
C28   C124  1.390608 A    
C88   C100  1.418148 A    
C31   H23   1.083493 S    
O26   C22   1.294251 A    
N9    O66   1.301165 A    
C95   C119  1.412768 A    
O41   Cu11  1.968578 S    
C12   C128  1.400043 A    
C92   C116  1.412768 A    
C96   C120  1.412768 A    
C110  N6    1.436024 S    
C14   C134  1.400039 A    
O33   Cu9   1.968578 S    
C111  C116  1.406719 A    
C85   C99   1.418149 A    
C84   C108  1.412753 A    
C86   C100  1.418148 A    
C41   C52   1.451149 S    
C72   H48   1.082377 S    
C84   C98   1.418151 A    
C97   C104  1.406845 A    
C65   H41   1.082377 S    
C45   C56   1.451156 S    
C31   C41   1.400237 A    
C70   C96   1.402713 A    
O4    C4    1.292330 A    
C47   C54   1.451156 S    
O47   Cu12  1.968576 S    
C109  N5    1.436024 S    
O25   Cu5   1.969808 S    
O27   Cu7   1.969807 S    
C94   C118  1.412767 A    
O28   Cu8   1.969807 S    
O38   Cu10  1.968571 S    
C62   C88   1.402710 A    
C63   C85   1.402710 A    
C44   C51   1.451150 S    
C119  N15   1.436004 S    
O9    C5    1.292330 A    
C48   C55   1.451154 S    
C39   C45   1.400237 A    
O9    Cu5   1.964911 S    
O34   Cu9   1.968569 S    
C51   O39   1.293576 A    
O11   C7    1.292331 A    
O11   Cu7   1.964913 S    
C2    C10   1.450669 S    
O12   Cu8   1.964918 S    
C68   C90   1.402710 A    
O13   C7    1.292331 A    
O45   Cu12  1.968578 S    
N5    O57   1.301042 A    
C53   O45   1.293578 A    
C24   C73   1.458808 S    
C18   C79   1.459010 S    
C36   H28   1.083494 S    
C19   C78   1.458808 S    
C118  N14   1.436020 S    
O7    C1    1.292332 A    
C60   C82   1.402711 A    
C61   C75   1.394352 A    
H2    C122  1.083508 S    
C64   C86   1.402710 A    
O37   Cu10  1.968578 S    
C15   C133  1.400037 A    
C28   C44   1.400235 A    
O4    Cu4   1.964918 S    
O17   Cu1   1.969808 S    
C32   H24   1.083492 S    
C5    C13   1.450653 S    
O20   Cu4   1.969807 S    
C81   C105  1.412768 A    
C7    C15   1.450650 S    
O35   Cu9   1.968576 S    
C8    C16   1.450662 S    
C27   C43   1.400237 A    
C65   C91   1.402712 A    
N10   O67   1.301043 A    
C16   C136  1.400039 A    
C70   H46   1.082377 S    
C21   C76   1.458808 S    
C39   C135  1.390606 A    
C30   C126  1.390606 A    
O1    Cu1   1.964911 S    
C52   O36   1.293576 A    
C62   H38   1.082376 S    
O40   Cu10  1.968569 S    
O44   Cu11  1.968571 S    
O3    C3    1.292332 A    
C64   C76   1.394348 A    
N8    O64   1.301166 A    
H14   C134  1.083511 S    
C33   C45   1.400244 A    
C63   C75   1.394352 A    
C35   C47   1.400243 A    
C25   C41   1.400239 A    
H4    C124  1.083506 S    
C95   C103  1.418118 A    
O21   C19   1.294255 A    
C59   H35   1.082377 S    
C96   C104  1.418145 A    
O22   C20   1.294251 A    
O36   Cu9   1.968571 S    
C105  C118  1.406722 A    
O23   C19   1.294255 A    
N6    O59   1.301041 A    
C108  C119  1.406725 A    
C58   C84   1.402705 A    
C109  C114  1.406716 A    
H15   C135  1.083507 S    
N13   O74   1.301108 A    
O12   C8    1.292331 A    
O1    C1    1.292332 A    
C112  C115  1.406722 A    
C50   O40   1.293576 A    
O14   C6    1.292331 A    
N14   O76   1.301166 A    
C36   C48   1.400237 A    
C72   C80   1.394348 A    
O48   Cu12  1.968569 S    
C38   C46   1.400239 A    
H7    C127  1.083508 S    
C64   H40   1.082378 S    
C59   C73   1.394350 A    
C71   H47   1.082390 S    
O39   Cu10  1.968576 S    
C34   C130  1.390606 A    
O28   C22   1.294252 A    
O29   C23   1.294200 A    
C91   C101  1.418146 A    
O30   C24   1.294251 A    
N10   O68   1.301163 A    
C33   H25   1.083493 S    
C38   C134  1.390608 A    
N12   O71   1.301042 A    
C37   C47   1.400238 A    
O19   C17   1.294255 A    
C37   H29   1.083494 S    
C26   C122  1.390608 A    
C115  N11   1.436021 S    
C14   C130  1.400042 A    
N11   O69   1.301042 A    
O24   Cu2   1.969810 S    
N7    O61   1.301042 A    
O10   C6    1.292331 A    
C53   O41   1.293578 A    
C87   C99   1.418149 A    
C34   C46   1.400237 A    
C58   H34   1.082405 S    
C52   O38   1.293578 A    
O26   Cu6   1.969807 S    
C112  N8    1.436021 S    
N16   O79   1.301041 A    
C56   O44   1.293577 A    
C70   C80   1.394348 A    
C71   C93   1.402710 A    
C89   C113  1.412767 A    
O8    Cu2   1.964920 S    
C42   C49   1.451148 S    
C105  N1    1.436021 S    
C54   O48   1.293577 A    
O32   C24   1.294252 A    
C117  N13   1.435978 S    
C93   C117  1.412738 A    
C92   C102  1.418147 A    
C46   C53   1.451154 S    
C83   C107  1.412767 A    
C66   C92   1.402713 A    
Cu6   Cu8   2.680714 S    
C10   C122  1.400043 A    
C113  N9    1.436019 S    
O31   C23   1.294196 A    
C27   H19   1.083494 S    
N9    O65   1.301043 A    
C51   O35   1.293576 A    
O10   Cu6   1.964915 S    
C85   C109  1.412769 A    
C49   O33   1.293575 A    
C3    C11   1.450657 S    
C98   C103  1.406845 A    
C99   C102  1.406845 A    
C69   C95   1.402722 A    
C13   C135  1.400038 A    
C67   C89   1.402713 A    
H5    C125  1.083510 S    
C34   H26   1.083496 S    
C57   C83   1.402710 A    
C108  N4    1.436026 S    
C23   C74   1.458585 S    
C67   C77   1.394349 A    
C69   H45   1.082374 S    
C72   C94   1.402713 A    
C61   C87   1.402710 A    
H6    C126  1.083510 S    
N4    O55   1.301066 A    
H16   C136  1.083510 S    
C89   C101  1.418145 A    
N15   O77   1.301064 A    
C29   C43   1.400238 A    
C61   H37   1.082381 S    
O18   Cu2   1.969807 S    
C6    C14   1.450662 S    
O21   Cu1   1.969810 S    
C82   C106  1.412759 A    
C63   H39   1.082383 S    
C62   C76   1.394349 A    
N2    O51   1.301088 A    
C16   C132  1.400043 A    
C17   C80   1.458808 S    
O2    Cu2   1.964915 S    
O5    C3    1.292332 A    
O5    Cu1   1.964911 S    
C60   C74   1.394299 A    
H12   C132  1.083507 S    
C9    C127  1.400040 A    
C38   H30   1.083493 S    
O17   C17   1.294255 A    
C114  N10   1.436025 S    
C120  N16   1.436022 S    
C81   C97   1.418146 A    
C31   C127  1.390606 A    
C39   H31   1.083494 S    
C55   O43   1.293578 A    
O2    C2    1.292332 A    
C13   C129  1.400037 A    
C12   C124  1.400044 A    
C66   C78   1.394351 A    
C40   H32   1.083491 S    
O8    C4    1.292334 A    
N11   O70   1.301164 A    
H10   C130  1.083507 S    
N3    O54   1.301163 A    
C57   H33   1.082377 S    
O32   Cu6   1.969810 S    
C91   C115  1.412765 A    
C36   C132  1.390609 A    
O20   C18   1.294302 A    
C107  C120  1.406719 A    
C40   C136  1.390608 A    
O22   Cu4   1.969810 S    
H1    C121  1.083512 S    
C30   H22   1.083492 S    
C9    C121  1.400038 A    
O16   C8    1.292331 A    
C43   C50   1.451149 S    
C65   C77   1.394349 A    
O16   Cu6   1.964920 S    
C60   H36   1.082408 S    
O25   C21   1.294255 A    
O6    C2    1.292332 A    
C67   H43   1.082376 S    
O6    Cu4   1.964918 S    
C59   C81   1.402710 A    
C26   C42   1.400235 A    
N6    O60   1.301164 A    
C90   C114  1.412770 A    
N13   O73   1.301210 A    
C15   C131  1.400036 A    
N5    O58   1.301165 A    
C32   C44   1.400237 A    
C10   C126  1.400043 A    
C29   C125  1.390606 A    
Cu9   Cu10  2.683768 S    
H9    C129  1.083511 S    
C86   C110  1.412766 A    
C49   O37   1.293579 A    
C106  N2    1.436047 S    
H13   C133  1.083509 S    
O46   Cu12  1.968571 S    
N12   O72   1.301163 A    
C11   C125  1.400040 A    
C68   C78   1.394350 A    
C29   H21   1.083495 S    
C100  C101  1.406845 A    
C69   C79   1.394424 A    
C32   C128  1.390606 A    
H8    C128  1.083511 S    
C40   C48   1.400240 A    
O29   Cu5   1.969810 S    
O42   Cu11  1.968569 S    
C90   C102  1.418148 A    
C93   C103  1.418115 A    
O31   Cu7   1.969811 S    
C94   C104  1.418145 A    
C30   C42   1.400238 A    
N1    O50   1.301165 A    
O19   Cu3   1.969807 S    
C25   H17   1.083492 S    
C111  N7    1.436022 S    
C66   H42   1.082380 S    
N16   O80   1.301163 A    
C35   C131  1.390607 A    
C1    C9    1.450657 S    
N8    O63   1.301043 A    
C33   C129  1.390605 A    
O15   C5    1.292330 A    
O13   Cu5   1.964911 S    
O15   Cu7   1.964908 S    
C37   C133  1.390606 A    
C87   C111  1.412768 A    
C107  N3    1.436023 S    
C88   C112  1.412766 A    
C27   C123  1.390605 A    
C22   C75   1.458808 S    
O3    Cu3   1.964913 S    
