data_mof_unit_40928.cif
_audit_creation_date              2012-12-10T18:55:57-0500
_audit_creation_method            fapswitch 2.2
_symmetry_space_group_name_H-M    P1
_symmetry_Int_Tables_number       1
_space_group_crystal_system       triclinic
_cell_length_a                    10.714551
_cell_length_b                    9.814293
_cell_length_c                    15.049675
_cell_angle_alpha                 89.808484
_cell_angle_beta                  90.134123
_cell_angle_gamma                 90.077558
_cell_volume                      1582.54514463

loop_
_atom_site_label
_atom_site_type_symbol
_atom_type_description
_atom_site_fract_x
_atom_site_fract_y
_atom_site_fract_z
_atom_type_partial_charge
C1    C     C_R   0.259790 0.499935 0.500043 0.857929
C2    C     C_R   0.936288 0.622123 0.515132 -0.201453
C3    C     C_R   0.935887 0.377588 0.486345 -0.208694
C4    C     C_R   0.064091 0.622079 0.515110 -0.207597
C5    C     C_R   0.526122 0.622634 0.090567 -0.254508
C6    C     C_R   0.597315 0.417468 0.902772 -0.253679
C7    C     C_R   0.428540 0.582957 0.906297 -0.253661
C8    C     C_R   0.508672 0.376720 0.090586 -0.251019
C9    C     C_R   0.518606 0.624918 0.182387 0.178321
C10   C     C_R   0.593897 0.417325 0.810736 0.167066
C11   C     C_R   0.421260 0.581712 0.814425 0.163987
C12   C     C_R   0.740200 0.500045 0.499862 0.856970
C13   C     C_R   0.504846 0.374681 0.182594 0.175352
C14   C     C_R   0.507769 0.500005 0.229898 -0.140063
C15   C     C_R   0.504917 0.499182 0.766852 -0.100645
C16   C     C_R   0.518833 0.499805 0.045355 0.082078
C17   C     C_R   0.515637 0.500683 0.949840 0.083116
C18   C     C_R   0.872594 0.499979 0.500381 -0.005918
C19   C     C_R   0.127387 0.499824 0.500582 -0.006383
C20   C     C_3   0.402370 0.822159 0.227528 -0.778092
C21   C     C_3   0.790451 0.411215 0.733331 -0.778038
C22   C     C_3   0.218602 0.586864 0.744327 -0.771781
C23   C     C_R   0.501398 0.500117 0.327071 0.889353
C24   C     C_3   0.613790 0.180378 0.242595 -0.745230
C25   C     C_R   0.500699 0.499757 0.671732 0.926088
C26   C     C_R   0.591480 0.071968 0.543314 -0.077494
C27   C     C_R   0.408079 0.928073 0.457242 -0.074376
C28   C     C_R   0.408425 0.072112 0.456821 -0.076048
C29   C     C_R   0.591580 0.927894 0.543198 -0.073944
C30   C     C_R   0.063675 0.377501 0.486490 -0.199527
H1    H     H_    0.664400 0.126640 0.578051 0.136045
H2    H     H_    0.887793 0.717168 0.526900 0.149724
H3    H     H_    0.887086 0.282496 0.474704 0.153437
H4    H     H_    0.112917 0.717133 0.526824 0.155871
H5    H     H_    0.591529 0.816814 0.202043 0.216952
H6    H     H_    0.369977 0.845290 0.158898 0.220917
H7    H     H_    0.411563 0.919558 0.264184 0.227497
H8    H     H_    0.331841 0.757672 0.261736 0.247025
H9    H     H_    0.704458 0.246858 0.793926 0.218297
H10   H     H_    0.847030 0.443686 0.791544 0.231896
H11   H     H_    0.763303 0.502484 0.694041 0.232811
H12   H     H_    0.334431 0.873436 0.423347 0.127307
H13   H     H_    0.848385 0.344556 0.690584 0.240063
H14   H     H_    0.307125 0.750780 0.803200 0.221286
H15   H     H_    0.168895 0.548404 0.804127 0.230274
H16   H     H_    0.243402 0.499657 0.701035 0.235575
H17   H     H_    0.154923 0.655036 0.706596 0.237256
H18   H     H_    0.431985 0.180932 0.196553 0.211126
H19   H     H_    0.658080 0.151177 0.178729 0.214872
H20   H     H_    0.598881 0.087061 0.283142 0.235281
H21   H     H_    0.677455 0.249262 0.279799 0.250593
H22   H     H_    0.335470 0.126859 0.422107 0.126651
H23   H     H_    0.664623 0.873116 0.577800 0.120725
H24   H     H_    0.534793 0.717708 0.054128 0.141959
H25   H     H_    0.665392 0.355345 0.937593 0.140881
H26   H     H_    0.363978 0.645014 0.943952 0.141275
H27   H     H_    0.502505 0.281741 0.054193 0.140807
H28   H     H_    0.112137 0.282380 0.474899 0.150441
N1    N     N_R   0.500000 0.857200 0.500000 -0.071622
N2    N     N_R   0.500000 0.142800 0.500000 -0.075217
N3    N     N_2   0.521845 0.753701 0.225566 -0.270558
N4    N     N_2   0.681165 0.337006 0.762591 -0.296871
N5    N     N_2   0.329076 0.661910 0.770328 -0.290645
N6    N     N_2   0.495071 0.246113 0.226231 -0.282326
O1    O     O_R   0.316770 0.614620 0.499990 -0.626255
O2    O     O_R   0.683230 0.385380 0.500010 -0.627815
O3    O     O_R   0.683230 0.614620 0.500010 -0.636004
O4    O     O_R   0.316770 0.385380 0.499990 -0.635624
O5    O     O_R   0.499990 0.614660 0.369060 -0.585984
O6    O     O_R   0.500010 0.385340 0.630940 -0.601948
O7    O     O_R   0.500010 0.614660 0.630940 -0.604325
O8    O     O_R   0.499990 0.385340 0.369060 -0.589648
Zn1   Zn    Zn3+2 0.500000 0.653120 0.500000 0.959853
Zn2   Zn    Zn3+2 0.500000 0.346880 0.500000 0.956040

loop_
_geom_bond_atom_site_label_1
_geom_bond_atom_site_label_2
_ccdc_geom_bond_type
C14   C23   S    
C6    C10   A    
C3    C30   A    
C2    C4    A    
C9    C14   A    
C5    C9    A    
C8    C13   A    
O3    Zn1   S    
C8    H27   S    
C2    C18   A    
C4    H4    S    
C20   H8    S    
N1    Zn1   S    
C1    O1    A    
C19   C30   A    
C6    H25   S    
C11   C15   A    
C1    O4    A    
C24   H21   S    
C22   H17   S    
O6    Zn2   S    
C26   H1    S    
C24   N6    S    
C27   N1    A    
C13   C14   A    
C7    C11   A    
C20   H7    S    
C28   H22   S    
C27   H12   S    
C21   N4    S    
C10   N4    S    
C13   N6    S    
C29   H23   S    
C7    H26   S    
H5    N3    S    
C21   H11   S    
C30   H28   S    
C2    H2    S    
O5    Zn1   S    
C22   H16   S    
O2    Zn2   S    
C11   N5    S    
C10   C15   A    
C28   N2    A    
H14   N5    S    
C24   H20   S    
H9    N4    S    
C12   O3    A    
C9    N3    S    
H18   N6    S    
C15   C25   S    
C3    H3    S    
O4    Zn2   S    
C20   H6    S    
C25   O7    A    
C5    H24   S    
C24   H19   S    
C22   H15   S    
O1    Zn1   S    
C3    C18   A    
O8    Zn2   S    
C8    C16   A    
C1    C19   S    
C12   C18   S    
C20   N3    S    
O7    Zn1   S    
C6    C17   A    
C23   O5    A    
C26   C29   A    
C5    C16   A    
C25   O6    A    
N2    Zn2   S    
C7    C17   A    
C22   N5    S    
C21   H13   S    
C4    C19   A    
C12   O2    A    
C23   O8    A    
C29   N1    A    
C16   C17   S    
C27   C28   A    
C26   N2    A    
C21   H10   S    
