data_mof_unit_13461.cif
_audit_creation_date              2013-03-05T16:48:41-0500
_audit_creation_method            fapswitch 2.2
_symmetry_space_group_name_H-M    P1
_symmetry_Int_Tables_number       1
_space_group_crystal_system       triclinic
_cell_length_a                    27.755663
_cell_length_b                    8.94716
_cell_length_c                    8.097217
_cell_angle_alpha                 89.998575
_cell_angle_beta                  90.011981
_cell_angle_gamma                 90.028424
_cell_volume                      2010.81689138

loop_
_atom_site_label
_atom_site_type_symbol
_atom_site_description
_atom_site_fract_x
_atom_site_fract_y
_atom_site_fract_z
_atom_type_partial_charge
O1    O     O_R   0.500000 0.285350 0.636850 -0.615246
O2    O     O_R   0.500000 0.714650 0.363150 -0.615242
O3    O     O_R   0.500000 0.714650 0.636850 -0.615247
O4    O     O_R   0.500000 0.285350 0.363150 -0.615244
C1    C     C_R   0.499998 0.217936 0.500001 0.941866
C2    C     C_R   0.500002 0.782064 0.499999 0.941865
O5    O     O_R   0.428760 0.500000 0.636860 -0.624532
O6    O     O_R   0.571240 0.500000 0.363140 -0.624579
O7    O     O_R   0.571240 0.500000 0.636860 -0.624559
O8    O     O_R   0.428760 0.500000 0.363140 -0.624591
C3    C     C_R   0.405747 0.499941 0.499977 0.925014
C4    C     C_R   0.594251 0.500055 0.500014 0.925043
Zn1   Zn    Zn3+2 0.500000 0.500000 0.682780 0.997056
Zn2   Zn    Zn3+2 0.500000 0.500000 0.317220 0.997044
C5    C     C_R   0.177148 0.367990 0.527002 0.629704
C6    C     C_R   0.822865 0.631661 0.527493 0.629829
C7    C     C_R   0.177275 0.630353 0.471626 0.628972
C8    C     C_R   0.822707 0.369288 0.472182 0.629157
O9    O     O_2   0.202543 0.240792 0.547973 -0.449397
O10   O     O_2   0.797484 0.758876 0.548473 -0.449249
O11   O     O_2   0.202782 0.757461 0.450994 -0.449963
O12   O     O_2   0.797185 0.242195 0.451637 -0.449898
N1    N     N_R   0.201032 0.499116 0.499421 -0.335592
N2    N     N_R   0.798966 0.500552 0.499936 -0.335657
C9    C     C_R   0.277511 0.526003 0.351699 0.443480
C10   C     C_R   0.722494 0.473755 0.352044 0.443425
C11   C     C_R   0.277473 0.472321 0.647534 0.443345
C12   C     C_R   0.722518 0.527497 0.647861 0.443439
C13   C     C_R   0.327918 0.525637 0.352739 -0.329932
C14   C     C_R   0.672087 0.474224 0.352956 -0.329956
C15   C     C_R   0.327885 0.473316 0.646833 -0.330191
C16   C     C_R   0.672107 0.526605 0.647032 -0.330199
C17   C     C_R   0.252552 0.499038 0.499538 0.214371
C18   C     C_R   0.747446 0.500695 0.499941 0.214289
C19   C     C_R   0.101354 0.499383 0.499009 -0.198572
C20   C     C_R   0.898644 0.500219 0.499390 -0.198704
C21   C     C_R   0.126608 0.365395 0.531034 -0.150912
C22   C     C_R   0.873405 0.634224 0.531460 -0.150777
C23   C     C_R   0.126750 0.633186 0.467072 -0.151829
C24   C     C_R   0.873230 0.366424 0.467551 -0.151754
C25   C     C_R   0.100643 0.233850 0.567620 0.589856
C26   C     C_R   0.899387 0.765755 0.567993 0.589962
C27   C     C_R   0.100936 0.764804 0.429965 0.590179
C28   C     C_R   0.899026 0.234795 0.430382 0.590247
C29   C     C_R   0.353117 0.499669 0.499872 -0.114104
C30   C     C_R   0.646880 0.500271 0.500017 -0.114081
H1    H     H_    0.347295 0.452943 0.760731 0.170862
H2    H     H_    0.652694 0.547043 0.760879 0.170868
H3    H     H_    0.347354 0.546242 0.238952 0.170891
H4    H     H_    0.652661 0.453629 0.239130 0.170886
C31   C     C_R   0.974712 0.363294 0.487686 0.017256
C32   C     C_R   0.025280 0.636294 0.487581 0.017201
C33   C     C_R   0.974879 0.636525 0.510148 0.018002
C34   C     C_R   0.025124 0.363064 0.510042 0.017910
C35   C     C_R   0.949470 0.500014 0.499097 0.077265
C36   C     C_R   0.050527 0.499577 0.498889 0.077237
C37   C     C_R   0.948982 0.232227 0.449921 -0.337268
C38   C     C_R   0.050990 0.767361 0.449709 -0.337039
C39   C     C_R   0.949334 0.767873 0.547793 -0.337813
C40   C     C_R   0.050689 0.231720 0.547586 -0.337559
H5    H     H_    0.967257 0.127886 0.425807 0.153663
H6    H     H_    0.032703 0.871709 0.425673 0.153690
H7    H     H_    0.967760 0.872157 0.571147 0.152892
H8    H     H_    0.032275 0.127430 0.571030 0.152949
C41   C     C_1   0.499999 0.065153 0.500001 -0.178455
C42   C     C_1   0.500001 0.934847 0.499999 -0.178455
N3    N     N_1   0.500000 0.500000 0.073640 -0.034851
N4    N     N_1   0.500000 0.500000 0.926360 -0.034848
O13   O     O_3   0.251630 0.446240 0.790340 -0.733437
H9    H     H_    0.274385 0.420420 0.880259 0.341059
O14   O     O_3   0.748354 0.553562 0.790723 -0.733301
H10   H     H_    0.725596 0.579480 0.880579 0.341019
O15   O     O_3   0.251709 0.551856 0.208738 -0.733788
H11   H     H_    0.274478 0.578033 0.118987 0.340894
O16   O     O_3   0.748306 0.447840 0.209150 -0.733701
H12   H     H_    0.725537 0.421748 0.119327 0.340937
O17   O     O_3   0.124078 0.104686 0.615674 -0.502217
C43   C     C_3   0.117316 0.083832 0.786718 -0.224112
H13   H     H_    0.078970 0.059567 0.816310 0.114157
H14   H     H_    0.130245 0.182171 0.858568 0.159353
H15   H     H_    0.138836 0.985685 0.826225 0.201283
O18   O     O_3   0.875962 0.894912 0.616111 -0.502137
C44   C     C_3   0.882933 0.916105 0.787018 -0.224377
H16   H     H_    0.921279 0.941045 0.815950 0.114442
H17   H     H_    0.870274 0.817669 0.859263 0.158810
H18   H     H_    0.861307 0.013954 0.826689 0.201310
O19   O     O_3   0.124482 0.893562 0.381087 -0.502186
C45   C     C_3   0.118301 0.912167 0.209467 -0.223318
H19   H     H_    0.131529 0.813028 0.139691 0.160118
H20   H     H_    0.139903 0.009968 0.169312 0.201659
H21   H     H_    0.080038 0.935686 0.177951 0.113863
O20   O     O_3   0.875447 0.106087 0.381504 -0.502163
C46   C     C_3   0.881658 0.087358 0.209926 -0.223057
H22   H     H_    0.868835 0.186956 0.139999 0.159266
H23   H     H_    0.859718 0.990346 0.169526 0.202012
H24   H     H_    0.919853 0.062458 0.178800 0.114191

loop_
_geom_bond_atom_site_label_1
_geom_bond_atom_site_label_2
_geom_bond_distance
_ccdc_geom_bond_type
C38   H6    1.080536 S    
O19   C45   1.410027 S    
C46   H22   1.114256 S    
O15   H11   0.991178 S    
C26   O18   1.382318 S    
O3    C2    1.261621 A    
C33   C39   1.406297 A    
C13   H3    1.083512 S    
O17   C43   1.410061 S    
C11   C17   1.404086 A    
C5    O9    1.349656 S    
C7    N1    1.365612 A    
O1    C1    1.261634 A    
C19   C21   1.412966 A    
C22   C26   1.411233 A    
C25   O17   1.382273 S    
C43   H14   1.114011 S    
C7    C23   1.403048 A    
O7    Zn1   2.012043 S    
C5    C21   1.403333 A    
C20   C24   1.412848 A    
C8    C24   1.403047 A    
C27   C38   1.395708 A    
C10   C18   1.404054 A    
N1    C17   1.429972 S    
Zn2   N3    1.972320 S    
C31   C37   1.406333 A    
C24   C28   1.411082 A    
C9    O15   1.380653 S    
O3    Zn1   1.956176 S    
C6    O10   1.349630 S    
C5    N1    1.365656 A    
C14   H4    1.083455 S    
C12   C18   1.404050 A    
C6    N2    1.365670 A    
C15   H1    1.083472 S    
C21   C25   1.411235 A    
C16   H2    1.083452 S    
O2    C2    1.261634 A    
O5    C3    1.279138 A    
C33   C35   1.412903 A    
C9    C13   1.399106 A    
C34   C36   1.412900 A    
C11   C15   1.399263 A    
N3    N4    1.192557 T    
C12   C16   1.399235 A    
C1    C41   1.366973 S    
O8    Zn2   2.012046 S    
C43   H13   1.112304 S    
C34   C40   1.406286 A    
N2    C18   1.429948 S    
C13   C29   1.400822 A    
C19   C23   1.412853 A    
O16   H12   0.991219 S    
C44   H16   1.112256 S    
C45   H21   1.112376 S    
C2    C42   1.366973 S    
C28   C37   1.395726 A    
O6    C4    1.279046 A    
C10   O16   1.380692 S    
C32   C38   1.406300 A    
C4    C30   1.460736 S    
C44   H17   1.114034 S    
C45   H20   1.109260 S    
C28   O20   1.382115 S    
C10   C14   1.399112 A    
C46   H24   1.112373 S    
C8    N2    1.365616 A    
C3    C29   1.460776 S    
C12   O14   1.380665 S    
O1    Zn1   1.956195 S    
C32   C33   1.410816 A    
O6    Zn2   2.011891 S    
C19   C36   1.410745 A    
C8    O12   1.349703 S    
C16   C30   1.400844 A    
C14   C30   1.400818 A    
C25   C40   1.396037 A    
O4    C1    1.261621 A    
C11   O13   1.380669 S    
C26   C39   1.396056 A    
C23   C27   1.411081 A    
C37   H5    1.080484 S    
C39   H7    1.080467 S    
C40   H8    1.080513 S    
C31   C34   1.410839 A    
C27   O19   1.382116 S    
C20   C22   1.412998 A    
O14   H10   0.991209 S    
C20   C35   1.410725 A    
C43   H15   1.109333 S    
O20   C46   1.410001 S    
C31   C35   1.413017 A    
C41   C42   1.165866 T    
O4    Zn2   1.956177 S    
O13   H9    0.991129 S    
O2    Zn2   1.956194 S    
O7    C4    1.279083 A    
C7    O11   1.349719 S    
O8    C3    1.279044 A    
O5    Zn1   2.011893 S    
C44   H18   1.109290 S    
C45   H19   1.114109 S    
C46   H23   1.109329 S    
O18   C44   1.410095 S    
C15   C29   1.400799 A    
C9    C17   1.404035 A    
C32   C36   1.412986 A    
C6    C22   1.403314 A    
Zn1   N4    1.972320 S    
