data_mof_unit_56856.cif
_audit_creation_date              2012-12-10T17:44:32-0500
_audit_creation_method            fapswitch 2.2
_symmetry_space_group_name_H-M    P1
_symmetry_Int_Tables_number       1
_space_group_crystal_system       triclinic
_cell_length_a                    9.923717
_cell_length_b                    10.626656
_cell_length_c                    15.527436
_cell_angle_alpha                 91.424511
_cell_angle_beta                  68.814139
_cell_angle_gamma                 89.8989
_cell_volume                      1526.21581038

loop_
_atom_site_label
_atom_site_type_symbol
_atom_type_description
_atom_site_fract_x
_atom_site_fract_y
_atom_site_fract_z
_atom_type_partial_charge
C1    C     C_R   0.501241 0.739277 0.497563 0.855514
C2    C     C_R   0.439460 0.427659 0.900255 0.097523
C3    C     C_R   0.303723 0.372167 0.947618 0.179220
C4    C     C_R   0.547302 0.430168 0.939781 0.051013
C5    C     C_R   0.506307 0.404094 0.033982 0.086333
C6    C     C_R   0.374477 0.341884 0.078557 -0.198990
C7    C     C_R   0.274992 0.324859 0.035297 -0.254279
C8    C     C_R   0.694201 0.456514 0.888956 -0.226443
C9    C     C_R   0.794078 0.465589 0.932960 -0.231489
C10   C     C_R   0.747057 0.461424 0.029162 0.135013
C11   C     C_R   0.599563 0.440032 0.080507 0.089654
C12   C     C_R   0.410395 0.497654 0.675313 0.850375
C13   C     C_R   0.843017 0.484532 0.075156 -0.220842
C14   C     C_R   0.791953 0.492129 0.171399 -0.217743
C15   C     C_R   0.545523 0.470485 0.175310 0.014901
C16   C     C_R   0.464670 0.863357 0.342631 -0.177418
C17   C     C_R   0.445529 0.926456 0.270116 -0.132170
C18   C     C_R   0.445882 0.057419 0.269987 -0.138735
C19   C     C_R   0.465368 0.125718 0.342379 -0.193057
C20   C     C_R   0.483206 0.063119 0.417069 0.096696
C21   C     C_R   0.482810 0.931186 0.417215 0.102100
C22   C     C_R   0.504924 0.871400 0.491255 -0.089715
C23   C     C_R   0.501663 0.260604 0.497290 0.876437
C24   C     C_R   0.532705 0.937981 0.561154 -0.216673
C25   C     C_R   0.533086 0.066531 0.561010 -0.197850
C26   C     C_R   0.505709 0.128101 0.490964 -0.103869
C27   C     C_R   0.793250 0.667457 0.619814 -0.168542
C28   C     C_R   0.829947 0.747556 0.679899 -0.205686
C29   C     C_R   0.968841 0.745384 0.680853 -0.185322
C30   C     C_R   0.072146 0.663620 0.621312 -0.157958
C31   C     C_R   0.039043 0.581620 0.559221 0.161930
C32   C     C_R   0.894708 0.582379 0.558875 0.177166
C33   C     C_R   0.959972 0.420098 0.444617 -0.115311
C34   C     C_R   0.589477 0.499159 0.324034 0.840293
C35   C     C_R   0.102699 0.419647 0.445054 -0.118940
C36   C     C_R   0.360720 0.471253 0.773330 -0.051733
C37   C     C_R   0.642892 0.488226 0.222487 -0.104650
C38   C     C_R   0.199497 0.364324 0.906114 -0.229991
C39   C     C_R   0.228634 0.412483 0.818525 -0.206965
C40   C     C_R   0.461485 0.483499 0.816344 -0.259987
H1    H     H_    0.173856 0.278474 0.071618 0.149147
H2    H     H_    0.956901 0.498427 0.036903 0.154489
H3    H     H_    0.551053 0.890158 0.616927 0.137154
H4    H     H_    0.467361 0.761705 0.338782 0.143541
H5    H     H_    0.431895 0.873512 0.213401 0.137767
H6    H     H_    0.432582 0.106231 0.213159 0.130440
H7    H     H_    0.468530 0.227160 0.338322 0.138386
H8    H     H_    0.551595 0.118417 0.616708 0.155755
H9    H     H_    0.932033 0.354718 0.399373 0.145527
H10   H     H_    0.684336 0.675026 0.623802 0.196887
H11   H     H_    0.749729 0.811473 0.726237 0.148572
H12   H     H_    0.996864 0.807393 0.728041 0.150911
H13   H     H_    0.176258 0.666483 0.626361 0.203215
H14   H     H_    0.181077 0.352609 0.401127 0.136427
H15   H     H_    0.868631 0.507060 0.205541 0.171942
H16   H     H_    0.906276 0.483414 0.892285 0.151242
H17   H     H_    0.097216 0.318602 0.940441 0.142925
H18   H     H_    0.150938 0.399659 0.784930 0.158914
H19   H     H_    0.558618 0.536003 0.782514 0.153078
H20   H     H_    0.348806 0.303694 0.146434 0.145853
H21   H     H_    0.735214 0.465018 0.814761 0.159558
N1    N     N_R   0.856800 0.501200 0.500850 -0.118734
N2    N     N_R   0.142390 0.501280 0.500880 -0.119308
O1    O     O_R   0.385310 0.683220 0.500000 -0.635019
O2    O     O_R   0.614640 0.683250 0.500010 -0.625411
O3    O     O_R   0.319840 0.499980 0.632240 -0.633006
O4    O     O_R   0.549160 0.500000 0.632250 -0.632814
O5    O     O_R   0.385360 0.316750 0.499990 -0.612845
O6    O     O_R   0.614690 0.316780 0.500000 -0.607673
O7    O     O_R   0.450840 0.500000 0.367750 -0.634872
O8    O     O_R   0.680160 0.500020 0.367760 -0.606420
Zn1   Zn    Zn3+2 0.346880 0.499980 0.499990 0.921433
Zn2   Zn    Zn3+2 0.653120 0.500020 0.500010 0.937775
N3    N     N_3   0.394666 0.503470 0.217518 -0.460348
H22   H     H_    0.382626 0.594252 0.247041 0.207250
H23   H     H_    0.340738 0.437032 0.265928 0.198453

loop_
_geom_bond_atom_site_label_1
_geom_bond_atom_site_label_2
_ccdc_geom_bond_type
C8    C9    A    
C16   C21   A    
C34   C37   S    
C23   O6    A    
C19   C20   A    
C4    C8    A    
N3    H23   S    
C28   C29   A    
C17   H5    S    
C5    C11   A    
C3    C7    A    
C30   C31   A    
C28   H11   S    
C19   H7    S    
C33   H9    S    
O2    Zn2   S    
C18   C19   A    
C23   C26   S    
C15   C37   A    
C11   C15   A    
O3    Zn1   S    
C3    C38   A    
C16   C17   A    
C1    O2    A    
N1    Zn2   S    
O6    Zn2   S    
O4    Zn2   S    
C12   C36   S    
C9    C10   A    
C34   O7    A    
C27   H10   S    
C8    H21   S    
O1    Zn1   S    
C14   H15   S    
C1    C22   S    
C40   H19   S    
C21   C22   A    
C35   H14   S    
C18   H6    S    
C13   H2    S    
C12   O4    A    
C38   C39   A    
C30   H13   S    
N3    H22   S    
C31   N2    A    
C36   C40   A    
C24   C25   A    
O8    Zn2   S    
C33   N1    A    
C25   C26   A    
C39   H18   S    
C12   O3    A    
C23   O5    A    
C2    C4    A    
C29   C30   A    
C6    H20   S    
C38   H17   S    
C31   C32   A    
O5    Zn1   S    
C17   C18   A    
C9    H16   S    
N2    Zn1   S    
C25   H8    S    
C22   C24   A    
C1    O1    A    
C16   H4    S    
C27   C32   A    
C36   C39   A    
C4    C5    A    
C10   C13   A    
C35   N2    A    
C6    C7    A    
C2    C3    A    
C32   N1    A    
C14   C37   A    
C5    C6    A    
C20   C26   A    
C33   C35   A    
C7    H1    S    
C10   C11   A    
C2    C40   A    
C15   N3    S    
C20   C21   A    
C27   C28   A    
C24   H3    S    
O7    Zn1   S    
C13   C14   A    
C34   O8    A    
C29   H12   S    
