data_mof_unit_9449.cif
_audit_creation_date              2012-12-11T14:54:44-0500
_audit_creation_method            fapswitch 2.2
_symmetry_space_group_name_H-M    P1
_symmetry_Int_Tables_number       1
_space_group_crystal_system       triclinic
_cell_length_a                    18.995304
_cell_length_b                    11.002557
_cell_length_c                    18.752602
_cell_angle_alpha                 89.885496
_cell_angle_beta                  90.381812
_cell_angle_gamma                 89.969877
_cell_volume                      3919.14054938

loop_
_atom_site_label
_atom_site_type_symbol
_atom_type_description
_atom_site_fract_x
_atom_site_fract_y
_atom_site_fract_z
_atom_type_partial_charge
C1    C     C_R   0.726641 0.368764 0.642669 0.552650
C2    C     C_R   0.268645 0.381245 0.352564 0.539799
C3    C     C_R   0.232018 0.883848 0.648417 0.541764
C4    C     C_R   0.773046 0.869808 0.356823 0.550826
C5    C     C_3   0.452052 0.365817 0.464373 -0.253823
C6    C     C_3   0.464186 0.365831 0.544421 -0.288506
C7    C     C_3   0.098636 0.766970 0.440411 -0.287097
C8    C     C_3   0.111674 0.771334 0.519892 -0.252346
C9    C     C_R   0.692344 0.888385 0.536899 -0.186746
C10   C     C_R   0.325964 0.950960 0.476353 -0.181960
C11   C     C_R   0.178697 0.429891 0.527542 -0.187512
C12   C     C_R   0.800128 0.357068 0.458039 -0.198089
C13   C     C_R   0.697896 0.879314 0.463565 -0.169050
C14   C     C_R   0.318621 0.922043 0.548829 -0.113906
C15   C     C_R   0.185770 0.401629 0.455448 -0.133403
C16   C     C_R   0.796606 0.348311 0.531839 -0.166354
C17   C     C_R   0.763894 0.888373 0.432401 -0.005138
C18   C     C_R   0.256418 0.950429 0.584088 -0.016971
C19   C     C_R   0.244648 0.441727 0.418123 -0.024688
C20   C     C_R   0.735782 0.386844 0.566751 -0.010601
C21   C     C_R   0.824745 0.897459 0.475142 -0.116221
C22   C     C_R   0.210414 0.034163 0.551810 -0.136366
C23   C     C_R   0.287731 0.531068 0.448786 -0.131571
C24   C     C_R   0.676511 0.422384 0.527045 -0.112493
C25   C     C_R   0.819558 0.912163 0.548595 0.266238
C26   C     C_R   0.213591 0.057108 0.478098 0.268584
C27   C     C_R   0.281919 0.560895 0.521369 0.266929
C28   C     C_R   0.679606 0.433291 0.453719 0.271494
C29   C     C_R   0.752259 0.912302 0.578997 0.047131
C30   C     C_R   0.270744 0.008540 0.438976 0.026720
C31   C     C_R   0.229530 0.502237 0.562113 0.017828
C32   C     C_R   0.743752 0.408111 0.419440 0.041440
C33   C     C_R   0.505808 0.054480 0.965118 -0.195453
C34   C     C_R   0.502849 0.055150 0.037888 -0.195385
C35   C     C_R   0.006692 0.554459 0.965398 -0.195451
C36   C     C_R   0.003696 0.555253 0.038171 -0.195353
C37   C     C_R   0.496784 0.164754 0.075014 0.009259
C38   C     C_R   0.506771 0.163656 0.926622 0.008384
C39   C     C_R   0.997137 0.664860 0.075183 0.009101
C40   C     C_R   0.007155 0.663566 0.926794 0.008633
C41   C     C_R   0.499287 0.276201 0.037911 0.261746
C42   C     C_R   0.501663 0.275557 0.962714 0.260296
C43   C     C_R   0.999411 0.776259 0.038008 0.261699
C44   C     C_R   0.001793 0.775496 0.962813 0.260404
C45   C     C_R   0.535349 0.153975 0.644514 0.549882
C46   C     C_R   0.468818 0.154715 0.352722 0.542081
C47   C     C_R   0.031733 0.655802 0.647040 0.545513
C48   C     C_R   0.964668 0.654146 0.355049 0.545387
C49   C     C_R   0.783367 0.034251 0.976512 -0.130187
C50   C     C_R   0.216007 0.033460 0.023434 -0.130140
C51   C     C_R   0.283364 0.534294 0.976526 -0.130487
C52   C     C_R   0.716009 0.533434 0.023443 -0.129712
C53   C     C_R   0.781525 0.025411 0.049946 -0.157234
C54   C     C_R   0.217817 0.024652 0.950013 -0.156292
C55   C     C_R   0.281538 0.525429 0.049959 -0.156953
C56   C     C_R   0.717833 0.524645 0.950021 -0.156539
C57   C     C_R   0.743696 0.931156 0.081406 0.027160
C58   C     C_R   0.256057 0.930873 0.918653 0.028140
C59   C     C_R   0.243695 0.431186 0.081418 0.027502
C60   C     C_R   0.756057 0.430851 0.918662 0.027574
C61   C     C_R   0.695190 0.864659 0.040338 -0.133647
C62   C     C_R   0.304816 0.864788 0.959820 -0.132659
C63   C     C_R   0.195172 0.364720 0.040353 -0.133386
C64   C     C_R   0.804798 0.364732 0.959834 -0.132990
C65   C     C_R   0.694427 0.877329 0.966560 -0.137801
C66   C     C_R   0.305612 0.877469 0.033593 -0.137074
C67   C     C_R   0.194399 0.377410 0.966577 -0.138262
C68   C     C_R   0.805586 0.377398 0.033607 -0.136722
C69   C     C_R   0.741808 0.957386 0.934080 0.042082
C70   C     C_R   0.257991 0.957125 0.065992 0.039937
C71   C     C_R   0.241787 0.457454 0.934096 0.040516
C72   C     C_R   0.757975 0.457073 0.066004 0.041458
C73   C     C_R   0.741999 0.966414 0.648681 0.579557
C74   C     C_R   0.273135 0.022844 0.360079 0.583012
C75   C     C_R   0.226944 0.521654 0.639964 0.584367
C76   C     C_R   0.757309 0.465222 0.350810 0.565396
C77   C     C_R   0.731695 0.381910 0.850660 0.540383
C78   C     C_R   0.268262 0.382057 0.149385 0.535880
C79   C     C_R   0.231694 0.881912 0.850659 0.535498
C80   C     C_R   0.768262 0.882052 0.149382 0.539779
C81   C     C_R   0.532144 0.156902 0.853466 0.573584
C82   C     C_R   0.468662 0.157178 0.147098 0.573200
C83   C     C_R   0.032237 0.656880 0.853529 0.575995
C84   C     C_R   0.968738 0.657197 0.147153 0.570866
C85   C     C_R   0.738882 0.980288 0.857751 0.557190
C86   C     C_R   0.261083 0.980285 0.142274 0.560261
C87   C     C_R   0.238866 0.480344 0.857765 0.560607
C88   C     C_R   0.761071 0.480245 0.142285 0.556316
C89   C     C_R   0.504946 0.160818 0.420670 0.030870
C90   C     C_R   0.518936 0.156517 0.569194 0.019402
C91   C     C_R   0.979096 0.659256 0.430001 0.026590
C92   C     C_R   0.002408 0.669510 0.576525 0.057579
C93   C     C_R   0.506072 0.268306 0.459895 0.074779
C94   C     C_R   0.515572 0.266428 0.533015 0.016496
C95   C     C_R   0.022895 0.747777 0.457495 -0.013616
C96   C     C_R   0.034940 0.751396 0.530050 0.023737
C97   C     C_R   0.525034 0.048611 0.529394 -0.162187
C98   C     C_R   0.521472 0.051496 0.455666 -0.168837
C99   C     C_R   0.951749 0.589528 0.549848 -0.145640
C100  C     C_R   0.939592 0.585730 0.476528 -0.150260
Cr1   Cr    Cr6+3 0.771950 0.169480 0.750100 1.031622
Cr2   Cr    Cr6+3 0.228050 0.169480 0.249900 1.041444
Cr3   Cr    Cr6+3 0.271950 0.669480 0.750100 1.040537
Cr4   Cr    Cr6+3 0.728050 0.669480 0.249900 1.029437
Cr5   Cr    Cr6+3 0.614930 0.323340 0.749170 1.025414
Cr6   Cr    Cr6+3 0.385070 0.323340 0.250830 1.023347
Cr7   Cr    Cr6+3 0.114930 0.823340 0.749170 1.022374
Cr8   Cr    Cr6+3 0.885070 0.823340 0.250830 1.026860
Cr9   Cr    Cr6+3 0.616590 0.010620 0.750610 1.005467
Cr10  Cr    Cr6+3 0.383410 0.010620 0.249390 1.000393
Cr11  Cr    Cr6+3 0.116590 0.510620 0.750610 1.002122
Cr12  Cr    Cr6+3 0.883410 0.510620 0.249390 1.006609
H1    H     H_    0.530586 0.960961 0.554983 0.125886
H2    H     H_    0.522935 0.965735 0.427414 0.125938
H3    H     H_    0.925008 0.526155 0.584661 0.123025
H4    H     H_    0.901201 0.522986 0.455690 0.137482
H5    H     H_    0.817980 0.100584 0.952993 0.129145
H6    H     H_    0.181152 0.099474 0.046832 0.129240
H7    H     H_    0.317981 0.600619 0.953004 0.128932
H8    H     H_    0.681159 0.599455 0.046839 0.129510
H9    H     H_    0.815808 0.083135 0.081407 0.105959
H10   H     H_    0.183222 0.082025 0.918492 0.106154
H11   H     H_    0.315844 0.583117 0.081419 0.105883
H12   H     H_    0.683259 0.582052 0.918498 0.106160
H13   H     H_    0.661300 0.797796 0.064701 0.118040
H14   H     H_    0.338991 0.798391 0.935530 0.117864
H15   H     H_    0.161281 0.297856 0.064714 0.117972
H16   H     H_    0.838968 0.298329 0.935544 0.118035
H17   H     H_    0.658339 0.822931 0.935067 0.112066
H18   H     H_    0.341981 0.823460 0.065152 0.113376
H19   H     H_    0.158301 0.323029 0.935086 0.112039
H20   H     H_    0.841943 0.323371 0.065170 0.113490
H21   H     H_    0.108102 0.854939 0.412974 0.167612
H22   H     H_    0.144474 0.695582 0.540433 0.137278
H23   H     H_    0.398453 0.333669 0.449635 0.155879
H24   H     H_    0.491029 0.448379 0.565037 0.131722
H25   H     H_    0.469556 0.449317 0.436473 0.152769
H26   H     H_    0.417324 0.336557 0.575304 0.152678
H27   H     H_    0.123174 0.686754 0.414419 0.147190
H28   H     H_    0.126168 0.861440 0.539557 0.154955
H29   H     H_    0.640628 0.884574 0.560204 0.134163
H30   H     H_    0.373407 0.924346 0.448854 0.130982
H31   H     H_    0.134747 0.392202 0.556624 0.143141
H32   H     H_    0.848838 0.332789 0.431952 0.130815
H33   H     H_    0.650965 0.866937 0.431281 0.115922
H34   H     H_    0.359973 0.874804 0.576992 0.156494
H35   H     H_    0.146931 0.345401 0.429498 0.185390
H36   H     H_    0.841417 0.313468 0.561469 0.126288
H37   H     H_    0.876425 0.891304 0.451456 0.140690
H38   H     H_    0.167520 0.070794 0.582639 0.129454
H39   H     H_    0.328000 0.572817 0.416499 0.128809
H40   H     H_    0.626781 0.440420 0.552674 0.142929
H41   H     H_    0.510190 0.966702 0.939420 0.153550
H42   H     H_    0.501858 0.967816 0.064690 0.152954
H43   H     H_    0.011419 0.466664 0.939785 0.153721
H44   H     H_    0.003013 0.467988 0.065067 0.152919
O1    O     O_R   0.787510 0.042610 0.670410 -0.473467
O2    O     O_R   0.212490 0.042610 0.329590 -0.454784
O3    O     O_R   0.287510 0.542610 0.670410 -0.456616
O4    O     O_R   0.712490 0.542610 0.329590 -0.468097
O5    O     O_R   0.556450 0.252890 0.823790 -0.460931
O6    O     O_R   0.443550 0.252890 0.176210 -0.457162
O7    O     O_R   0.056450 0.752890 0.823790 -0.457841
O8    O     O_R   0.943550 0.752890 0.176210 -0.460526
O9    O     O_R   0.545750 0.051070 0.830560 -0.535832
O10   O     O_R   0.454250 0.051070 0.169440 -0.535489
O11   O     O_R   0.045750 0.551070 0.830560 -0.536238
O12   O     O_R   0.954250 0.551070 0.169440 -0.534700
O13   O     O_R   0.681210 0.959150 0.825320 -0.508982
O14   O     O_R   0.318790 0.959150 0.174680 -0.503604
O15   O     O_R   0.181210 0.459150 0.825320 -0.504341
O16   O     O_R   0.818790 0.459150 0.174680 -0.507842
O17   O     O_3   0.667820 0.167810 0.749960 -0.261284
O18   O     O_3   0.332180 0.167810 0.250040 -0.281270
O19   O     O_3   0.167820 0.667810 0.749960 -0.282197
O20   O     O_3   0.832180 0.667810 0.250040 -0.261782
O21   O     O_R   0.765670 0.292090 0.675090 -0.505611
O22   O     O_R   0.234330 0.292090 0.324910 -0.487468
O23   O     O_R   0.265670 0.792090 0.675090 -0.477681
O24   O     O_R   0.734330 0.792090 0.324910 -0.508705
O25   O     O_R   0.670220 0.409020 0.668560 -0.530325
O26   O     O_R   0.329780 0.409020 0.331440 -0.539245
O27   O     O_R   0.170220 0.909020 0.668560 -0.541100
O28   O     O_R   0.829780 0.909020 0.331440 -0.526668
O29   O     O_R   0.556580 0.251590 0.674980 -0.498640
O30   O     O_R   0.443420 0.251590 0.325020 -0.495044
O31   O     O_R   0.056580 0.751590 0.674980 -0.490336
O32   O     O_R   0.943420 0.751590 0.325020 -0.501899
O33   O     O_R   0.545890 0.049670 0.670030 -0.531024
O34   O     O_R   0.454110 0.049670 0.329970 -0.541996
O35   O     O_R   0.045890 0.549670 0.670030 -0.537563
O36   O     O_R   0.954110 0.549670 0.329970 -0.525601
O37   O     O_R   0.681340 0.957860 0.676500 -0.521477
O38   O     O_R   0.318660 0.957860 0.323500 -0.515546
O39   O     O_R   0.181340 0.457860 0.676500 -0.516847
O40   O     O_R   0.818660 0.457860 0.323500 -0.522643
O41   O     O_R   0.787380 0.044010 0.830940 -0.512528
O42   O     O_R   0.212620 0.044010 0.169060 -0.513623
O43   O     O_R   0.287380 0.544010 0.830940 -0.513691
O44   O     O_R   0.712620 0.544010 0.169060 -0.512886
O45   O     O_R   0.765540 0.293390 0.823910 -0.507881
O46   O     O_R   0.234460 0.293390 0.176090 -0.510474
O47   O     O_R   0.265540 0.793390 0.823910 -0.511661
O48   O     O_R   0.734460 0.793390 0.176090 -0.507707
O49   O     O_R   0.670090 0.410410 0.829090 -0.544007
O50   O     O_R   0.329910 0.410410 0.170910 -0.543716
O51   O     O_R   0.170090 0.910410 0.829090 -0.545288
O52   O     O_R   0.829910 0.910410 0.170910 -0.542914
O53   O     O_3   0.878926 0.918789 0.592173 -0.545072
C101  C     C_3   0.923975 0.013236 0.569577 -0.100179
H45   H     H_    0.894589 0.098242 0.556718 0.109637
H46   H     H_    0.955999 0.984121 0.523397 0.097282
H47   H     H_    0.961144 0.034467 0.613687 0.142489
O54   O     O_3   0.164302 0.129672 0.442632 -0.552397
C102  C     C_3   0.095681 0.122693 0.471020 -0.148616
H48   H     H_    0.090679 0.182184 0.518458 0.099869
H49   H     H_    0.079795 0.028256 0.483544 0.105918
H50   H     H_    0.058026 0.157194 0.430300 0.137630
O55   O     O_3   0.323149 0.650001 0.554146 -0.542135
C103  C     C_3   0.390761 0.662267 0.524203 -0.141500
H51   H     H_    0.389020 0.720675 0.476081 0.105726
H52   H     H_    0.413734 0.574725 0.510568 0.110900
H53   H     H_    0.426655 0.704161 0.564012 0.121825
O56   O     O_3   0.619968 0.465477 0.414737 -0.545031
C104  C     C_3   0.596917 0.582696 0.434784 -0.110462
H54   H     H_    0.641382 0.647816 0.440026 0.135763
H55   H     H_    0.566575 0.579410 0.485109 0.075956
H56   H     H_    0.561186 0.618078 0.392568 0.130949
O57   O     O_3   0.503866 0.383966 0.075716 -0.568498
C105  C     C_3   0.441565 0.451672 0.066381 -0.059644
H57   H     H_    0.434314 0.508859 0.114353 0.149842
H58   H     H_    0.394684 0.392480 0.058881 0.150990
H59   H     H_    0.445004 0.514888 0.020595 0.125128
O58   O     O_3   0.495206 0.382399 0.924015 -0.570021
C106  C     C_3   0.556737 0.452516 0.932143 -0.061048
H60   H     H_    0.563313 0.508202 0.883327 0.149085
H61   H     H_    0.604316 0.395203 0.940347 0.150969
H62   H     H_    0.552665 0.517034 0.977111 0.123794
O59   O     O_3   0.003822 0.884108 0.075751 -0.569747
C107  C     C_3   0.941466 0.951611 0.066303 -0.060074
H63   H     H_    0.934132 0.008896 0.114220 0.149528
H64   H     H_    0.894646 0.892266 0.058816 0.151057
H65   H     H_    0.944883 0.014747 0.020479 0.125615
O60   O     O_3   0.995157 0.882244 0.924054 -0.568572
C108  C     C_3   0.056626 0.952571 0.932054 -0.060493
H66   H     H_    0.063114 0.008143 0.883179 0.149508
H67   H     H_    0.104267 0.895425 0.940268 0.150963
H68   H     H_    0.052532 0.017179 0.976977 0.123324

loop_
_geom_bond_atom_site_label_1
_geom_bond_atom_site_label_2
_ccdc_geom_bond_type
C8    H28   S    
C58   C62   A    
C15   H35   S    
C22   H38   S    
C27   O55   S    
C93   C94   A    
C88   O16   A    
C73   O37   A    
Cr3   O47   S    
C34   C37   A    
C106  H61   S    
C41   C42   A    
C14   C18   A    
Cr1   O17   S    
C95   C96   A    
C8    C96   S    
C87   O43   A    
Cr8   O52   S    
Cr3   O3    S    
O56   C104  S    
Cr2   O2    S    
C105  H58   S    
C103  H52   S    
C97   C98   A    
C7    C8    S    
Cr4   O20   S    
C46   C89   S    
Cr12  O16   S    
C65   C69   A    
C15   C19   A    
Cr8   O8    S    
C44   O60   S    
C50   C54   A    
C51   C71   A    
C105  H59   S    
Cr11  O19   S    
C64   C68   A    
Cr10  O10   S    
O59   C107  S    
C35   H43   S    
C39   C84   S    
C48   O32   A    
C55   C59   A    
C102  H49   S    
C2    O26   A    
C5    C6    S    
C30   C74   S    
Cr9   O17   S    
C98   H2    S    
C67   C71   A    
C29   C73   S    
Cr12  O12   S    
Cr7   O31   S    
C92   C96   A    
C104  H56   S    
O60   C108  S    
C46   O34   A    
C3    C18   S    
C50   H6    S    
C26   O54   S    
C10   H30   S    
Cr1   O41   S    
Cr5   O29   S    
C68   H20   S    
C9    C13   A    
Cr6   O26   S    
C6    H24   S    
C24   H40   S    
C11   C15   A    
Cr12  O40   S    
C12   C16   A    
Cr9   O33   S    
C6    C94   S    
C48   C91   S    
C100  H4    S    
Cr10  O38   S    
C51   H7    S    
C106  H60   S    
Cr9   O37   S    
C12   H32   S    
C23   C27   A    
C91   C100  A    
Cr2   O42   S    
C76   O40   A    
C90   C97   A    
Cr7   O51   S    
C84   O8    A    
C9    C29   A    
C74   O38   A    
C34   H42   S    
C54   H10   S    
C11   C31   A    
C49   C69   A    
C108  H66   S    
C12   C32   A    
C89   C93   A    
Cr4   O44   S    
C57   C80   S    
C40   C83   S    
C1    O21   A    
Cr4   O4    S    
C47   C92   S    
C59   C78   S    
Cr3   O19   S    
C103  H51   S    
C72   C88   S    
Cr9   O13   S    
C90   C94   A    
C55   H11   S    
Cr10  O18   S    
C25   C29   A    
C63   C67   A    
C60   C77   S    
C59   C63   A    
C82   O10   A    
Cr8   O28   S    
C27   C31   A    
C66   H18   S    
C81   O9    A    
C78   O46   A    
Cr11  O35   S    
C28   C32   A    
C28   O56   S    
Cr6   O30   S    
C10   C14   A    
C102  H50   S    
O55   C103  S    
C62   H14   S    
C7    H21   S    
C62   C66   A    
O54   C102  S    
C39   C43   A    
C82   O6    A    
C51   C55   A    
C64   H16   S    
C83   O11   A    
C1    O25   A    
Cr10  O34   S    
C107  H65   S    
C17   C21   A    
C3    O23   A    
Cr7   O27   S    
C68   C72   A    
Cr5   O17   S    
C35   C36   A    
C53   H9    S    
C6    H26   S    
C19   C23   A    
C102  H48   S    
C78   O50   A    
Cr6   O50   S    
O57   C105  S    
C52   C72   A    
C77   O49   A    
C65   H17   S    
Cr12  O36   S    
C23   H39   S    
C10   C30   A    
C31   C75   S    
C99   C100  A    
C8    H22   S    
C16   C20   A    
C87   O15   A    
C107  H64   S    
O53   C101  S    
Cr6   O18   S    
C75   O39   A    
Cr3   O43   S    
C4    O28   A    
C74   O2    A    
C57   C61   A    
C45   C90   S    
Cr9   O9    S    
C58   C79   S    
C86   O42   A    
C71   C87   S    
C4    C17   S    
C52   H8    S    
Cr4   O48   S    
C45   O33   A    
C80   O52   A    
C41   O57   S    
C3    O27   A    
C26   C30   A    
C83   O7    A    
C21   H37   S    
C108  H67   S    
C38   C81   S    
C13   H33   S    
Cr2   O22   S    
C106  H62   S    
C49   H5    S    
C37   C82   S    
Cr11  O11   S    
O58   C106  S    
C97   H1    S    
C25   O53   S    
Cr10  O14   S    
C47   O31   A    
C69   C85   S    
C36   H44   S    
C54   C58   A    
C75   O3    A    
C5    H23   S    
C21   C25   A    
C43   O59   S    
C76   O4    A    
C1    C20   S    
C53   C57   A    
Cr12  O20   S    
C2    C19   S    
C86   O14   A    
C81   O5    A    
Cr8   O32   S    
C36   C39   A    
C67   H19   S    
Cr4   O24   S    
C24   C28   A    
Cr7   O7    S    
C77   O45   A    
C32   C76   S    
C5    C93   S    
C47   O35   A    
Cr5   O49   S    
C73   O1    A    
C13   C17   A    
Cr2   O18   S    
C101  H47   S    
C7    C95   S    
C14   H34   S    
C101  H46   S    
C33   C38   A    
C60   C64   A    
C89   C98   A    
C16   H36   S    
C79   O47   A    
C88   O44   A    
C18   C22   A    
C35   C40   A    
C4    O24   A    
C33   H41   S    
C5    H25   S    
Cr1   O45   S    
C7    H27   S    
C42   O58   S    
C45   O29   A    
C66   C70   A    
Cr7   O19   S    
C43   C44   A    
C79   O51   A    
Cr8   O20   S    
C99   H3    S    
C103  H53   S    
C107  H63   S    
C104  H55   S    
C33   C34   A    
Cr3   O23   S    
Cr6   O6    S    
C61   C65   A    
C37   C41   A    
C105  H57   S    
C85   O13   A    
C50   C70   A    
C48   O36   A    
C49   C53   A    
C9    H29   S    
Cr1   O1    S    
C38   C42   A    
C56   C60   A    
C40   C44   A    
C84   O12   A    
C46   O30   A    
Cr2   O46   S    
C101  H45   S    
C22   C26   A    
C108  H68   S    
C91   C95   A    
C85   O41   A    
C56   H12   S    
Cr5   O5    S    
C61   H13   S    
C2    O22   A    
Cr5   O25   S    
C80   O48   A    
C11   H31   S    
C20   C24   A    
Cr1   O21   S    
C63   H15   S    
C52   C56   A    
C92   C99   A    
Cr11  O39   S    
C104  H54   S    
Cr11  O15   S    
C70   C86   S    
