data_mof_unit_44434.cif
_audit_creation_date              2012-12-10T16:44:40-0500
_audit_creation_method            fapswitch 2.2
_symmetry_space_group_name_H-M    P1
_symmetry_Int_Tables_number       1
_space_group_crystal_system       triclinic
_cell_length_a                    15.061811
_cell_length_b                    8.711608
_cell_length_c                    7.494799
_cell_angle_alpha                 102.743187
_cell_angle_beta                  93.872313
_cell_angle_gamma                 91.754373
_cell_volume                      955.952209356

loop_
_atom_site_label
_atom_site_type_symbol
_atom_type_description
_atom_site_fract_x
_atom_site_fract_y
_atom_site_fract_z
_atom_type_partial_charge
C1    C     C_R   0.504362 0.200869 0.453805 0.793108
C2    C     C_R   0.504836 0.799359 0.546173 0.829532
C3    C     C_R   0.032358 0.229047 0.321168 -0.339054
C4    C     C_R   0.965085 0.773917 0.671099 -0.346908
C5    C     C_2   0.518126 0.034017 0.432450 0.172126
C6    C     C_2   0.503293 0.966787 0.572845 0.241655
C7    C     C_R   0.329046 0.497854 0.502833 0.787329
C8    C     C_R   0.670504 0.501297 0.497080 0.802009
C9    C     C_R   0.817839 0.642484 0.580747 -0.023819
C10   C     C_R   0.180078 0.358444 0.417610 -0.023787
C11   C     C_R   0.766475 0.506701 0.491302 -0.114919
C12   C     C_R   0.232221 0.493302 0.508295 -0.120320
C13   C     C_R   0.806406 0.372210 0.401080 -0.246518
C14   C     C_R   0.191869 0.628082 0.598000 -0.243847
C15   C     C_R   0.899138 0.367336 0.403217 0.047228
C16   C     C_R   0.098846 0.635196 0.590863 0.051271
C17   C     C_R   0.952181 0.502890 0.494158 -0.023715
C18   C     C_R   0.045768 0.500066 0.499015 -0.026750
C19   C     C_R   0.911541 0.640727 0.582189 0.031936
C20   C     C_R   0.086268 0.361740 0.412269 0.034217
C21   C     C_R   0.939008 0.228225 0.319144 0.481670
C22   C     C_R   0.058634 0.775537 0.671752 0.493317
Cu1   Cu    Cu3+1 0.510010 0.517380 0.684380 0.950036
Cu2   Cu    Cu3+1 0.489990 0.482620 0.315620 0.951344
H1    H     H_    0.764308 0.269813 0.333603 0.176249
H2    H     H_    0.233880 0.728358 0.671122 0.159044
H3    H     H_    0.062917 0.125503 0.249134 0.180638
H4    H     H_    0.933507 0.876939 0.741484 0.176433
H5    H     H_    0.424250 0.392420 0.952616 0.228584
H6    H     H_    0.576274 0.606287 0.047296 0.234400
N1    N     N_2   0.474890 0.456420 0.038520 -0.212356
N2    N     N_2   0.525110 0.543580 0.961480 -0.226998
O1    O     O_R   0.506510 0.286130 0.619770 -0.545168
O2    O     O_R   0.493490 0.713870 0.380230 -0.569150
O3    O     O_R   0.489600 0.256770 0.308360 -0.596942
O4    O     O_R   0.510400 0.743230 0.691640 -0.588280
O5    O     O_R   0.378710 0.514640 0.655720 -0.598334
O6    O     O_R   0.621290 0.485360 0.344280 -0.588035
O7    O     O_R   0.361800 0.485290 0.344300 -0.582871
O8    O     O_R   0.638200 0.514710 0.655700 -0.585654
C23   C     C_R   0.773563 0.786732 0.669069 0.070760
C24   C     C_R   0.754799 0.903577 0.571428 -0.155119
C25   C     C_R   0.723087 0.047319 0.660844 -0.101475
C26   C     C_R   0.708646 0.074105 0.847170 -0.060619
C27   C     C_R   0.725461 0.956764 0.943900 -0.103937
C28   C     C_R   0.757715 0.813307 0.855332 -0.118867
H7    H     H_    0.765966 0.884277 0.427430 0.152364
H8    H     H_    0.709625 0.137901 0.585790 0.136904
H9    H     H_    0.684132 0.185442 0.916371 0.151192
H10   H     H_    0.714751 0.977783 0.088371 0.174905
H11   H     H_    0.771997 0.724105 0.932149 0.126535
C29   C     C_R   0.222703 0.209521 0.342091 0.094206
C30   C     C_R   0.234032 0.164763 0.154271 -0.125137
C31   C     C_R   0.256449 0.010976 0.077861 -0.135467
C32   C     C_R   0.272393 0.903969 0.188596 -0.121386
C33   C     C_R   0.263853 0.949771 0.376485 -0.130440
C34   C     C_R   0.236998 0.100800 0.452393 -0.179445
H12   H     H_    0.221384 0.246499 0.066773 0.120274
H13   H     H_    0.259852 0.973600 0.932192 0.165165
H14   H     H_    0.290801 0.785587 0.128673 0.144777
H15   H     H_    0.276443 0.867235 0.462091 0.125698
H16   H     H_    0.225740 0.132541 0.596272 0.134863
O9    O     O_3   0.884168 0.098957 0.226587 -0.601292
C35   C     C_3   0.921806 0.952715 0.229443 -0.351434
H17   H     H_    0.954807 0.950203 0.365833 0.168383
H18   H     H_    0.968193 0.921777 0.119375 0.185753
H19   H     H_    0.867917 0.859443 0.200095 0.177974
O10   O     O_3   0.113769 0.907365 0.755326 -0.611144
C36   C     C_3   0.071198 0.051998 0.775865 -0.352009
H20   H     H_    0.028702 0.069151 0.893431 0.187639
H21   H     H_    0.033128 0.062745 0.647357 0.171309
H22   H     H_    0.122408 0.149698 0.808650 0.175017
O11   O     O_3   0.565588 0.952468 0.291114 -0.644625
C37   C     C_3   0.524545 0.956008 0.118696 -0.222331
H23   H     H_    0.547145 0.063956 0.076670 0.227388
H24   H     H_    0.450769 0.941636 0.113404 0.163681
H25   H     H_    0.548074 0.856962 0.017725 0.212521
O12   O     O_3   0.495057 0.053786 0.748806 -0.590182
C38   C     C_3   0.404456 0.060120 0.780585 -0.399224
H26   H     H_    0.371019 0.940643 0.750105 0.144932
H27   H     H_    0.371206 0.137619 0.701162 0.177289
H28   H     H_    0.399024 0.115449 0.926852 0.195903

loop_
_geom_bond_atom_site_label_1
_geom_bond_atom_site_label_2
_ccdc_geom_bond_type
C26   H9    S    
C32   C33   A    
O11   C37   S    
C10   C29   S    
C1    O1    A    
C34   H16   S    
C30   C31   A    
C29   C30   A    
C37   H24   S    
C1    C5    S    
C5    C6    D    
C6    O12   S    
Cu1   O8    S    
Cu2   O7    S    
C33   C34   A    
C23   C24   A    
C36   H21   S    
C4    C19   A    
C9    C19   A    
C10   C20   A    
O10   C36   S    
Cu1   O1    S    
C37   H25   S    
Cu2   O6    S    
C23   C28   A    
C25   H8    S    
C2    O2    A    
C32   H14   S    
C13   H1    S    
C2    C6    S    
C8    O6    A    
C4    H4    S    
C31   H13   S    
C7    C12   S    
Cu2   O3    S    
C37   H23   S    
C35   H19   S    
C38   H27   S    
O12   C38   S    
Cu1   O5    S    
C28   H11   S    
Cu2   O2    S    
C38   H26   S    
C35   H18   S    
C36   H22   S    
C25   C26   A    
C4    C22   A    
N1    N2    D    
Cu1   Cu2   S    
C17   C18   A    
C7    O5    A    
C3    C20   A    
C14   H2    S    
C9    C11   A    
C22   O10   S    
C10   C12   A    
C12   C14   A    
C13   C15   A    
C14   C16   A    
C3    C21   A    
C24   C25   A    
C26   C27   A    
C1    O3    A    
C2    O4    A    
C15   C17   A    
C31   C32   A    
C16   C22   A    
C38   H28   S    
C30   H12   S    
C9    C23   S    
C35   H17   S    
C3    H3    S    
Cu2   N1    S    
H5    N1    S    
Cu1   N2    S    
H6    N2    S    
C11   C13   A    
C27   H10   S    
C8    C11   S    
C17   C19   A    
C18   C20   A    
C24   H7    S    
C5    O11   S    
C36   H20   S    
C21   O9    S    
C29   C34   A    
O9    C35   S    
C27   C28   A    
C15   C21   A    
C16   C18   A    
Cu1   O4    S    
C7    O7    A    
C33   H15   S    
C8    O8    A    
