data_mof_unit_51124.cif
_audit_creation_date              2012-12-11T14:49:48-0500
_audit_creation_method            fapswitch 2.2
_symmetry_space_group_name_H-M    P1
_symmetry_Int_Tables_number       1
_space_group_crystal_system       triclinic
_cell_length_a                    16.820743
_cell_length_b                    16.77679
_cell_length_c                    19.491253
_cell_angle_alpha                 116.662181
_cell_angle_beta                  62.39378
_cell_angle_gamma                 100.128133
_cell_volume                      4352.33141322

loop_
_atom_site_label
_atom_site_type_symbol
_atom_type_description
_atom_site_fract_x
_atom_site_fract_y
_atom_site_fract_z
_atom_type_partial_charge
C1    C     C_R   0.023026 0.760390 0.024812 0.860305
C2    C     C_R   0.233979 0.583749 0.837026 0.785339
C3    C     C_R   0.198190 0.438692 0.035604 0.574073
C4    C     C_R   0.747841 0.478248 0.173876 0.534908
C5    C     C_R   0.046619 0.326435 0.752599 0.626067
C6    C     C_R   0.282039 0.463632 0.988014 -0.260585
C7    C     C_R   0.036124 0.241136 0.750209 -0.068994
C8    C     C_R   0.232386 0.564908 0.760835 -0.217155
C9    C     C_R   0.963687 0.241542 0.063990 -0.183014
C10   C     C_R   0.115650 0.099470 0.633456 0.607247
C11   C     C_R   0.043602 0.161239 0.677257 -0.062728
C12   C     C_R   0.740730 0.542112 0.253954 -0.083008
C13   C     C_R   0.975766 0.149055 0.652470 -0.271500
C14   C     C_R   0.979828 0.075964 0.580401 0.205180
C15   C     C_R   0.054152 0.014690 0.531519 -0.037773
C16   C     C_R   0.822820 0.501668 0.903772 0.625750
C17   C     C_R   0.123144 0.026144 0.557334 -0.354304
C18   C     C_R   0.911223 0.064786 0.555933 -0.211187
C19   C     C_R   0.915939 0.992940 0.481978 -0.067319
C20   C     C_R   0.989544 0.932235 0.432081 -0.027810
C21   C     C_R   0.059265 0.942668 0.456557 -0.052152
C22   C     C_R   0.133772 0.881292 0.405851 -0.138952
C23   C     C_R   0.753568 0.444053 0.918025 -0.300539
C24   C     C_R   0.203538 0.893512 0.429920 0.417854
C25   C     C_R   0.197430 0.964949 0.506051 0.647697
C26   C     C_R   0.994678 0.861092 0.357838 0.654909
C27   C     C_R   0.067844 0.800728 0.308822 -0.144225
C28   C     C_R   0.014468 0.655221 0.238226 0.565345
C29   C     C_R   0.136875 0.809295 0.331686 -0.205753
C30   C     C_R   0.368168 0.646228 0.703295 -0.038284
C31   C     C_R   0.291951 0.599856 0.697073 0.095769
C32   C     C_R   0.278691 0.578535 0.624738 -0.137231
C33   C     C_R   0.345965 0.592419 0.554714 -0.077133
C34   C     C_R   0.068235 0.726953 0.234406 -0.243709
C35   C     C_R   0.426414 0.630366 0.558708 -0.016010
C36   C     C_R   0.435088 0.662297 0.635094 -0.173456
C37   C     C_R   0.337167 0.563277 0.478588 0.383022
C38   C     C_R   0.412345 0.560456 0.404284 0.640593
C39   C     C_R   0.495209 0.589283 0.406241 -0.109625
C40   C     C_R   0.755717 0.423304 0.978797 0.738218
C41   C     C_R   0.500987 0.629113 0.484491 -0.152584
C42   C     C_R   0.583232 0.661639 0.487406 -0.341820
C43   C     C_R   0.587262 0.703817 0.566511 0.699242
C44   C     C_R   0.513828 0.703174 0.639700 0.567712
C45   C     C_R   0.263350 0.530847 0.974154 0.537343
C46   C     C_R   0.573778 0.571678 0.330683 -0.158103
C47   C     C_R   0.657984 0.588577 0.332140 -0.115940
C48   C     C_R   0.660949 0.644280 0.410783 0.842734
C49   C     C_R   0.694192 0.408548 0.874016 -0.084593
C50   C     C_R   0.370945 0.424071 0.955892 -0.123584
C51   C     C_R   0.465954 0.347344 0.972073 0.866659
C52   C     C_R   0.083867 0.733985 0.160943 0.638790
C53   C     C_R   0.382704 0.383020 0.999562 -0.391283
C54   C     C_R   0.445072 0.428779 0.883152 0.626156
C55   C     C_R   0.531821 0.412892 0.868964 -0.324407
C56   C     C_R   0.977197 0.248605 0.830739 -0.234986
C57   C     C_R   0.541695 0.366349 0.909967 -0.382639
C58   C     C_R   0.627522 0.348489 0.894764 0.697514
C59   C     C_R   0.688049 0.450058 0.827888 -0.363785
C60   C     C_R   0.608344 0.448357 0.820996 0.638505
C61   C     C_R   0.768264 0.164134 0.169424 -0.064839
C62   C     C_R   0.926224 0.860974 0.021038 -0.122537
C63   C     C_R   0.865968 0.948050 0.982489 0.776003
C64   C     C_R   0.827778 0.549525 0.246993 -0.109289
C65   C     C_R   0.908238 0.870317 0.961415 -0.420840
C66   C     C_R   0.901959 0.931704 0.102868 0.789827
C67   C     C_R   0.157277 0.514979 0.761148 -0.176956
C68   C     C_R   0.859005 0.010245 0.124836 -0.223555
C69   C     C_R   0.840054 0.018058 0.064365 -0.109107
C70   C     C_R   0.794277 0.095245 0.087592 -0.206238
C71   C     C_R   0.787629 0.157045 0.228775 0.742749
C72   C     C_R   0.832763 0.080593 0.206863 -0.245311
C73   C     C_R   0.944250 0.690713 0.949854 -0.243694
C74   C     C_R   0.964147 0.774747 0.998996 -0.072251
C75   C     C_3   0.018802 0.289018 0.191138 -0.063252
C76   C     C_3   0.205928 0.286384 0.971595 -0.253297
C77   C     C_3   0.163804 0.304527 0.621273 -0.194232
C78   C     C_R   0.007255 0.320142 0.091401 0.698256
C79   C     C_3   0.157992 0.077643 0.718846 -0.063708
C80   C     C_3   0.668266 0.353941 0.163485 0.045960
C81   C     C_3   0.345799 0.864482 0.324793 -0.127316
C82   C     C_3   0.205493 0.597163 0.491054 -0.082078
C83   C     C_3   0.712978 0.221399 0.832344 -0.028386
C84   C     C_3   0.600265 0.582158 0.819902 0.002537
C85   C     C_3   0.409314 0.382233 0.772770 -0.099730
C86   C     C_3   0.968693 0.657604 0.370349 -0.106556
C87   C     C_3   0.165368 0.861764 0.167970 0.015296
C88   C     C_3   0.351265 0.645807 0.010769 0.021118
C89   C     C_R   0.938436 0.249622 0.009377 -0.217608
F1    F     F_    0.066765 0.824385 0.065530 -0.652483
F2    F     F_    0.473611 0.306751 0.015485 -0.618526
F3    F     F_    0.762264 0.224526 0.307933 -0.688242
F4    F     F_    0.849277 0.954112 0.923133 -0.692210
F5    F     F_    0.915047 0.922314 0.162672 -0.657517
F6    F     F_    0.715705 0.354223 0.997908 -0.635366
F7    F     F_    0.271252 0.656405 0.877685 -0.660382
F8    F     F_    0.928387 0.849369 0.332932 -0.684646
F9    F     F_    0.265153 0.974104 0.528268 -0.649245
F10   F     F_    0.405332 0.524251 0.329499 -0.654777
F11   F     F_    0.860947 0.521273 0.835145 -0.703821
F12   F     F_    0.739000 0.678446 0.413930 -0.679910
F13   F     F_    0.663950 0.739652 0.572619 -0.593454
F14   F     F_    0.521664 0.737978 0.714001 -0.643751
H1    H     H_    0.948368 0.194748 0.849601 0.157930
H2    H     H_    0.568567 0.539941 0.271221 0.246284
H3    H     H_    0.741892 0.488271 0.801253 0.243898
H4    H     H_    0.327673 0.378746 0.055717 0.244553
H5    H     H_    0.778174 0.102557 0.042943 0.193724
H6    H     H_    0.846617 0.076458 0.254211 0.215538
H7    H     H_    0.926579 0.816799 0.898149 0.206846
H8    H     H_    0.850067 0.590294 0.294931 0.223634
H9    H     H_    0.901014 0.676306 0.918859 0.210739
H10   H     H_    0.065915 0.231278 0.138993 0.114900
H11   H     H_    0.949073 0.266719 0.216738 0.134875
H12   H     H_    0.125577 0.503824 0.720722 0.204867
H13   H     H_    0.039432 0.318547 0.243734 0.178048
H14   H     H_    0.279402 0.274192 0.932680 0.158928
H15   H     H_    0.175308 0.290097 0.933141 0.105808
H16   H     H_    0.179587 0.227098 0.985264 0.169541
H17   H     H_    0.153957 0.238939 0.575260 0.160956
H18   H     H_    0.205926 0.296655 0.648464 0.134233
H19   H     H_    0.201929 0.344801 0.584747 0.175109
H20   H     H_    0.148529 0.004620 0.689577 0.148947
H21   H     H_    0.096503 0.111162 0.778055 0.090688
H22   H     H_    0.213266 0.086821 0.737405 0.158412
H23   H     H_    0.891771 0.207187 0.986410 0.160425
H24   H     H_    0.652924 0.365548 0.229400 0.082054
H25   H     H_    0.729158 0.309007 0.116068 0.112156
H26   H     H_    0.610942 0.319280 0.150411 0.201849
H27   H     H_    0.324897 0.871605 0.281255 0.091643
H28   H     H_    0.403181 0.815069 0.284641 0.168780
H29   H     H_    0.369838 0.928952 0.359808 0.168188
H30   H     H_    0.239701 0.625196 0.442715 0.165688
H31   H     H_    0.187993 0.651049 0.556448 0.105274
H32   H     H_    0.141778 0.569403 0.487799 0.168055
H33   H     H_    0.701997 0.200488 0.774558 0.072535
H34   H     H_    0.920337 0.198027 0.689151 0.147408
H35   H     H_    0.716496 0.160143 0.839229 0.175164
H36   H     H_    0.778478 0.253642 0.823693 0.107595
H37   H     H_    0.667138 0.606297 0.817053 0.106606
H38   H     H_    0.548683 0.605157 0.887505 0.089202
H39   H     H_    0.581616 0.613110 0.789346 0.200905
H40   H     H_    0.344025 0.356406 0.806048 0.078758
H41   H     H_    0.462670 0.328091 0.731892 0.134822
H42   H     H_    0.401064 0.403935 0.730324 0.160686
H43   H     H_    0.914847 0.705294 0.391551 0.184107
H44   H     H_    0.020039 0.693213 0.392850 0.142834
H45   H     H_    0.854227 0.111905 0.593784 0.133950
H46   H     H_    0.936690 0.611630 0.401703 0.184834
H47   H     H_    0.202162 0.865763 0.204079 0.067715
H48   H     H_    0.099199 0.898934 0.211155 0.156586
H49   H     H_    0.206136 0.895545 0.125662 0.180320
H50   H     H_    0.398398 0.608372 0.012147 0.069218
H51   H     H_    0.294137 0.675665 0.075310 0.102596
H52   H     H_    0.388010 0.701520 0.994916 0.157943
H53   H     H_    0.862231 0.985378 0.463787 0.198350
H54   H     H_    0.192141 0.760014 0.291429 0.198282
H55   H     H_    0.380381 0.663713 0.757794 0.235889
H56   H     H_    0.219257 0.545141 0.619830 0.161895
N1    N     N_R   0.036080 0.671900 0.995420 -0.132396
N2    N     N_R   0.867430 0.509300 0.948100 -0.147898
N3    N     N_R   0.003360 0.617250 0.167070 -0.133645
N4    N     N_R   0.825450 0.461270 0.995400 -0.158789
N5    N     N_R   0.045340 0.665280 0.119770 -0.134220
N6    N     N_R   0.883740 0.497640 0.167070 -0.086071
N7    N     N_R   0.987050 0.628910 0.948110 -0.082263
N8    N     N_R   0.174550 0.538730 0.004600 -0.155501
N9    N     N_R   0.954660 0.334720 0.880230 -0.078562
N10   N     N_R   0.116260 0.502360 0.832930 -0.091114
N11   N     N_R   0.012950 0.371090 0.051890 -0.100009
N12   N     N_R   0.963920 0.328100 0.004580 -0.081496
N13   N     N_R   0.165290 0.545350 0.880240 -0.130424
N14   N     N_R   0.132570 0.490700 0.051900 -0.144825
N15   N     N_R   0.996640 0.382750 0.832930 -0.094091
N16   N     N_R   0.834710 0.454650 0.119760 -0.107348
Ni1   Ni    Ni4+2 0.104370 0.604370 0.000010 0.306940
Ni2   Ni    Ni4+2 0.895630 0.395630 0.999990 0.226265
Ni3   Ni    Ni4+2 0.991920 0.505780 0.891500 0.256695
Ni4   Ni    Ni4+2 0.008080 0.494220 0.108500 0.280799
O1    O     O_3   0.022721 0.354924 0.163576 -0.582530
O2    O     O_3   0.433736 0.456206 0.831022 -0.552614
O3    O     O_3   0.009694 0.606174 0.281262 -0.615171
O4    O     O_3   0.157837 0.772021 0.116363 -0.591328
O5    O     O_3   0.321923 0.590990 0.947648 -0.522805
O6    O     O_3   0.183607 0.363082 0.050263 -0.578245
O7    O     O_3   0.080195 0.349249 0.684394 -0.624189
O8    O     O_3   0.181934 0.115939 0.660864 -0.590761
O9    O     O_3   0.677896 0.435127 0.155724 -0.610897
O10   O     O_3   0.275840 0.832936 0.381553 -0.586472
O11   O     O_3   0.258301 0.527900 0.473754 -0.584815
O12   O     O_3   0.641658 0.277824 0.906826 -0.507322
O13   O     O_3   0.603328 0.488491 0.774525 -0.583063

loop_
_geom_bond_atom_site_label_1
_geom_bond_atom_site_label_2
_ccdc_geom_bond_type
C61   C70   A    
C66   C68   A    
C63   C65   A    
C1    F1    S    
C19   H53   S    
C6    C45   A    
C27   C29   A    
C5    N15   A    
C14   C18   A    
C35   C36   A    
C52   O4    S    
C3    C6    A    
C86   H44   S    
C85   H40   S    
C83   H36   S    
C81   H27   S    
C28   N3    A    
N16   Ni2   S    
C31   C32   A    
C67   N10   A    
C7    C11   S    
C26   C27   A    
C50   C54   A    
C79   O8    S    
C78   O1    S    
C1    C74   A    
C5    O7    S    
C83   O12   S    
C22   C29   A    
C85   H42   S    
C18   H45   S    
C87   O4    S    
C38   C39   A    
C12   C64   A    
C23   C49   S    
N11   N12   A    
N14   Ni4   S    
C10   C17   A    
C23   C40   A    
C64   N6    A    
C46   H2    S    
C86   H43   S    
C78   N11   A    
C30   H55   S    
C18   C19   A    
C41   C42   A    
C82   H32   S    
C28   O3    S    
C67   H12   S    
C77   H19   S    
C51   F2    S    
C21   C22   A    
C54   C55   A    
C3    N14   A    
C71   F3    S    
C63   C69   A    
C68   C69   A    
C4    N16   A    
N9    Ni2   S    
N4    Ni2   S    
C62   C74   S    
N5    Ni1   S    
C24   O10   S    
C51   C57   A    
N1    N7    A    
C4    C12   A    
N15   Ni3   S    
C60   O13   S    
C66   F5    S    
C32   H56   S    
C61   C71   A    
C37   O11   S    
C79   H22   S    
C28   C34   A    
C59   C60   A    
C87   H48   S    
C55   C60   A    
C82   O11   S    
C77   O7    S    
N1    Ni1   S    
C77   H17   S    
C7    C56   A    
C12   C47   S    
C35   C41   A    
C3    O6    S    
C85   H41   S    
N2    N4    A    
C44   F14   S    
N3    N5    A    
C89   H23   S    
C27   C34   S    
C50   C53   A    
C62   C66   A    
C59   H3    S    
C88   H52   S    
C77   H18   S    
C24   C25   A    
C89   N12   A    
C40   N4    A    
C39   C41   A    
C76   H16   S    
C86   H46   S    
C9    C89   A    
C5    C7    A    
C75   H10   S    
C16   F11   S    
C64   H8    S    
C29   H54   S    
C80   H25   S    
C79   H20   S    
C87   H47   S    
C33   C37   A    
C49   C58   A    
C51   C53   A    
C13   H34   S    
C82   H31   S    
N9    N15   A    
C43   C44   A    
C37   C38   A    
C53   H4    S    
C47   C48   A    
C84   H39   S    
C68   C72   A    
C81   O10   S    
C56   N9    A    
C10   O8    S    
C80   O9    S    
C54   O2    S    
C75   H11   S    
C42   C48   A    
C6    C50   S    
C75   O1    S    
C45   N8    A    
C56   H1    S    
N3    Ni4   S    
C88   O5    S    
C39   C46   A    
N7    Ni3   S    
C52   N5    A    
C16   C23   A    
C87   H49   S    
C55   C57   A    
N6    Ni4   S    
N10   N13   A    
C22   C24   A    
C36   C44   A    
C42   C43   A    
C40   F6    S    
C73   C74   A    
N10   Ni3   S    
C73   H9    S    
C15   C17   A    
C72   H6    S    
C85   O2    S    
C80   H26   S    
C62   C65   A    
C8    C31   S    
C1    N1    A    
C2    C8    A    
C38   F10   S    
C81   H29   S    
C80   H24   S    
C30   C36   A    
C16   N2    A    
N6    N16   A    
C79   H21   S    
C63   F4    S    
C34   C52   A    
C76   H14   S    
C49   C59   A    
N8    N14   A    
N11   Ni4   S    
C17   C25   A    
C88   H50   S    
C4    O9    S    
C19   C20   A    
C2    F7    S    
C43   F13   S    
C71   C72   A    
C70   H5    S    
C32   C33   A    
C11   C13   A    
C57   C58   A    
C30   C31   A    
C20   C26   A    
C84   H38   S    
C82   H30   S    
C48   F12   S    
C33   C35   A    
C84   O13   S    
C9    C78   A    
C69   C70   A    
C73   N7    A    
C76   H15   S    
C65   H7    S    
C46   C47   A    
C81   H28   S    
C10   C11   A    
C26   F8    S    
C25   F9    S    
C15   C21   A    
C20   C21   A    
C84   H37   S    
C8    C67   A    
C2    N13   A    
C58   O12   S    
C86   O3    S    
C14   C15   A    
N12   Ni2   S    
C75   H13   S    
N2    Ni3   S    
C13   C14   A    
C83   H35   S    
C76   O6    S    
N13   Ni1   S    
C45   O5    S    
C88   H51   S    
N8    Ni1   S    
C83   H33   S    
