data_mof_unit_14816.cif
_audit_creation_date              2012-12-10T17:00:01-0500
_audit_creation_method            fapswitch 2.2
_symmetry_space_group_name_H-M    P1
_symmetry_Int_Tables_number       1
_space_group_crystal_system       triclinic
_cell_length_a                    23.544655
_cell_length_b                    10.992886
_cell_length_c                    9.697351
_cell_angle_alpha                 90.274336
_cell_angle_beta                  90.379029
_cell_angle_gamma                 89.772968
_cell_volume                      2509.80126665

loop_
_atom_site_label
_atom_site_type_symbol
_atom_type_description
_atom_site_fract_x
_atom_site_fract_y
_atom_site_fract_z
_atom_type_partial_charge
C1    C     C_R   0.500205 0.265988 0.499679 0.926664
C2    C     C_R   0.969863 0.296932 0.439797 -0.038998
C3    C     C_R   0.028592 0.295740 0.459864 -0.165250
C4    C     C_R   0.058485 0.403077 0.487726 -0.004224
C5    C     C_R   0.029358 0.514983 0.496873 -0.051349
C6    C     C_R   0.060092 0.624935 0.516958 -0.149869
C7    C     C_R   0.029122 0.736096 0.533631 0.428988
C8    C     C_R   0.969781 0.734729 0.523470 -0.183962
C9    C     C_R   0.117556 0.400777 0.502070 0.614662
C10   C     C_R   0.120323 0.617448 0.517065 0.676642
C11   C     C_R   0.240930 0.531925 0.631305 0.485303
C12   C     C_R   0.390830 0.496175 0.499503 0.875580
C13   C     C_R   0.300152 0.530684 0.621844 -0.279433
C14   C     C_R   0.327850 0.492596 0.500629 -0.207247
C15   C     C_R   0.294385 0.451723 0.387136 0.307406
C16   C     C_R   0.235288 0.461804 0.394090 -0.209489
C17   C     C_R   0.208229 0.501388 0.514176 0.148772
C18   C     C_R   0.763864 0.468804 0.617221 0.354540
C19   C     C_R   0.704514 0.445788 0.611832 0.301413
C20   C     C_R   0.671836 0.496659 0.502015 -0.177617
C21   C     C_R   0.699432 0.552982 0.391861 -0.212363
C22   C     C_R   0.758145 0.560270 0.389032 -0.121973
C23   C     C_R   0.502372 0.734178 0.500147 0.840471
C24   C     C_R   0.790565 0.519138 0.500388 0.169695
C25   C     C_2   0.497026 0.937760 0.400460 0.134904
C26   C     C_2   0.516944 0.862214 0.500129 0.109415
C27   C     C_2   0.514851 0.063894 0.398834 -0.036309
C28   C     C_2   0.494511 0.135731 0.499203 -0.247646
C29   C     C_2   0.459029 0.543539 0.921377 0.033975
C30   C     C_2   0.464201 0.558948 0.075302 0.095886
C31   C     C_R   0.609057 0.496685 0.500603 0.931351
C32   C     C_R   0.880189 0.626501 0.499899 0.652576
C33   C     C_R   0.879014 0.411037 0.468888 0.632235
C34   C     C_R   0.938978 0.406619 0.462537 -0.025023
C35   C     C_R   0.969360 0.516058 0.486946 -0.011168
C36   C     C_R   0.939757 0.626664 0.501813 -0.090357
Cu1   Cu    Cu3+1 0.500010 0.500020 0.638630 1.055010
Cu2   Cu    Cu3+1 0.499990 0.499980 0.361370 1.074383
H1    H     H_    0.675457 0.590677 0.306309 0.199560
H2    H     H_    0.778737 0.599089 0.300007 0.190832
H3    H     H_    0.468680 0.097093 0.580531 0.169977
H4    H     H_    0.420448 0.575292 0.871463 0.168385
H5    H     H_    0.538946 0.491994 0.891616 0.216431
H6    H     H_    0.436485 0.625065 0.123764 0.212389
H7    H     H_    0.051440 0.210659 0.446341 0.212922
H8    H     H_    0.946489 0.819119 0.535667 0.228974
H9    H     H_    0.324790 0.559468 0.710835 0.210430
H10   H     H_    0.209361 0.436080 0.306084 0.212452
N1    N     N_R   0.851371 0.519374 0.488652 -0.453845
N2    N     N_R   0.147183 0.506726 0.514852 -0.453561
N3    N     N_2   0.499380 0.498660 0.846910 -0.274945
N4    N     N_2   0.499370 0.498630 0.153040 -0.284874
O1    O     O_R   0.500010 0.321960 0.617040 -0.549765
O2    O     O_2   0.848220 0.308085 0.461092 -0.441357
O3    O     O_2   0.145523 0.293281 0.501477 -0.472349
O4    O     O_2   0.152291 0.718574 0.515031 -0.407116
O5    O     O_R   0.499990 0.321920 0.382900 -0.562998
O6    O     O_R   0.417890 0.499980 0.617100 -0.600067
O7    O     O_R   0.417870 0.499940 0.382950 -0.516080
O8    O     O_R   0.500010 0.678080 0.617100 -0.576001
O9    O     O_R   0.499990 0.678040 0.382960 -0.553904
O10   O     O_R   0.582130 0.500060 0.617050 -0.529692
O11   O     O_R   0.582110 0.500020 0.382900 -0.613924
O12   O     O_2   0.851175 0.731916 0.514059 -0.470709
C37   C     C_2   0.944481 0.182754 0.386437 0.536010
H11   H     H_    0.959113 0.095802 0.425656 0.109813
O13   O     O_2   0.910550 0.184155 0.290693 -0.449092
S1    S     S_3+6 0.672732 0.340718 0.728014 0.110119
O14   O     O_2   0.715357 0.249988 0.781008 -0.151842
O15   O     O_2   0.647771 0.409540 0.847571 -0.285474
O16   O     O_3   0.621065 0.262729 0.646791 -0.497200
H12   H     H_    0.602690 0.214547 0.720005 0.405486
S2    S     S_3+6 0.444469 0.898561 0.275810 0.023445
O17   O     O_2   0.473339 0.842896 0.153003 -0.268881
O18   O     O_2   0.402190 0.810104 0.332792 -0.301589
O19   O     O_3   0.409935 0.024697 0.224132 -0.418738
H13   H     H_    0.388240 0.051851 0.305933 0.375310
S3    S     S_3+6 0.569225 0.908002 0.624394 0.035081
O20   O     O_2   0.612536 0.989549 0.559708 -0.195131
O21   O     O_2   0.540791 0.975819 0.740099 -0.281922
O22   O     O_3   0.603388 0.785649 0.688705 -0.490920
H14   H     H_    0.585321 0.769251 0.778659 0.377605
C38   C     C_2   0.555346 0.101631 0.290420 0.542888
H15   H     H_    0.557118 0.051028 0.194178 0.116142
O23   O     O_2   0.589335 0.183515 0.310526 -0.511619
C39   C     C_2   0.521991 0.385293 0.105993 0.625570
H16   H     H_    0.565823 0.362473 0.129313 0.088839
O24   O     O_2   0.491831 0.310146 0.048237 -0.485775
S4    S     S_3+6 0.060592 0.878192 0.577819 0.071300
O25   O     O_2   0.092689 0.925752 0.456019 -0.227157
O26   O     O_2   0.015999 0.969798 0.617815 -0.308120
O27   O     O_3   0.105187 0.859857 0.712337 -0.434629
H17   H     H_    0.124564 0.939198 0.723000 0.403655
S5    S     S_3+6 0.210049 0.570253 0.791736 0.068595
O28   O     O_2   0.151383 0.518161 0.804076 -0.256750
O29   O     O_2   0.246700 0.521584 0.906499 -0.258492
O30   O     O_3   0.206776 0.722548 0.805369 -0.460333
H18   H     H_    0.190783 0.738359 0.897993 0.393765
S6    S     S_3+6 0.322631 0.382257 0.236788 0.095030
O31   O     O_2   0.371432 0.299869 0.273644 -0.237255
O32   O     O_2   0.277818 0.308248 0.164334 -0.192956
O33   O     O_3   0.345088 0.490585 0.128880 -0.492452
H19   H     H_    0.316689 0.556945 0.136352 0.360946
S7    S     S_3+6 0.804996 0.442759 0.769661 0.103848
O34   O     O_2   0.829169 0.316054 0.765468 -0.194202
O35   O     O_2   0.853080 0.531937 0.779326 -0.275215
O36   O     O_3   0.764805 0.459503 0.911280 -0.452842
H20   H     H_    0.789891 0.435975 0.989186 0.386385

loop_
_geom_bond_atom_site_label_1
_geom_bond_atom_site_label_2
_ccdc_geom_bond_type
C29   H4    S    
S2    O17   D    
C19   C20   A    
C2    C37   S    
C16   H10   S    
S7    O35   D    
Cu1   O10   S    
C7    C8    A    
C26   S3    S    
C18   C24   A    
C32   C36   A    
Cu1   Cu2   S    
C18   C19   A    
C5    C6    A    
Cu1   N3    S    
S3    O21   D    
Cu2   N4    S    
C33   N1    A    
C15   C16   A    
C7    S4    S    
C28   H3    S    
C24   N1    S    
C34   C35   A    
C8    C36   A    
C23   C26   S    
C1    O1    A    
C12   O7    A    
C35   C36   A    
C16   C17   A    
C37   O13   D    
C1    C28   S    
O36   H20   S    
C9    O3    S    
S4    O26   D    
C10   O4    S    
C25   S2    S    
Cu1   O6    S    
Cu2   O9    S    
Cu1   O1    S    
C2    C34   A    
C21   C22   A    
S2    O18   D    
C31   O10   A    
C30   H6    S    
S5    O28   D    
S7    O34   D    
O30   H18   S    
C23   O8    A    
C31   O11   A    
O19   H13   S    
C32   O12   S    
C13   H9    S    
C39   H16   S    
S1    O14   D    
S5    O30   S    
C25   C26   D    
C3    H7    S    
O22   H14   S    
C29   C30   S    
C1    O5    A    
Cu2   O5    S    
C38   H15   S    
C21   H1    S    
C22   H2    S    
C33   C34   A    
C19   S1    S    
C18   S7    S    
S4    O27   S    
S5    O29   D    
C11   S5    S    
S6    O32   D    
C12   C14   S    
S2    O19   S    
C22   C24   A    
C3    C4    A    
C10   N2    A    
Cu2   O11   S    
C29   N3    D    
C33   O2    S    
C30   N4    D    
C11   C17   A    
C38   O23   D    
S3    O20   D    
C9    N2    A    
C15   S6    S    
C4    C5    A    
C17   N2    S    
C6    C10   A    
C6    C7    A    
C25   C27   S    
S6    O31   D    
C27   C38   S    
C2    C3    A    
S4    O25   D    
C12   O6    A    
O16   H12   S    
C11   C13   A    
S3    O22   S    
H5    N3    S    
S1    O16   S    
C5    C35   A    
N4    C39   S    
O27   H17   S    
C39   O24   D    
O33   H19   S    
C8    H8    S    
C32   N1    A    
Cu1   O8    S    
Cu2   O7    S    
C23   O9    A    
S6    O33   S    
C20   C21   A    
S1    O15   D    
C37   H11   S    
C27   C28   D    
C14   C15   A    
C4    C9    A    
C13   C14   A    
S7    O36   S    
C20   C31   S    
