data_mof_unit_47062.cif
_audit_creation_date              2012-12-10T18:09:54-0500
_audit_creation_method            fapswitch 2.2
_symmetry_space_group_name_H-M    P1
_symmetry_Int_Tables_number       1
_space_group_crystal_system       triclinic
_cell_length_a                    10.688597
_cell_length_b                    12.606345
_cell_length_c                    13.114577
_cell_angle_alpha                 83.417849
_cell_angle_beta                  93.368805
_cell_angle_gamma                 101.934478
_cell_volume                      1716.40197601

loop_
_atom_site_label
_atom_site_type_symbol
_atom_type_description
_atom_site_fract_x
_atom_site_fract_y
_atom_site_fract_z
_atom_type_partial_charge
Br1   Br    Br    0.166605 0.600622 0.293301 -0.434687
Br2   Br    Br    0.198429 0.306552 0.097352 -0.401962
Br3   Br    Br    0.689618 0.616323 0.848180 -0.363937
Br4   Br    Br    0.272575 0.871795 0.243385 -0.376777
Br5   Br    Br    0.117090 0.046220 0.306157 -0.363984
Br6   Br    Br    0.596461 0.086795 0.721005 -0.513927
Br7   Br    Br    0.821262 0.448244 0.288834 -0.393304
Br8   Br    Br    0.905216 0.540919 0.718436 -0.322823
Br9   Br    Br    0.202393 0.625530 0.688170 -0.425491
C1    C     C_R   0.482094 0.440740 0.692344 0.918514
C2    C     C_R   0.382866 0.458958 0.963706 -0.013342
C3    C     C_R   0.443392 0.488477 0.868681 0.005823
C4    C     C_R   0.741978 0.499185 0.503329 0.963498
C5    C     C_R   0.401877 0.539714 0.033170 0.113882
C6    C     C_R   0.434553 0.651711 0.995012 0.110343
C7    C     C_R   0.472705 0.678886 0.894488 -0.196955
C8    C     C_R   0.508926 0.597239 0.848036 0.309879
C9    C     C_R   0.423960 0.511961 0.137401 -0.125100
C10   C     C_R   0.482199 0.702904 0.166245 -0.109453
C11   C     C_R   0.443479 0.408605 0.800257 -0.087122
C12   C     C_3   0.121918 0.497084 0.507220 -0.091559
C13   C     C_R   0.285749 0.082969 0.368603 0.249028
C14   C     C_R   0.666102 0.806772 0.621492 0.577493
C15   C     C_R   0.680541 0.905266 0.664434 -0.370775
C16   C     C_R   0.503800 0.559283 0.308988 0.922391
C17   C     C_R   0.601952 0.978047 0.630139 0.237673
C18   C     C_R   0.519650 0.958252 0.542286 -0.029242
C19   C     C_R   0.497186 0.851770 0.510263 0.077128
C20   C     C_R   0.458645 0.037932 0.485636 -0.051243
C21   C     C_R   0.359851 0.006358 0.410827 -0.008810
C22   C     C_R   0.344618 0.902380 0.377219 0.269485
C23   C     C_3   0.064202 0.501034 0.394826 0.019581
C24   C     C_R   0.410183 0.826214 0.428426 -0.209404
C25   C     C_R   0.499844 0.150114 0.493480 0.020827
C26   C     C_R   0.326030 0.191111 0.386780 -0.036711
C27   C     C_R   0.258256 0.497867 0.504724 0.940065
C28   C     C_3   0.904542 0.382889 0.549136 -0.347310
C29   C     C_3   0.049951 0.389999 0.566765 -0.448732
C30   C     C_3   0.929059 0.525664 0.394180 0.011315
C31   C     C_3   0.953967 0.583715 0.575272 0.095893
C32   C     C_3   0.878658 0.497676 0.505426 -0.137267
C33   C     C_3   0.098453 0.596438 0.560544 0.079545
C34   C     C_R   0.461179 0.732556 0.062431 -0.074696
C35   C     C_R   0.472108 0.592618 0.202400 -0.061930
C36   C     C_R   0.385015 0.299991 0.829743 -0.200982
C37   C     C_R   0.320697 0.271735 0.921337 -0.120640
C38   C     C_R   0.315790 0.350176 0.987243 0.280233
H1    H     H_    0.867158 0.322487 0.493520 0.221812
H2    H     H_    0.854650 0.351217 0.621754 0.232028
H3    H     H_    0.270154 0.250957 0.356846 0.184636
H4    H     H_    0.586551 0.182457 0.534985 0.176680
H5    H     H_    0.749909 0.923482 0.726829 0.205076
H6    H     H_    0.397144 0.748927 0.398895 0.229999
H7    H     H_    0.076153 0.389020 0.650176 0.247175
H8    H     H_    0.075268 0.316665 0.540148 0.204018
H9    H     H_    0.057941 0.419403 0.367867 0.212114
H10   H     H_    0.929916 0.665131 0.552807 0.157414
H11   H     H_    0.824466 0.776901 0.686535 0.353090
H12   H     H_    0.129343 0.671488 0.507089 0.147392
H13   H     H_    0.933051 0.614015 0.371006 0.175127
H14   H     H_    0.513570 0.766214 0.216747 0.177227
H15   H     H_    0.515893 0.762883 0.869556 0.175458
H16   H     H_    0.482145 0.818250 0.033790 0.168853
H17   H     H_    0.419183 0.427393 0.165821 0.189166
H18   H     H_    0.381817 0.237487 0.778919 0.207628
H19   H     H_    0.269616 0.188634 0.939121 0.199347
N1    N     N_R   0.433240 0.222190 0.444680 -0.135602
N2    N     N_R   0.566070 0.776970 0.554790 -0.128413
O1    O     O_R   0.468120 0.366740 0.627160 -0.616802
O2    O     O_R   0.510770 0.544830 0.662520 -0.560905
O3    O     O_R   0.663880 0.410950 0.482330 -0.598387
O4    O     O_R   0.706530 0.589040 0.517700 -0.561246
O5    O     O_R   0.489230 0.455170 0.337480 -0.595359
O6    O     O_R   0.531880 0.633260 0.372840 -0.646963
O7    O     O_R   0.293470 0.410960 0.482300 -0.643740
O8    O     O_R   0.336120 0.589050 0.517670 -0.606912
O9    O     O_3   0.751037 0.738871 0.645822 -0.689902
Zn1   Zn    Zn3+2 0.471520 0.381090 0.476390 0.997350
Zn2   Zn    Zn3+2 0.528480 0.618910 0.523610 1.038208

loop_
_geom_bond_atom_site_label_1
_geom_bond_atom_site_label_2
_ccdc_geom_bond_type
C15   H5    S    
C18   C20   A    
C5    C9    A    
C2    C38   A    
O8    Zn2   S    
C29   H8    S    
C4    C32   S    
C34   H16   S    
C30   C32   S    
C12   C27   S    
C36   C37   A    
C13   C26   A    
C25   H4    S    
C28   C29   S    
C19   N2    A    
C15   C17   A    
C37   H19   S    
O4    Zn2   S    
C21   C22   A    
C2    C5    A    
C6    C7    A    
C16   O6    A    
C23   C30   S    
C27   O8    A    
H11   O9    S    
Br5   C13   S    
C1    C11   S    
C7    C8    A    
C3    C8    A    
C14   C15   A    
C22   C24   A    
C11   C36   A    
N2    Zn2   S    
C31   C33   S    
O1    Zn1   S    
N1    Zn1   S    
C7    H15   S    
C16   C35   S    
C10   C34   A    
C24   H6    S    
C12   C23   S    
C12   C29   S    
C17   C18   A    
C4    O3    A    
C20   C25   A    
Br1   C23   S    
C14   N2    A    
C33   H12   S    
C20   C21   A    
C27   O7    A    
C9    C35   A    
C28   H2    S    
C29   H7    S    
C26   N1    A    
O5    Zn1   S    
C3    C11   A    
C26   H3    S    
Br9   C33   S    
C14   O9    S    
C28   H1    S    
C1    O2    A    
C31   C32   S    
C19   C24   A    
O6    Zn2   S    
C36   H18   S    
C10   C35   A    
C37   C38   A    
C31   H10   S    
C13   C21   A    
O2    Zn2   S    
C25   N1    A    
C2    C3    A    
C4    O4    A    
Br2   C38   S    
C6    C34   A    
C9    H17   S    
Br6   C17   S    
C10   H14   S    
C30   H13   S    
Br3   C8    S    
C16   O5    A    
C28   C32   S    
O7    Zn1   S    
Br4   C22   S    
C12   C33   S    
C1    O1    A    
C18   C19   A    
Br7   C30   S    
C5    C6    A    
Br8   C31   S    
C23   H9    S    
O3    Zn1   S    
