data_mof_unit_7087.cif
_audit_creation_date              2013-03-05T15:46:17-0500
_audit_creation_method            fapswitch 2.2
_symmetry_space_group_name_H-M    P1
_symmetry_Int_Tables_number       1
_space_group_crystal_system       triclinic
_cell_length_a                    17.426444
_cell_length_b                    24.282297
_cell_length_c                    14.857167
_cell_angle_alpha                 89.966974
_cell_angle_beta                  125.861477
_cell_angle_gamma                 89.979984
_cell_volume                      5095.1020359

loop_
_atom_site_label
_atom_site_type_symbol
_atom_site_description
_atom_site_fract_x
_atom_site_fract_y
_atom_site_fract_z
_atom_type_partial_charge
C1    C     C_R   0.809657 0.625524 0.907699 -0.115859
C2    C     C_R   0.189436 0.372870 0.093705 -0.117065
C3    C     C_R   0.189443 0.627043 0.093719 -0.123877
C4    C     C_R   0.809659 0.374535 0.907729 -0.121217
C5    C     C_R   0.351112 0.152778 0.908102 -0.133737
C6    C     C_R   0.650905 0.847848 0.092032 -0.133521
C7    C     C_R   0.650929 0.152086 0.091954 -0.134519
C8    C     C_R   0.351093 0.847281 0.908194 -0.135032
H1    H     H_    0.751671 0.632118 0.822164 0.098362
H2    H     H_    0.247652 0.367610 0.179610 0.100464
H3    H     H_    0.247607 0.632243 0.179660 0.090283
H4    H     H_    0.751710 0.367923 0.822203 0.090384
H5    H     H_    0.311838 0.166575 0.822965 0.085364
H6    H     H_    0.689773 0.833967 0.177053 0.087257
H7    H     H_    0.689715 0.165921 0.176942 0.089984
H8    H     H_    0.311865 0.833525 0.823088 0.087816
N1    N     N_R   0.892620 0.603790 0.941800 -0.044929
N2    N     N_R   0.107380 0.396210 0.058200 -0.044756
N3    N     N_R   0.107380 0.603790 0.058200 -0.042385
N4    N     N_R   0.892620 0.396210 0.941800 -0.042842
N5    N     N_R   0.392620 0.103790 0.941800 -0.044428
N6    N     N_R   0.607380 0.896210 0.058200 -0.044331
N7    N     N_R   0.607380 0.103790 0.058200 -0.044156
N8    N     N_R   0.392620 0.896210 0.941800 -0.044187
C9    C     C_R   0.904081 0.376218 0.094171 -0.120361
C10   C     C_R   0.093289 0.629739 0.907954 -0.118552
C11   C     C_R   0.093237 0.370200 0.907968 -0.119354
C12   C     C_R   0.904118 0.623867 0.094143 -0.118957
C13   C     C_R   0.445975 0.848278 0.093186 -0.142187
C14   C     C_R   0.557248 0.150839 0.906510 -0.117654
C15   C     C_R   0.557174 0.849167 0.906585 -0.119876
C16   C     C_R   0.446035 0.151723 0.093089 -0.144780
H9    H     H_    0.932124 0.371446 0.180499 0.095462
H10   H     H_    0.062698 0.642635 0.824335 0.084645
H11   H     H_    0.062613 0.357308 0.824377 0.086509
H12   H     H_    0.932198 0.628688 0.180462 0.093786
H13   H     H_    0.494151 0.834505 0.178095 0.089227
H14   H     H_    0.511200 0.164288 0.821110 0.083843
H15   H     H_    0.511031 0.835779 0.821212 0.087095
H16   H     H_    0.494285 0.165443 0.177963 0.093159
N9    N     N_R   0.952210 0.397600 0.057910 -0.043380
N10   N     N_R   0.047790 0.602400 0.942090 -0.041848
N11   N     N_R   0.047790 0.397600 0.942090 -0.041734
N12   N     N_R   0.952210 0.602400 0.057910 -0.043237
N13   N     N_R   0.452210 0.897600 0.057910 -0.043442
N14   N     N_R   0.547790 0.102400 0.942090 -0.042410
N15   N     N_R   0.547790 0.897600 0.942090 -0.042322
N16   N     N_R   0.452210 0.102400 0.057910 -0.043446
C17   C     C_R   0.056428 0.545870 0.307708 -0.123409
C18   C     C_R   0.991317 0.453959 0.721885 -0.102486
C19   C     C_R   0.991404 0.546056 0.721930 -0.122729
C20   C     C_R   0.056409 0.454064 0.307714 -0.140079
C21   C     C_R   0.480056 0.046351 0.247979 -0.078080
C22   C     C_R   0.453126 0.953859 0.696280 -0.084404
C23   C     C_R   0.453105 0.046188 0.696237 -0.083609
C24   C     C_R   0.480021 0.953665 0.247959 -0.079704
H17   H     H_    0.075299 0.588025 0.335239 0.095597
H18   H     H_    0.984515 0.412396 0.693273 0.088830
H19   H     H_    0.984703 0.587637 0.693338 0.084531
H20   H     H_    0.075249 0.411880 0.335255 0.086323
H21   H     H_    0.469413 0.088985 0.258079 0.088913
H22   H     H_    0.436300 0.911606 0.668790 0.085349
H23   H     H_    0.436259 0.088459 0.668681 0.083531
H24   H     H_    0.469325 0.911035 0.258035 0.088582
N17   N     N_R   0.026300 0.529110 0.206760 -0.040362
N18   N     N_R   0.973700 0.470890 0.793240 -0.038922
N19   N     N_R   0.973700 0.529110 0.793240 -0.039781
N20   N     N_R   0.026300 0.470890 0.206760 -0.038876
N21   N     N_R   0.526300 0.029110 0.206760 -0.035206
N22   N     N_R   0.473700 0.970890 0.793240 -0.045897
N23   N     N_R   0.473700 0.029110 0.793240 -0.045996
N24   N     N_R   0.526300 0.970890 0.206760 -0.035458
C25   C     C_R   0.740101 0.454721 0.699346 -0.117659
C26   C     C_R   0.258114 0.545162 0.302646 -0.125989
C27   C     C_R   0.257675 0.454181 0.302030 -0.130235
C28   C     C_R   0.740636 0.545840 0.699675 -0.130075
C29   C     C_R   0.230418 0.953977 0.736598 -0.065712
C30   C     C_R   0.769613 0.046044 0.265989 -0.063777
C31   C     C_R   0.769647 0.953901 0.266039 -0.064555
C32   C     C_R   0.230384 0.046077 0.736549 -0.066283
H25   H     H_    0.722384 0.412348 0.672713 0.122894
H26   H     H_    0.275162 0.587543 0.329518 0.121159
H27   H     H_    0.273203 0.411659 0.328376 0.092462
H28   H     H_    0.724350 0.588335 0.673358 0.094996
H29   H     H_    0.208983 0.911577 0.713105 0.092874
H30   H     H_    0.790784 0.088409 0.290281 0.093745
H31   H     H_    0.790859 0.911515 0.290365 0.092972
H32   H     H_    0.208909 0.088498 0.713022 0.092364
N25   N     N_R   0.818530 0.472270 0.792960 -0.050034
N26   N     N_R   0.181470 0.527730 0.207040 -0.047733
N27   N     N_R   0.181470 0.472270 0.207040 -0.043650
N28   N     N_R   0.818530 0.527730 0.792960 -0.046161
N29   N     N_R   0.318530 0.972270 0.792960 -0.039375
N30   N     N_R   0.681470 0.027730 0.207040 -0.040214
N31   N     N_R   0.681470 0.972270 0.207040 -0.040415
N32   N     N_R   0.318530 0.027730 0.792960 -0.039566
C33   C     C_R   0.813613 0.637736 0.001473 0.046047
C34   C     C_R   0.184103 0.357613 0.000712 0.045166
C35   C     C_R   0.184150 0.642286 0.000714 0.044330
C36   C     C_R   0.813587 0.362374 0.001529 0.043562
C37   C     C_R   0.384253 0.184270 0.001275 0.058363
C38   C     C_R   0.620119 0.816790 0.998889 0.051605
C39   C     C_R   0.620259 0.183158 0.998783 0.048811
C40   C     C_R   0.384144 0.815782 0.001416 0.055856
C41   C     C_R   0.077649 0.499945 0.373176 0.060918
C42   C     C_R   0.012791 0.500001 0.686058 0.050161
C43   C     C_R   0.448443 0.000017 0.272542 0.028576
C44   C     C_R   0.438108 0.000036 0.632764 0.076174
C45   C     C_R   0.690118 0.500525 0.641484 0.153408
C46   C     C_R   0.306841 0.499386 0.362127 0.151977
C47   C     C_R   0.173991 0.000043 0.700230 0.092436
C48   C     C_R   0.825954 0.999956 0.303791 0.091876
Ni1   Ni    Ni4+2 0.934150 0.565840 0.869060 0.221198
Ni2   Ni    Ni4+2 0.065850 0.434160 0.130940 0.215009
Ni3   Ni    Ni4+2 0.065850 0.565840 0.130940 0.223479
Ni4   Ni    Ni4+2 0.934150 0.434160 0.869060 0.233278
Ni5   Ni    Ni4+2 0.434150 0.065840 0.869060 0.220696
Ni6   Ni    Ni4+2 0.565850 0.934160 0.130940 0.231486
Ni7   Ni    Ni4+2 0.565850 0.065840 0.130940 0.233765
Ni8   Ni    Ni4+2 0.434150 0.934160 0.869060 0.222530
C49   C     C_3   0.530951 0.480791 0.604274 -0.280292
C50   C     C_3   0.465929 0.519054 0.401212 -0.276794
C51   C     C_3   0.468705 0.447282 0.495113 -0.322499
C52   C     C_3   0.528048 0.552574 0.510274 -0.322840
C53   C     C_3   0.007960 0.954279 0.560077 -0.302842
C54   C     C_3   0.991210 0.045716 0.444689 -0.303400
C55   C     C_3   0.991401 0.954214 0.445046 -0.302427
C56   C     C_3   0.007769 0.045790 0.559719 -0.301395
C57   C     C_3   0.467869 0.531558 0.547724 0.458713
C58   C     C_3   0.528800 0.468288 0.457575 0.456446
C59   C     C_3   0.933907 0.000023 0.519512 0.462251
C60   C     C_3   0.065106 0.999976 0.485046 0.467972
H33   H     H_    0.559952 0.465938 0.689366 0.162156
H34   H     H_    0.437183 0.533918 0.316192 0.162952
H35   H     H_    0.443620 0.404438 0.488358 0.151364
H36   H     H_    0.553069 0.595433 0.517017 0.151897
H37   H     H_    0.015602 0.917786 0.609794 0.159916
H38   H     H_    0.983595 0.082205 0.394976 0.159294
H39   H     H_    0.983933 0.917664 0.395628 0.159603
H40   H     H_    0.015263 0.082342 0.609141 0.160513
C61   C     C_3   0.406566 0.498900 0.441398 0.006503
C62   C     C_3   0.590180 0.500940 0.563916 0.003669
C63   C     C_3   0.917533 0.999952 0.406524 0.005169
C64   C     C_3   0.081712 0.000047 0.598229 0.004449
C65   C     C_R   0.659144 0.313909 0.900732 -0.154699
C66   C     C_R   0.339244 0.689689 0.102445 -0.157303
C67   C     C_R   0.339158 0.310078 0.102422 -0.103982
C68   C     C_R   0.659379 0.686485 0.900555 -0.103105
C69   C     C_R   0.292159 0.731985 0.901641 -0.152117
C70   C     C_R   0.713629 0.266524 0.100738 -0.151619
C71   C     C_R   0.713078 0.733169 0.100664 -0.159830
C72   C     C_R   0.292380 0.268211 0.901568 -0.160825
H41   H     H_    0.636712 0.331174 0.821762 0.109147
H42   H     H_    0.358969 0.674537 0.181733 0.109367
H43   H     H_    0.358629 0.324929 0.181726 0.141508
H44   H     H_    0.637435 0.669690 0.821523 0.146053
H45   H     H_    0.271489 0.747828 0.822390 0.110390
H46   H     H_    0.737378 0.249026 0.179940 0.111433
H47   H     H_    0.736524 0.750458 0.179871 0.108596
H48   H     H_    0.271791 0.252477 0.822317 0.107471
C73   C     C_R   0.240885 0.688457 0.901371 -0.152186
C74   C     C_R   0.761253 0.312311 0.101680 -0.150287
C75   C     C_R   0.760836 0.687436 0.101525 -0.155204
C76   C     C_R   0.241007 0.311692 0.901354 -0.154500
C77   C     C_R   0.612104 0.267678 0.899662 -0.162115
C78   C     C_R   0.390148 0.733365 0.102744 -0.163522
C79   C     C_R   0.390271 0.266542 0.102666 -0.154615
C80   C     C_R   0.612100 0.732550 0.899577 -0.156670
H49   H     H_    0.183052 0.672034 0.822257 0.106807
H50   H     H_    0.819875 0.327929 0.181100 0.111987
H51   H     H_    0.819265 0.671585 0.180919 0.110609
H52   H     H_    0.183194 0.328238 0.822268 0.106494
H53   H     H_    0.555748 0.250803 0.820220 0.108150
H54   H     H_    0.446178 0.750542 0.181996 0.108820
H55   H     H_    0.446284 0.249274 0.181917 0.118312
H56   H     H_    0.555966 0.749612 0.820132 0.118182
C81   C     C_R   0.257589 0.671538 0.001502 0.139219
C82   C     C_R   0.740940 0.332278 0.001542 0.137042
C83   C     C_R   0.740901 0.667824 0.001389 0.123591
C84   C     C_R   0.257572 0.328387 0.001494 0.124754
C85   C     C_R   0.645465 0.240661 0.999558 0.132895
C86   C     C_R   0.359813 0.758437 0.002108 0.133401
C87   C     C_R   0.360026 0.241634 0.001996 0.123312
C88   C     C_R   0.645158 0.759271 0.999560 0.124021
C89   C     C_R   0.084057 0.450032 0.607054 -0.159759
C90   C     C_R   0.110388 0.549757 0.535662 -0.107739
C91   C     C_R   0.110135 0.450063 0.535566 -0.164588
C92   C     C_R   0.084268 0.549847 0.607124 -0.182883
C93   C     C_R   0.392971 0.950194 0.462584 -0.120630
C94   C     C_R   0.392292 0.049865 0.368936 -0.154629
C95   C     C_R   0.392350 0.950220 0.369076 -0.154611
C96   C     C_R   0.392936 0.049905 0.462462 -0.120924
H57   H     H_    0.075606 0.410757 0.634531 0.104949
H58   H     H_    0.118251 0.589005 0.507564 0.117532
H59   H     H_    0.117749 0.410792 0.507368 0.107486
H60   H     H_    0.075971 0.589133 0.634663 0.107364
H61   H     H_    0.394299 0.910854 0.497428 0.106346
H62   H     H_    0.393412 0.089145 0.335515 0.110250
H63   H     H_    0.393535 0.910937 0.335781 0.110589
H64   H     H_    0.394245 0.089243 0.497222 0.104679
C97   C     C_R   0.109763 0.499911 0.487965 0.160657
C98   C     C_R   0.060564 0.499965 0.632584 0.144152
C99   C     C_R   0.403816 0.000035 0.330571 0.133168
C100  C     C_R   0.403610 0.000049 0.516372 0.181155
N33   N     N_R   0.434249 0.565578 0.598818 0.230236
O1    O     O_R   0.494910 0.591582 0.690717 -0.422315
O2    O     O_R   0.344520 0.568084 0.556399 -0.430201
N34   N     N_R   0.561677 0.434128 0.405839 0.230218
O3    O     O_R   0.500490 0.407953 0.314379 -0.419603
O4    O     O_R   0.651177 0.431586 0.447235 -0.416807
N35   N     N_R   0.862936 0.000041 0.542146 0.230325
O5    O     O_R   0.890122 0.000118 0.644437 -0.389457
O6    O     O_R   0.772984 0.999956 0.461872 -0.416710
N36   N     N_R   0.135420 0.999960 0.461442 0.227449
O7    O     O_R   0.107641 0.999868 0.358919 -0.395354
O8    O     O_R   0.225412 0.000078 0.541148 -0.442363

loop_
_geom_bond_atom_site_label_1
_geom_bond_atom_site_label_2
_geom_bond_distance
_ccdc_geom_bond_type
C12   C33   1.396921 A    
C60   C64   1.530139 S    
C40   C86   1.457502 S    
C72   H48   1.080144 S    
C11   C34   1.393627 A    
C2    N2    1.326453 A    
C16   N16   1.336304 A    
N20   Ni2   1.857364 S    
C78   C86   1.399390 A    
N9    Ni2   1.836282 S    
C36   C82   1.462091 S    
C28   H28   1.080522 S    
C31   H31   1.081359 S    
N4    N9    1.398772 A    
N1    Ni1   1.859562 S    
C71   C88   1.405091 A    
C65   C77   1.384844 A    
N33   O1    1.300300 A    
C60   N36   1.458714 S    
C43   C99   1.460702 S    
C10   N10   1.340799 A    
N18   Ni4   1.856970 S    
C31   C48   1.372865 A    
N8    N13   1.398772 A    
C48   C63   1.422166 S    
C95   H63   1.080509 S    
C35   C81   1.457941 S    
N7    Ni7   1.859196 S    
N36   O8    1.298408 A    
C94   C99   1.401439 A    
C33   C83   1.461792 S    
C57   C61   1.513402 S    
C53   C64   1.535060 S    
C77   H53   1.080830 S    
C6    N6    1.326278 A    
C1    C33   1.386253 A    
C54   C63   1.534136 S    
C17   H17   1.079987 S    
C14   H14   1.080218 S    
C80   H56   1.080771 S    
C29   N29   1.323116 A    
C74   H50   1.080831 S    
C29   C47   1.373349 A    
C53   C59   1.532762 S    
C55   C60   1.531384 S    
C50   H34   1.111198 S    
N5    Ni5   1.859562 S    
C20   H20   1.079975 S    
C17   N17   1.330011 A    
C21   H21   1.077639 S    
C67   C84   1.403019 A    
C10   H10   1.071964 S    
C79   C87   1.399386 A    
N12   Ni3   1.835008 S    
N22   Ni8   1.856970 S    
N34   O3    1.300474 A    
C24   N24   1.333545 A    
C23   H23   1.079752 S    
C65   C82   1.404937 A    
C94   C96   1.382984 A    
C24   H24   1.077644 S    
C3    N3    1.326302 A    
N22   N23   1.413713 A    
C66   C81   1.403236 A    
N29   Ni8   1.876885 S    
C54   C60   1.531317 S    
C32   N32   1.323301 A    
C49   C51   1.552383 S    
C75   H51   1.080860 S    
N28   Ni1   1.878221 S    
C5    H5    1.079658 S    
C76   C84   1.399568 A    
N3    N10   1.398772 A    
C27   N27   1.323329 A    
C10   C35   1.394026 A    
N5    N16   1.398707 A    
C73   H49   1.081298 S    
C30   H30   1.081352 S    
C7    H7    1.079251 S    
N18   N19   1.413713 A    
C66   C78   1.381211 A    
N25   Ni4   1.876885 S    
C21   N21   1.333415 A    
C8    H8    1.079618 S    
N7    N14   1.398772 A    
C7    C39   1.379418 A    
C69   H45   1.080086 S    
C6    C38   1.379576 A    
N17   Ni3   1.856971 S    
C52   C62   1.538287 S    
C95   C99   1.401321 A    
C26   H26   1.080937 S    
C25   H25   1.080780 S    
C14   N14   1.338496 A    
C70   C85   1.405207 A    
N33   O2    1.300444 A    
C93   C100  1.402218 A    
C70   C74   1.382806 A    
C5    C37   1.378177 A    
C89   H57   1.080713 S    
C78   H54   1.080550 S    
N8    Ni8   1.859196 S    
C52   H36   1.110174 S    
C18   H18   1.074651 S    
C15   C38   1.391985 A    
N32   Ni5   1.878221 S    
C3    H3    1.075896 S    
C37   C87   1.457228 S    
C9    N9    1.338899 A    
N4    Ni4   1.859196 S    
N23   Ni5   1.857362 S    
N36   O7    1.300211 A    
C28   C45   1.357666 A    
C55   C63   1.534007 S    
C22   H22   1.079734 S    
C80   C88   1.399363 A    
N13   Ni6   1.836282 S    
N21   Ni7   1.856971 S    
C19   H19   1.074634 S    
N24   Ni6   1.857364 S    
C90   C97   1.399737 A    
C13   C40   1.386793 A    
C13   N13   1.336765 A    
C72   C87   1.403543 A    
C71   H47   1.079530 S    
C89   C98   1.401331 A    
C14   C39   1.392521 A    
N21   N24   1.413713 A    
C66   H42   1.079895 S    
C25   N25   1.325852 A    
C24   C43   1.392330 A    
C31   N31   1.322649 A    
C3    C35   1.380195 A    
N11   Ni4   1.835006 S    
C42   C98   1.448847 S    
C57   N33   1.457181 S    
N30   Ni7   1.876884 S    
C21   C43   1.392148 A    
C9    C36   1.397184 A    
C41   C97   1.450333 S    
N35   O5    1.300200 A    
C22   N22   1.330568 A    
C58   N34   1.457230 S    
N3    Ni3   1.859196 S    
N17   N20   1.413713 A    
C11   H11   1.072019 S    
C51   C61   1.538124 S    
C55   H39   1.110198 S    
C96   C100  1.402110 A    
C1    H1    1.075529 S    
C19   N19   1.330236 A    
N26   Ni3   1.876884 S    
N25   N28   1.346699 A    
C53   H37   1.110166 S    
C8    C40   1.377979 A    
C92   H60   1.080748 S    
C72   C76   1.382847 A    
C67   C79   1.380772 A    
C47   C64   1.423809 S    
C28   N28   1.323424 A    
N34   O4    1.300242 A    
N15   Ni8   1.835006 S    
N35   O6    1.299680 A    
C20   C41   1.379820 A    
C68   C83   1.404645 A    
C71   C75   1.383053 A    
C16   H16   1.080032 S    
C4    C36   1.386268 A    
C51   C58   1.533717 S    
C75   C83   1.398658 A    
C69   C86   1.403685 A    
C13   H13   1.080057 S    
C76   H52   1.081316 S    
C69   C73   1.382759 A    
C34   C84   1.457689 S    
C2    H2    1.075707 S    
C56   C59   1.532823 S    
C18   C42   1.380693 A    
N10   Ni1   1.836280 S    
C59   C63   1.529115 S    
N2    Ni2   1.859562 S    
C94   H62   1.080502 S    
C79   H55   1.080511 S    
C15   H15   1.080173 S    
C93   H61   1.080005 S    
N6    Ni6   1.859562 S    
C54   H38   1.110203 S    
C27   C46   1.357100 A    
C54   C56   1.557643 S    
C38   C88   1.461419 S    
C70   H46   1.079447 S    
C91   H59   1.080702 S    
N31   Ni6   1.878220 S    
C39   C85   1.461938 S    
C49   C62   1.545770 S    
C90   H58   1.080727 S    
C49   C57   1.532885 S    
C20   N20   1.330033 A    
C26   C46   1.362537 A    
N16   Ni7   1.835008 S    
C17   C41   1.379648 A    
C18   N18   1.329998 A    
C25   C45   1.362212 A    
C67   H43   1.079624 S    
N29   N32   1.346699 A    
C91   C97   1.399640 A    
C1    N1    1.329038 A    
C56   C64   1.534930 S    
N27   Ni2   1.878220 S    
C22   C44   1.387639 A    
C23   C44   1.387861 A    
C46   C61   1.417488 S    
C77   C85   1.399569 A    
C26   N26   1.326263 A    
N19   Ni1   1.857362 S    
N1    N12   1.398707 A    
C65   H41   1.080319 S    
C6    H6    1.079301 S    
C44   C100  1.460711 S    
N2    N11   1.398707 A    
C59   N35   1.459442 S    
C27   H27   1.080644 S    
N26   N27   1.346699 A    
C7    N7    1.325939 A    
C50   C52   1.551408 S    
C2    C34   1.380190 A    
C30   N30   1.322460 A    
C19   C42   1.380841 A    
C68   C80   1.384028 A    
C32   C47   1.373539 A    
C92   C98   1.401346 A    
C8    N8    1.327609 A    
C12   N12   1.338840 A    
C52   C57   1.534106 S    
N6    N15   1.398707 A    
C96   H64   1.080031 S    
C56   H40   1.110162 S    
N30   N31   1.346699 A    
C58   C62   1.513578 S    
C73   C81   1.399447 A    
C74   C82   1.398494 A    
C89   C91   1.378446 A    
C29   H29   1.081344 S    
C4    N4    1.329192 A    
C11   N11   1.340642 A    
N14   Ni5   1.836280 S    
C5    N5    1.327897 A    
C12   H12   1.078318 S    
C32   H32   1.081351 S    
C51   H35   1.110194 S    
C53   C55   1.557645 S    
C16   C37   1.386344 A    
C15   N15   1.337825 A    
C68   H44   1.079760 S    
C50   C61   1.545896 S    
C49   H33   1.111093 S    
C4    H4    1.075677 S    
C90   C92   1.378644 A    
C50   C58   1.531034 S    
C23   N23   1.330776 A    
C30   C48   1.372674 A    
C45   C62   1.417629 S    
C9    H9    1.078286 S    
C93   C95   1.382953 A    
