data_mof_unit_57954.cif
_audit_creation_date              2013-03-05T15:46:52-0500
_audit_creation_method            fapswitch 2.2
_symmetry_space_group_name_H-M    P1
_symmetry_Int_Tables_number       1
_space_group_crystal_system       triclinic
_cell_length_a                    14.851045
_cell_length_b                    15.009045
_cell_length_c                    14.890205
_cell_angle_alpha                 109.045916
_cell_angle_beta                  109.390317
_cell_angle_gamma                 109.213653
_cell_volume                      2578.77262202

loop_
_atom_site_label
_atom_site_type_symbol
_atom_site_description
_atom_site_fract_x
_atom_site_fract_y
_atom_site_fract_z
_atom_type_partial_charge
C1    C     C_R   0.195484 0.995964 0.905777 -0.134615
C2    C     C_R   0.748674 0.934321 0.026309 -0.095602
H1    H     H_    0.168133 0.021795 0.847674 0.089549
H2    H     H_    0.759700 0.882460 0.059506 0.091709
N1    N     N_R   0.293810 0.002730 0.945950 -0.044340
N2    N     N_R   0.706190 0.997270 0.054050 -0.034680
C3    C     C_R   0.801333 0.207472 0.300140 0.265771
C4    C     C_R   0.241650 0.774976 0.684683 0.319455
N3    N     N_R   0.706160 0.152130 0.208910 -0.068383
N4    N     N_R   0.293840 0.847870 0.791090 -0.068360
C5    C     C_R   0.406610 0.972693 0.222014 -0.106914
C6    C     C_R   0.591303 0.095965 0.791238 -0.120493
H3    H     H_    0.321334 0.939960 0.199957 0.096862
H4    H     H_    0.675220 0.154679 0.823044 0.090662
N5    N     N_R   0.443140 0.945920 0.152090 -0.045760
N6    N     N_R   0.556860 0.054080 0.847910 -0.045879
C7    C     C_R   0.588558 0.313622 0.059825 -0.093194
C8    C     C_R   0.411170 0.704077 0.009050 -0.110053
H5    H     H_    0.672594 0.377908 0.108101 0.094177
H6    H     H_    0.327665 0.657313 0.988823 0.086764
N7    N     N_R   0.556830 0.208940 0.002760 -0.043429
N8    N     N_R   0.443170 0.791060 0.997240 -0.045707
C9    C     C_R   0.589616 0.065615 0.313399 -0.037350
C10   C     C_R   0.410185 0.010601 0.703855 -0.045637
H7    H     H_    0.673248 0.120367 0.376392 0.140572
H8    H     H_    0.329792 0.999756 0.661106 0.137652
N9    N     N_R   0.556790 0.002750 0.208910 -0.032215
N10   N     N_R   0.443210 0.997250 0.791090 -0.047485
C11   C     C_R   0.405785 0.218806 0.975635 -0.116126
C12   C     C_R   0.592713 0.792093 0.094769 -0.086794
H9    H     H_    0.321567 0.192475 0.953281 0.114661
H10   H     H_    0.677711 0.824577 0.148130 0.116207
N11   N     N_R   0.443180 0.152110 0.945950 -0.045187
N12   N     N_R   0.556820 0.847890 0.054050 -0.045557
C13   C     C_R   0.800696 0.302035 0.211674 -0.197881
C14   C     C_R   0.253058 0.687574 0.781128 -0.184553
H11   H     H_    0.828466 0.359346 0.184859 0.120396
H12   H     H_    0.243223 0.625526 0.804607 0.130652
N13   N     N_R   0.706170 0.208950 0.152090 -0.056014
N14   N     N_R   0.293830 0.791050 0.847910 -0.056266
C15   C     C_R   0.196322 0.904967 0.996828 -0.140068
C16   C     C_R   0.748251 0.025303 0.933399 -0.123300
H13   H     H_    0.169553 0.844565 0.020400 0.090090
H14   H     H_    0.758306 0.056951 0.879874 0.099437
N15   N     N_R   0.293800 0.945910 0.002760 -0.042196
N16   N     N_R   0.706200 0.054090 0.997240 -0.042838
C17   C     C_R   0.131917 0.933884 0.935135 0.056289
C18   C     C_R   0.773851 0.948128 0.948421 0.030394
C19   C     C_R   0.860327 0.302552 0.305158 -0.019907
C20   C     C_R   0.218447 0.674539 0.677712 -0.032307
C21   C     C_R   0.497205 0.049578 0.324357 0.012958
C22   C     C_R   0.500497 0.070316 0.700244 0.036783
C23   C     C_R   0.493990 0.322077 0.043667 0.082275
C24   C     C_R   0.503355 0.701836 0.070996 0.089386
Ni1   Ni    Ni4+2 0.369690 0.999990 0.869700 0.225666
Ni2   Ni    Ni4+2 0.630310 0.000010 0.130300 0.266294
Ni3   Ni    Ni4+2 0.369670 0.869670 0.000000 0.211518
Ni4   Ni    Ni4+2 0.630330 0.130330 0.000000 0.211974
C25   C     C_R   0.192751 0.196397 0.736771 -0.390913
C26   C     C_R   0.858416 0.888182 0.357198 -0.369752
H15   H     H_    0.191613 0.162853 0.659825 0.164089
H16   H     H_    0.888430 0.964174 0.427178 0.218118
C27   C     C_R   0.285941 0.291467 0.825598 0.349330
C28   C     C_R   0.751817 0.805158 0.313026 0.321393
C29   C     C_R   0.290130 0.334255 0.927512 -0.001359
C30   C     C_R   0.710228 0.705724 0.220866 -0.009958
C31   C     C_R   0.196289 0.287834 0.935414 -0.302293
C32   C     C_R   0.778561 0.689555 0.178416 -0.301142
H17   H     H_    0.196945 0.322171 0.012057 0.167470
H18   H     H_    0.748431 0.613317 0.108196 0.175103
C33   C     C_R   0.102835 0.193905 0.845800 -0.220348
C34   C     C_R   0.885739 0.771017 0.225376 -0.185876
H19   H     H_    0.031917 0.157645 0.853961 0.146656
H20   H     H_    0.937419 0.756224 0.192306 0.150289
C35   C     C_R   0.102514 0.143622 0.748084 0.592290
C36   C     C_R   0.926369 0.871623 0.313462 0.570726
C37   C     C_R   0.399136 0.526449 0.051302 -0.205726
C38   C     C_R   0.585142 0.518641 0.159699 -0.230001
H21   H     H_    0.323884 0.525729 0.009555 0.126104
H22   H     H_    0.657430 0.516651 0.206172 0.135269
C39   C     C_R   0.501543 0.618920 0.104073 0.096772
C40   C     C_R   0.487842 0.422182 0.080030 0.066759
C41   C     C_R   0.596452 0.616751 0.165926 0.126171
C42   C     C_R   0.392233 0.426830 0.026136 0.091427
C43   C     C_R   0.044476 0.456419 0.388510 -0.169917
C44   C     C_R   0.057244 0.501636 0.591570 -0.165162
H23   H     H_    0.038077 0.439065 0.309412 0.123922
H24   H     H_    0.057515 0.520008 0.668345 0.121429
C45   C     C_R   0.134893 0.547817 0.481905 -0.100950
C46   C     C_R   0.968701 0.411568 0.499839 -0.115173
H25   H     H_    0.198857 0.601806 0.475451 0.154766
H26   H     H_    0.902870 0.362267 0.507783 0.139861
C47   C     C_R   0.138719 0.571682 0.582588 0.167830
C48   C     C_R   0.961160 0.389993 0.398420 0.169448
C49   C     C_R   0.596845 0.160960 0.621411 -0.126233
C50   C     C_R   0.397667 0.054763 0.428830 -0.148234
H27   H     H_    0.675255 0.200748 0.694145 0.110798
H28   H     H_    0.319327 0.011151 0.355177 0.123267
C51   C     C_R   0.595802 0.156832 0.526707 -0.138005
C52   C     C_R   0.398618 0.059074 0.523438 -0.137130
H29   H     H_    0.673682 0.194272 0.530356 0.119726
H30   H     H_    0.320696 0.017966 0.518368 0.147715
C53   C     C_R   0.496616 0.093301 0.427518 0.130208
C54   C     C_R   0.498636 0.102720 0.617289 0.141449
C55   C     C_R   0.965143 0.842705 0.944442 -0.159062
C56   C     C_R   0.869603 0.938377 0.840949 -0.134003
H31   H     H_    0.001232 0.806823 0.987057 0.109523
H32   H     H_    0.835711 0.977833 0.801912 0.128991
C57   C     C_R   0.872466 0.843570 0.944923 -0.151361
C58   C     C_R   0.961944 0.937034 0.840172 -0.190414
H33   H     H_    0.840772 0.808044 0.987712 0.114323
H34   H     H_    0.995511 0.974915 0.800333 0.159110
C59   C     C_R   0.832683 0.903013 0.904490 0.134483
C60   C     C_R   0.016595 0.899530 0.901708 0.126544
Br1   Br    Br    0.407254 0.357317 0.805672 -0.581558
Br2   Br    Br    0.664068 0.832637 0.376549 -0.541362
Br3   Br    Br    0.861995 0.142946 0.376858 -0.676064
Br4   Br    Br    0.171610 0.796074 0.566054 -0.668824
O1    O     O_3   0.011332 0.045109 0.665008 -0.636976
C61   C     C_3   0.042054 0.970279 0.617044 0.204801
H35   H     H_    0.120882 0.981954 0.674849 0.105764
H36   H     H_    0.051670 0.978972 0.549349 0.158096
C62   C     C_3   0.953294 0.855446 0.572499 -0.772764
H37   H     H_    0.870833 0.847736 0.537040 0.284638
H38   H     H_    0.957941 0.796993 0.507954 0.251520
H39   H     H_    0.964325 0.834271 0.638696 0.231758
O2    O     O_3   0.035839 0.946856 0.360752 -0.645673
C63   C     C_3   0.048626 0.049083 0.376321 0.227217
H40   H     H_    0.042206 0.090400 0.449004 0.155042
H41   H     H_    0.987340 0.042180 0.302595 0.140355
C64   C     C_3   0.162209 0.119130 0.397590 -0.841137
H42   H     H_    0.172449 0.080616 0.326804 0.243798
H43   H     H_    0.173246 0.199941 0.410054 0.233453
H44   H     H_    0.225645 0.129748 0.472036 0.260505

loop_
_geom_bond_atom_site_label_1
_geom_bond_atom_site_label_2
_geom_bond_distance
_ccdc_geom_bond_type
N11   Ni1   1.881060 S    
C17   C60   1.460151 S    
C51   C53   1.404344 A    
C27   C29   1.412144 A    
N12   Ni2   1.881060 S    
C28   Br2   1.918487 S    
C4    C20   1.390741 A    
N5    Ni3   1.864073 S    
C3    Br3   1.915067 S    
C30   C32   1.405771 A    
C52   C54   1.404329 A    
C34   C36   1.395253 A    
C64   H44   1.110936 S    
C63   H40   1.111013 S    
N8    Ni3   1.852306 S    
C4    Br4   1.914232 S    
C62   H37   1.108775 S    
C64   H43   1.111075 S    
C49   C54   1.400543 A    
C55   H31   1.080337 S    
N15   Ni3   1.851842 S    
C56   H32   1.080977 S    
C1    N1    1.335366 A    
N4    N14   1.383482 A    
C13   H11   1.081402 S    
C10   H8    1.075626 S    
C10   C22   1.375945 A    
C57   H33   1.080499 S    
C49   C51   1.385815 A    
C62   H38   1.109838 S    
N7    N11   1.387574 A    
C21   C53   1.464616 S    
C11   N11   1.321358 A    
N3    N13   1.383482 A    
C8    H6    1.078143 S    
C26   H16   1.080129 S    
C16   N16   1.335688 A    
C39   C41   1.422599 A    
C30   C41   1.480409 S    
C5    N5    1.336158 A    
C38   C41   1.393892 A    
C9    C21   1.387422 A    
C6    N6    1.337972 A    
C29   C31   1.401715 A    
C50   H28   1.080651 S    
C13   C19   1.375457 A    
C9    N9    1.335713 A    
C19   C48   1.424595 S    
C45   H25   1.083076 S    
C58   C60   1.399540 A    
C31   C33   1.396067 A    
N6    N10   1.387575 A    
C61   C62   1.525153 S    
C57   C59   1.403167 A    
C27   Br1   1.919660 S    
C43   H23   1.083147 S    
N16   Ni4   1.851841 S    
C15   H13   1.079910 S    
C2    N2    1.331181 A    
C25   C35   1.410685 A    
C16   H14   1.078221 S    
C6    C22   1.381025 A    
N10   Ni1   1.846807 S    
C61   H36   1.105730 S    
C46   C48   1.393787 A    
C37   H21   1.077905 S    
N5    N9    1.387575 A    
N8    N12   1.387575 A    
C25   H15   1.082389 S    
C12   N12   1.328043 A    
C44   H24   1.083245 S    
C12   H10   1.067035 S    
C55   C60   1.401538 A    
C14   N14   1.319395 A    
C35   O1    1.387914 S    
C3    C19   1.368832 A    
C34   H20   1.082869 S    
C44   C46   1.361814 A    
C33   H19   1.082164 S    
C43   C45   1.386165 A    
N9    Ni2   1.846805 S    
C1    C17   1.382523 A    
C29   C42   1.479670 S    
C16   C18   1.392393 A    
C56   C59   1.399352 A    
C37   C42   1.376396 A    
C2    C18   1.386210 A    
N13   Ni4   1.864702 S    
N1    N15   1.383362 A    
C26   C36   1.414264 A    
C7    N7    1.337236 A    
C23   C40   1.466667 S    
C1    H1    1.073793 S    
C28   C30   1.409187 A    
C13   N13   1.335249 A    
C44   C47   1.396144 A    
C12   C24   1.383260 A    
C43   C48   1.397166 A    
C38   C40   1.398310 A    
C46   H26   1.084024 S    
C37   C39   1.400759 A    
C32   C34   1.392644 A    
C52   H30   1.080366 S    
C15   C17   1.377359 A    
N3    Ni2   1.881331 S    
N6    Ni4   1.864076 S    
N4    Ni1   1.881331 S    
C4    N4    1.342842 A    
C51   H29   1.080289 S    
C6    H4    1.080218 S    
C40   C42   1.417783 A    
C64   H42   1.111249 S    
C63   C64   1.520440 S    
C7    C23   1.399742 A    
C14   C20   1.373088 A    
C61   H35   1.113335 S    
C56   C58   1.381922 A    
C3    N3    1.322486 A    
C55   C57   1.383042 A    
C22   C54   1.463317 S    
N14   Ni3   1.864705 S    
N2    N16   1.383362 A    
C8    N8    1.325951 A    
N1    Ni1   1.846689 S    
C10   N10   1.333976 A    
N2    Ni2   1.846690 S    
C62   H39   1.109476 S    
C63   H41   1.115579 S    
O1    C61   1.417670 S    
C49   H27   1.080896 S    
C20   C47   1.430964 S    
C25   C27   1.397800 A    
C26   C28   1.402467 A    
C14   H12   1.080601 S    
N7    Ni4   1.852308 S    
C11   H9    1.069429 S    
C33   C35   1.401070 A    
C5    H3    1.078009 S    
C11   C23   1.379257 A    
C2    H2    1.076250 S    
C50   C52   1.384056 A    
C7    H5    1.079043 S    
C38   H22   1.083325 S    
C9    H7    1.072071 S    
C45   C47   1.399513 A    
C58   H34   1.074058 S    
C5    C21   1.390363 A    
C8    C24   1.392219 A    
C32   H18   1.083649 S    
C50   C53   1.400501 A    
C36   O2    1.388012 S    
C15   N15   1.332399 A    
C31   H17   1.083308 S    
C24   C39   1.476092 S    
O2    C63   1.410970 S    
C18   C59   1.459306 S    
