data_mof_unit_34647.cif
_audit_creation_date              2012-12-10T20:44:00-0500
_audit_creation_method            fapswitch 2.2
_symmetry_space_group_name_H-M    P1
_symmetry_Int_Tables_number       1
_space_group_crystal_system       triclinic
_cell_length_a                    17.540103
_cell_length_b                    10.68791
_cell_length_c                    9.846968
_cell_angle_alpha                 90.040851
_cell_angle_beta                  89.961739
_cell_angle_gamma                 89.938923
_cell_volume                      1845.98003557

loop_
_atom_site_label
_atom_site_type_symbol
_atom_type_description
_atom_site_fract_x
_atom_site_fract_y
_atom_site_fract_z
_atom_type_partial_charge
C1    C     C_R   0.498043 0.259962 0.500071 0.901006
C2    C     C_R   0.885710 0.539068 0.497634 0.167042
C3    C     C_1   0.965879 0.544693 0.498770 -0.075855
C4    C     C_1   0.033533 0.544276 0.499481 -0.075148
C5    C     C_R   0.152312 0.531516 0.623245 -0.168665
C6    C     C_R   0.230923 0.517997 0.623593 -0.205155
C7    C     C_R   0.270707 0.510467 0.500075 -0.030262
C8    C     C_R   0.231077 0.516804 0.376434 -0.205398
C9    C     C_R   0.152492 0.530330 0.376499 -0.168443
C10   C     C_R   0.113697 0.537768 0.499786 0.169583
C11   C     C_R   0.488661 0.063515 0.623439 0.076906
C12   C     C_R   0.353378 0.501229 0.500078 0.858806
C13   C     C_R   0.487136 0.128571 0.500862 -0.111323
C14   C     C_R   0.471945 0.064636 0.379444 -0.226250
C15   C     C_R   0.471773 0.935276 0.379362 -0.225257
C16   C     C_R   0.486600 0.871321 0.500836 -0.101330
C17   C     C_R   0.487646 0.935978 0.623452 0.111165
C18   C     C_3   0.540229 0.925967 0.742649 -0.516445
C19   C     C_3   0.541449 0.068557 0.743605 -0.204733
C20   C     C_R   0.435141 0.471611 0.071295 0.219924
C21   C     C_R   0.562061 0.538806 0.071922 -0.146112
C22   C     C_R   0.562070 0.538784 0.927911 -0.151395
C23   C     C_R   0.497953 0.740031 0.500054 0.881642
C24   C     C_R   0.435065 0.472037 0.928640 0.219102
C25   C     C_3   0.391608 0.352513 0.922220 -0.514592
C26   C     C_3   0.392178 0.351432 0.076426 -0.516621
C27   C     C_R   0.646494 0.501665 0.499924 0.877991
C28   C     C_R   0.845351 0.566404 0.615959 -0.185891
C29   C     C_R   0.766752 0.553334 0.617080 -0.216213
C30   C     C_R   0.728864 0.512422 0.499700 -0.017132
C31   C     C_R   0.770029 0.485916 0.380981 -0.214324
C32   C     C_R   0.848624 0.499004 0.380225 -0.174907
H1    H     H_    0.874632 0.596487 0.707187 0.133130
H2    H     H_    0.465050 0.886401 0.283697 0.172236
H3    H     H_    0.511059 0.885655 0.832806 0.198942
H4    H     H_    0.595336 0.880134 0.716821 0.197891
H5    H     H_    0.512206 0.107317 0.834635 0.140539
H6    H     H_    0.612569 0.568292 0.126021 0.150080
H7    H     H_    0.612588 0.568160 0.873725 0.144741
H8    H     H_    0.333717 0.365738 0.878758 0.197252
H9    H     H_    0.425075 0.275189 0.876030 0.209729
H10   H     H_    0.334554 0.363153 0.121648 0.197678
H11   H     H_    0.735769 0.575309 0.709257 0.143430
H12   H     H_    0.426478 0.273714 0.119799 0.207728
H13   H     H_    0.741651 0.454281 0.289524 0.148493
H14   H     H_    0.880489 0.476776 0.288977 0.130939
H15   H     H_    0.121665 0.536217 0.718740 0.129988
H16   H     H_    0.260363 0.514041 0.720115 0.150220
H17   H     H_    0.260615 0.511876 0.279981 0.150270
H18   H     H_    0.121991 0.534098 0.280882 0.130077
H19   H     H_    0.465272 0.113377 0.283885 0.162703
N1    N     N_R   0.499490 0.499140 0.142800 -0.106118
N2    N     N_R   0.499490 0.499180 0.857150 -0.106381
O1    O     O_R   0.500010 0.316790 0.614690 -0.615127
O2    O     O_R   0.500000 0.316760 0.385350 -0.622374
O3    O     O_R   0.389120 0.500020 0.614710 -0.621336
O4    O     O_R   0.389110 0.499990 0.385370 -0.621420
O5    O     O_R   0.500000 0.683240 0.614650 -0.613719
O6    O     O_R   0.499990 0.683210 0.385310 -0.622235
O7    O     O_R   0.610890 0.500010 0.614630 -0.620638
O8    O     O_R   0.610880 0.499980 0.385290 -0.627610
Zn1   Zn    Zn3+2 0.500010 0.500020 0.653130 0.943879
Zn2   Zn    Zn3+2 0.499990 0.499980 0.346870 0.940111
C33   C     C_R   0.619039 0.126337 0.716527 0.192688
C34   C     C_R   0.664045 0.090526 0.604338 -0.168298
C35   C     C_R   0.735197 0.145758 0.582506 -0.160046
C36   C     C_R   0.762287 0.236676 0.672149 -0.105444
C37   C     C_R   0.717920 0.273619 0.783035 -0.137471
C38   C     C_R   0.646624 0.218965 0.805145 -0.114814
H20   H     H_    0.644114 0.020191 0.533658 0.139033
H21   H     H_    0.769414 0.117914 0.496097 0.138133
H22   H     H_    0.817487 0.279057 0.655186 0.144208
H23   H     H_    0.738702 0.344894 0.851778 0.120761
H24   H     H_    0.612937 0.249063 0.891451 0.116435

loop_
_geom_bond_atom_site_label_1
_geom_bond_atom_site_label_2
_ccdc_geom_bond_type
O5    Zn1   S    
C23   O5    A    
C26   H12   S    
C7    C8    A    
C23   O6    A    
C5    H15   S    
C11   C19   S    
C6    H16   S    
O7    Zn1   S    
C28   C29   A    
C36   H22   S    
C27   O7    A    
C25   H8    S    
C5    C6    A    
C15   C16   A    
C2    C32   A    
C18   C19   S    
O8    Zn2   S    
C19   H5    S    
C37   C38   A    
C21   H6    S    
C14   H19   S    
C8    C9    A    
O2    Zn2   S    
C27   O8    A    
C18   H3    S    
C15   H2    S    
C37   H23   S    
C35   C36   A    
C13   C14   A    
C29   H11   S    
C27   C30   S    
O4    Zn2   S    
C22   N2    A    
C7    C12   S    
C36   C37   A    
C20   C24   A    
C24   C25   S    
C25   H9    S    
C16   C17   A    
O1    Zn1   S    
C24   N2    A    
C1    O1    A    
C29   C30   A    
N2    Zn1   S    
C35   H21   S    
C19   C33   S    
C17   C18   S    
C38   H24   S    
C33   C38   A    
C12   O3    A    
C12   O4    A    
C28   H1    S    
C16   C23   S    
O3    Zn1   S    
C1    C13   S    
C4    C10   S    
C3    C4    T    
C26   H10   S    
C9    C10   A    
C11   C17   A    
C32   H14   S    
C31   C32   A    
C9    H18   S    
N1    Zn2   S    
C6    C7    A    
O6    Zn2   S    
C33   C34   A    
C2    C3    S    
C25   C26   S    
C5    C10   A    
C20   N1    A    
C11   C13   A    
C30   C31   A    
C20   C26   S    
C22   H7    S    
C1    O2    A    
C34   C35   A    
C31   H13   S    
C14   C15   A    
C2    C28   A    
C21   C22   A    
C18   H4    S    
C8    H17   S    
C21   N1    A    
C34   H20   S    
