data_mof_unit_48808.cif
_audit_creation_date              2013-03-05T15:52:14-0500
_audit_creation_method            fapswitch 2.2
_symmetry_space_group_name_H-M    P1
_symmetry_Int_Tables_number       1
_space_group_crystal_system       triclinic
_cell_length_a                    23.514211
_cell_length_b                    10.861968
_cell_length_c                    9.587093
_cell_angle_alpha                 90.697087
_cell_angle_beta                  89.746653
_cell_angle_gamma                 93.002772
_cell_volume                      2445.08472389

loop_
_atom_site_label
_atom_site_type_symbol
_atom_site_description
_atom_site_fract_x
_atom_site_fract_y
_atom_site_fract_z
_atom_type_partial_charge
O1    O     O_R   0.500000 0.319640 0.618810 -0.541896
O2    O     O_R   0.500000 0.319660 0.381240 -0.585124
C1    C     C_R   0.504763 0.263446 0.499543 0.824878
O3    O     O_R   0.417880 0.499950 0.618810 -0.538164
O4    O     O_R   0.417880 0.499980 0.381240 -0.583213
C2    C     C_R   0.391009 0.500293 0.500212 0.832827
Cu1   Cu    Cu3+1 0.500000 0.499990 0.640660 0.976029
Cu2   Cu    Cu3+1 0.500000 0.500010 0.359340 0.940226
O5    O     O_R   0.500000 0.680340 0.618760 -0.620680
O6    O     O_R   0.500000 0.680360 0.381190 -0.596279
O7    O     O_R   0.582120 0.500020 0.618760 -0.611764
O8    O     O_R   0.582120 0.500050 0.381190 -0.599701
C3    C     C_R   0.497859 0.737914 0.502105 0.774555
C4    C     C_R   0.609028 0.500914 0.499724 0.760252
C5    C     C_R   0.882995 0.614453 0.522059 0.533692
N1    N     N_R   0.851961 0.506152 0.497916 -0.471448
C6    C     C_R   0.877755 0.397718 0.473958 0.534361
C7    C     C_R   0.937345 0.395242 0.473871 -0.015606
C8    C     C_R   0.969971 0.505827 0.498427 -0.016917
C9    C     C_R   0.942714 0.616602 0.522645 -0.015077
C10   C     C_R   0.964951 0.285232 0.450290 -0.159423
C11   C     C_R   0.024274 0.284983 0.451035 -0.157596
C12   C     C_R   0.057233 0.394786 0.475096 -0.017365
C13   C     C_R   0.029994 0.505617 0.498817 -0.017327
C14   C     C_R   0.062633 0.616222 0.522955 -0.015798
C15   C     C_R   0.035014 0.726237 0.546615 -0.155557
C16   C     C_R   0.975675 0.726404 0.546594 -0.161470
C17   C     C_R   0.116933 0.396734 0.476438 0.541156
N2    N     N_R   0.148102 0.505168 0.499529 -0.470021
C18   C     C_R   0.122245 0.613817 0.522362 0.536730
O9    O     O_2   0.856103 0.719656 0.544662 -0.532998
O10   O     O_2   0.845778 0.292634 0.451208 -0.531514
H1    H     H_    0.940838 0.198983 0.431334 0.191508
H2    H     H_    0.044180 0.198537 0.432607 0.191152
O11   O     O_2   0.143661 0.291009 0.455974 -0.519398
O12   O     O_2   0.154152 0.719291 0.543234 -0.523853
H3    H     H_    0.059127 0.812524 0.565334 0.193946
H4    H     H_    0.955758 0.812797 0.565303 0.189706
C19   C     C_R   0.239494 0.531718 0.622609 -0.092700
H5    H     H_    0.217072 0.553235 0.718015 0.151471
C20   C     C_R   0.298772 0.530657 0.622914 -0.153145
H6    H     H_    0.321316 0.553328 0.718769 0.188795
C21   C     C_R   0.328448 0.502078 0.500179 -0.050995
C22   C     C_R   0.297813 0.476074 0.376800 -0.202899
H7    H     H_    0.319567 0.453964 0.280603 0.171521
C23   C     C_R   0.238555 0.477383 0.376673 -0.089226
H8    H     H_    0.215413 0.457082 0.281016 0.152258
C24   C     C_R   0.209140 0.504854 0.499602 0.339082
C25   C     C_R   0.761119 0.495837 0.372364 -0.105211
H9    H     H_    0.783926 0.488926 0.274444 0.139636
C26   C     C_R   0.701791 0.494611 0.372618 -0.218881
H10   H     H_    0.679580 0.486695 0.273928 0.164226
C27   C     C_R   0.671683 0.502871 0.499158 -0.034307
C28   C     C_R   0.702040 0.513398 0.625166 -0.227168
H11   H     H_    0.680040 0.520353 0.724204 0.163267
C29   C     C_R   0.761372 0.515241 0.624491 -0.103960
H12   H     H_    0.784365 0.523070 0.722079 0.139742
C30   C     C_R   0.791030 0.506083 0.498218 0.361788
H13   H     H_    0.489218 0.107615 0.281230 0.171890
C31   C     C_R   0.549744 0.128875 0.740748 -0.105613
H14   H     H_    0.571287 0.218901 0.732109 0.142410
C32   C     C_R   0.549162 0.073461 0.870932 -0.111104
H15   H     H_    0.567994 0.121987 0.960062 0.131202
C33   C     C_R   0.521745 0.958268 0.887303 -0.118390
H16   H     H_    0.517744 0.918311 0.990043 0.141903
C34   C     C_R   0.500562 0.892912 0.770910 -0.148432
H17   H     H_    0.477344 0.807087 0.792133 0.173936
C35   C     C_R   0.506701 0.942215 0.634792 0.092158
C36   C     C_R   0.523068 0.068427 0.624696 0.116379
C37   C     C_R   0.510969 0.130250 0.499973 -0.117065
C38   C     C_R   0.497151 0.062384 0.378828 -0.197944
H18   H     H_    0.484611 0.885334 0.284821 0.168550
C39   C     C_R   0.492802 0.935100 0.381913 -0.197248
C40   C     C_R   0.496987 0.873011 0.508464 -0.110007
H19   H     H_    0.434188 0.363481 0.129959 0.168549
C41   C     C_R   0.577355 0.661591 0.145326 -0.137090
H20   H     H_    0.580249 0.671099 0.255352 0.199546
C42   C     C_R   0.615875 0.738816 0.073578 -0.222790
H21   H     H_    0.645459 0.800444 0.130249 0.162573
C43   C     C_R   0.616036 0.738310 0.929840 -0.202387
H22   H     H_    0.645552 0.799942 0.874025 0.163781
C44   C     C_R   0.577458 0.661084 0.857023 -0.137772
H23   H     H_    0.579665 0.671612 0.747229 0.201978
C45   C     C_R   0.538142 0.579093 0.925733 0.118995
C46   C     C_R   0.538090 0.579205 0.075371 0.193898
N3    N     N_R   0.500540 0.501210 0.147910 -0.223534
C47   C     C_R   0.463807 0.424806 0.074174 -0.126139
C48   C     C_R   0.463488 0.424502 0.926368 0.408523
N4    N     N_R   0.500560 0.501290 0.852040 -0.266669
N5    N     N_R   0.423022 0.343534 0.856206 0.145653
O13   O     O_R   0.434004 0.228094 0.840911 -0.355784
O14   O     O_R   0.370222 0.373286 0.852388 -0.380079

loop_
_geom_bond_atom_site_label_1
_geom_bond_atom_site_label_2
_geom_bond_distance
_ccdc_geom_bond_type
C34   C35   1.420507 A    
C47   C48   1.417049 A    
C7    C10   1.404887 A    
C20   H6    1.082265 S    
C8    C9    1.408958 A    
Cu1   Cu2   2.697043 S    
C19   C20   1.394541 A    
C27   C28   1.406297 A    
Cu1   O7    1.941428 S    
C15   C16   1.395412 A    
C32   H15   1.082586 S    
C17   N2    1.370421 A    
C41   C42   1.387838 A    
O4    C2    1.301525 A    
O7    C4    1.302316 A    
C42   C43   1.377958 A    
C10   H1    1.083185 S    
C16   H4    1.083184 S    
C35   C40   1.430505 A    
C5    N1    1.369257 A    
Cu1   N4    2.026493 S    
C29   H12   1.082866 S    
C31   C32   1.391927 A    
C7    C8    1.408888 A    
C39   C40   1.401581 A    
O5    C3    1.290430 A    
C32   C33   1.387517 A    
C23   H8    1.082907 S    
C45   C46   1.434568 A    
C17   O11   1.349567 S    
N1    C6    1.369265 A    
C25   C26   1.394399 A    
C12   C13   1.408551 A    
C37   C38   1.398316 A    
C34   H17   1.076485 S    
C10   C11   1.395135 A    
C20   C21   1.405134 A    
O3    Cu1   1.943214 S    
C22   C23   1.394235 A    
C23   C24   1.400792 A    
C5    C9    1.403244 A    
C11   H2    1.083180 S    
C28   C29   1.394246 A    
N2    C24   1.435435 S    
C26   H10   1.083080 S    
C1    C37   1.461755 S    
C13   C14   1.408583 A    
C43   C44   1.387626 A    
C19   H5    1.082888 S    
C38   C39   1.381640 A    
C42   H21   1.083003 S    
H18   C39   1.083596 S    
C14   C15   1.405210 A    
C46   N3    1.382571 A    
C25   C30   1.399624 A    
C31   H14   1.081382 S    
O1    C1    1.296758 A    
C33   C34   1.394923 A    
C21   C22   1.405680 A    
N2    C18   1.370420 A    
N5    O14   1.299970 A    
Cu2   O8    1.943214 S    
C6    C7    1.402883 A    
N1    C30   1.432686 S    
C12   C17   1.402967 A    
C41   H20   1.060757 S    
O3    C2    1.303352 A    
C48   N5    1.426504 S    
C44   H23   1.060933 S    
C44   C45   1.415762 A    
C2    C21   1.472220 S    
C45   N4    1.380951 A    
C22   H7    1.083141 S    
N3    C47   1.360351 A    
H19   C47   1.082380 S    
C14   C18   1.403318 A    
Cu1   O5    1.972714 S    
C28   H11   1.082983 S    
O1    Cu1   1.967587 S    
C35   C36   1.408719 A    
O2    Cu2   1.972712 S    
O8    C4    1.302799 A    
C43   H22   1.083024 S    
O6    C3    1.312359 A    
O4    Cu2   1.941430 S    
C15   H3    1.083171 S    
C5    O9    1.349462 S    
C9    C16   1.404966 A    
C18   O12   1.349520 S    
C33   H16   1.082922 S    
O2    C1    1.302644 A    
N5    O13   1.299849 A    
C31   C36   1.416940 A    
C29   C30   1.399508 A    
C8    C13   1.411537 A    
Cu2   N3    2.027180 S    
C36   C37   1.415697 A    
C4    C27   1.472326 S    
C48   N4    1.377010 A    
C3    C40   1.469160 S    
Cu2   O6    1.967588 S    
C25   H9    1.082857 S    
C6    O10   1.349544 S    
C11   C12   1.405119 A    
C26   C27   1.406202 A    
C41   C46   1.416820 A    
H13   C38   1.083519 S    
C19   C24   1.400909 A    
