data_mof_unit_13805.cif
_audit_creation_date              2013-03-05T15:47:15-0500
_audit_creation_method            fapswitch 2.2
_symmetry_space_group_name_H-M    P1
_symmetry_Int_Tables_number       1
_space_group_crystal_system       triclinic
_cell_length_a                    27.897772
_cell_length_b                    11.127902
_cell_length_c                    9.919243
_cell_angle_alpha                 110.12713
_cell_angle_beta                  98.891717
_cell_angle_gamma                 92.292812
_cell_volume                      2842.11472589

loop_
_atom_site_label
_atom_site_type_symbol
_atom_site_description
_atom_site_fract_x
_atom_site_fract_y
_atom_site_fract_z
_atom_type_partial_charge
O1    O     O_R   0.504520 0.332330 0.577400 -0.578443
O2    O     O_R   0.495480 0.667670 0.422600 -0.583462
O3    O     O_R   0.490210 0.295500 0.332650 -0.568894
O4    O     O_R   0.509790 0.704500 0.667350 -0.579732
C1    C     C_R   0.494949 0.256383 0.442480 0.812843
C2    C     C_R   0.503759 0.745349 0.556737 0.807422
O5    O     O_R   0.437420 0.518430 0.622370 -0.578388
O6    O     O_R   0.562580 0.481570 0.377630 -0.575113
O7    O     O_R   0.423110 0.481600 0.377610 -0.578423
O8    O     O_R   0.576890 0.518400 0.622390 -0.568092
C3    C     C_R   0.407674 0.500389 0.500003 0.804305
C4    C     C_R   0.592754 0.497447 0.499523 0.809423
Cu1   Cu    Cu3+1 0.508480 0.521810 0.644910 1.001756
Cu2   Cu    Cu3+1 0.491520 0.478190 0.355090 1.004215
C5    C     C_R   0.173575 0.394855 0.448667 0.662451
C6    C     C_R   0.829485 0.607927 0.571646 0.660323
O9    O     O_2   0.191942 0.290195 0.365192 -0.494790
O10   O     O_2   0.808641 0.719113 0.613109 -0.495786
N1    N     N_R   0.202324 0.509129 0.508599 -0.427102
N2    N     N_R   0.800370 0.495019 0.501176 -0.426548
C7    C     C_R   0.183573 0.621621 0.574912 0.636087
C8    C     C_R   0.819546 0.382335 0.438217 0.634457
C9    C     C_R   0.275303 0.567099 0.420679 -0.040263
C10   C     C_R   0.715589 0.464883 0.366795 -0.036556
C11   C     C_R   0.326144 0.569171 0.424088 -0.138544
C12   C     C_R   0.664929 0.453323 0.365972 -0.128158
C13   C     C_R   0.331973 0.435549 0.575219 -0.129796
C14   C     C_R   0.680727 0.527329 0.633191 -0.129204
C15   C     C_R   0.282708 0.446995 0.588448 -0.056229
C16   C     C_R   0.731017 0.519597 0.632129 -0.066644
C17   C     C_R   0.253920 0.509181 0.506914 0.305401
C18   C     C_R   0.748547 0.494060 0.499783 0.309710
C19   C     C_R   0.103970 0.503242 0.528313 -0.058773
C20   C     C_R   0.900990 0.495333 0.523332 -0.059041
C21   C     C_R   0.125202 0.387037 0.472517 -0.038722
C22   C     C_R   0.880655 0.608004 0.599177 -0.039228
C23   C     C_R   0.097866 0.268117 0.445530 -0.056622
C24   C     C_R   0.911890 0.714958 0.701388 -0.057223
C25   C     C_R   0.133033 0.622870 0.576268 -0.049006
C26   C     C_R   0.870081 0.381662 0.437422 -0.049747
C27   C     C_R   0.354545 0.502011 0.499950 -0.094466
C28   C     C_R   0.646673 0.492998 0.499503 -0.107537
C29   C     C_R   0.972686 0.382556 0.460420 0.048166
C30   C     C_R   0.032479 0.615895 0.594403 0.049707
C31   C     C_R   0.982823 0.611483 0.612086 0.008617
C32   C     C_R   0.024235 0.380918 0.480285 0.006475
C33   C     C_R   0.952210 0.496477 0.532335 0.071333
C34   C     C_R   0.053563 0.499920 0.534753 0.071739
C35   C     C_R   0.941185 0.275819 0.363551 -0.208080
C36   C     C_R   0.060739 0.733058 0.626524 -0.204958
C37   C     C_R   0.890822 0.272900 0.353500 -0.036053
C38   C     C_R   0.110357 0.738174 0.621696 -0.039427
O11   O     O_2   0.789593 0.272113 0.377669 -0.522526
O12   O     O_2   0.213960 0.730833 0.638829 -0.521376
C39   C     C_R   0.047652 0.265764 0.451738 -0.105340
C40   C     C_R   0.962862 0.715533 0.708899 -0.104262
H1    H     H_    0.955474 0.194903 0.289718 0.156907
H2    H     H_    0.043951 0.822275 0.650276 0.160586
C41   C     C_2   0.483544 0.122476 0.416423 -0.199110
C42   C     C_2   0.509829 0.883259 0.579119 -0.235136
C43   C     C_2   0.514878 0.059242 0.479281 -0.089630
C44   C     C_2   0.501850 0.925207 0.463509 -0.084526
N3    N     N_2   0.478780 0.445430 0.137360 -0.267816
N4    N     N_2   0.521220 0.554570 0.862640 -0.268310
C45   C     C_2   0.506819 0.508251 0.083944 -0.014678
C46   C     C_2   0.504277 0.476526 0.922021 -0.042843
C47   C     C_1   0.358343 0.347788 0.630307 0.247387
N5    N     N_1   0.378692 0.275666 0.672465 -0.241789
C48   C     C_1   0.664998 0.567046 0.773715 0.290784
N6    N     N_1   0.652748 0.598745 0.886115 -0.249612
C49   C     C_1   0.527555 0.971177 0.726953 0.320875
N7    N     N_1   0.541862 0.040605 0.845251 -0.215299
C50   C     C_1   0.433677 0.071400 0.346486 0.280391
N8    N     N_1   0.393834 0.031287 0.290989 -0.215369
C51   C     C_1   0.489359 0.343137 0.835846 0.386880
N9    N     N_1   0.477352 0.235063 0.771639 -0.258848
C52   C     C_1   0.547715 0.595460 0.180195 0.374496
N10   N     N_1   0.580456 0.666499 0.255492 -0.280000
C53   C     C_1   0.531532 0.685144 0.945532 0.487658
N11   N     N_1   0.540222 0.793871 0.013210 -0.281954
C54   C     C_1   0.431071 0.402187 0.064169 0.471147
N12   N     N_1   0.391306 0.366520 0.004431 -0.280791
C55   C     C_2   0.261655 0.393523 0.688153 0.469333
H3    H     H_    0.277017 0.314410 0.714001 0.107315
O13   O     O_2   0.228062 0.440270 0.747174 -0.512666
C56   C     C_2   0.765315 0.537818 0.770884 0.466846
H4    H     H_    0.757875 0.600818 0.874744 0.108982
O14   O     O_2   0.801400 0.479279 0.771337 -0.512353
C57   C     C_2   0.121510 0.146805 0.424746 0.497954
H5    H     H_    0.103225 0.056505 0.345649 0.069039
O15   O     O_2   0.160025 0.145795 0.501764 -0.479010
C58   C     C_2   0.892853 0.821584 0.811544 0.500289
H6    H     H_    0.908008 0.920223 0.839335 0.061095
O16   O     O_2   0.862374 0.799192 0.878153 -0.481267
C59   C     C_1   0.632458 0.394998 0.226355 0.280248
N13   N     N_1   0.606925 0.347330 0.114485 -0.251467
C60   C     C_1   0.349081 0.639392 0.348015 0.254827
N14   N     N_1   0.367236 0.695531 0.287226 -0.231832
C61   C     C_2   0.733799 0.446830 0.227653 0.437686
H7    H     H_    0.711754 0.389387 0.123218 0.089245
O17   O     O_2   0.772967 0.499708 0.227381 -0.520358
C62   C     C_2   0.244894 0.624513 0.325445 0.456993
H8    H     H_    0.260960 0.699389 0.294636 0.094733
O18   O     O_2   0.201957 0.586189 0.276128 -0.518843
C63   C     C_1   0.861984 0.158236 0.249680 0.369549
N15   N     N_1   0.839096 0.066314 0.166358 -0.174058
C64   C     C_1   0.135813 0.864153 0.658200 0.369345
N16   N     N_1   0.156008 0.965195 0.687613 -0.165206
C65   C     C_1   0.022813 0.149430 0.454539 0.225200
N17   N     N_1   0.003227 0.056778 0.457192 -0.259572
C66   C     C_1   0.994262 0.811795 0.833075 0.227087
N18   N     N_1   0.019122 0.888350 0.932317 -0.259440
C67   C     C_1   0.480152 0.841840 0.315405 0.364123
N19   N     N_1   0.462318 0.777266 0.197806 -0.267300
C68   C     C_1   0.564193 0.116752 0.550192 0.304226
N20   N     N_1   0.603397 0.162681 0.606562 -0.244016

loop_
_geom_bond_atom_site_label_1
_geom_bond_atom_site_label_2
_geom_bond_distance
_ccdc_geom_bond_type
N3    C45   1.311714 D    
C13   C15   1.407352 A    
C10   C61   1.495808 S    
C50   N8    1.157500 T    
C66   N18   1.157723 T    
C51   N9    1.157081 T    
N1    C17   1.442074 S    
C60   N14   1.157018 T    
C52   N10   1.158477 T    
C5    N1    1.365455 A    
C19   C25   1.419291 A    
N3    C54   1.392757 S    
O1    C1    1.292160 A    
N1    C7    1.365800 A    
C10   C12   1.412528 A    
C15   C55   1.494582 S    
C7    O12   1.348585 S    
C56   O14   1.221030 D    
C9    C62   1.493730 S    
Cu2   N3    2.033246 S    
C68   N20   1.157417 T    
C24   C58   1.490418 S    
C35   H1    1.082204 S    
C42   C44   1.371251 D    
C14   C28   1.428227 A    
O4    Cu1   1.965683 S    
C4    C28   1.507055 S    
C62   H8    1.084539 S    
C14   C48   1.453068 S    
C38   C64   1.446451 S    
C35   C37   1.391354 A    
C32   C39   1.422490 A    
C43   C68   1.455220 S    
C36   C38   1.392026 A    
C64   N16   1.157375 T    
C57   O15   1.221219 D    
C41   C50   1.451443 S    
C40   C66   1.454411 S    
C43   C44   1.469586 S    
C6    N2    1.365789 A    
C25   C38   1.415882 A    
Cu1   Cu2   2.706422 S    
C39   C65   1.454564 S    
O2    C2    1.291659 A    
C5    C21   1.410010 A    
C54   N12   1.157150 T    
C8    O11   1.348786 S    
C31   C33   1.414193 A    
C32   C34   1.413939 A    
C41   C43   1.353045 D    
C45   C52   1.446370 S    
C1    C41   1.435278 S    
C47   N5    1.155550 T    
C36   H2    1.082042 S    
C2    C42   1.471800 S    
C31   C40   1.422894 A    
C44   C67   1.458588 S    
O4    C2    1.315697 A    
C11   C27   1.415164 A    
C56   H4    1.084708 S    
C29   C35   1.405822 A    
C42   C49   1.449763 S    
C9    C17   1.417492 A    
O5    C3    1.307599 A    
O7    Cu2   1.955863 S    
C10   C18   1.413271 A    
C13   C27   1.410323 A    
C55   H3    1.084455 S    
C7    C25   1.412670 A    
O6    C4    1.314596 A    
C8    C26   1.411376 A    
C58   O16   1.221340 D    
C62   O18   1.220824 D    
O7    C3    1.302769 A    
O3    Cu2   1.965682 S    
O8    C4    1.309578 A    
C11   C60   1.450709 S    
C55   O13   1.220916 D    
N2    C8    1.366219 A    
C16   C56   1.495415 S    
N4    C53   1.393305 S    
C20   C26   1.418975 A    
O1    Cu1   1.973128 S    
C30   C31   1.424013 A    
C12   C28   1.425748 A    
C67   N19   1.157454 T    
N2    C18   1.443266 S    
C30   C36   1.406108 A    
C12   C59   1.451319 S    
C5    O9    1.348994 S    
O6    Cu2   1.957704 S    
C21   C23   1.420135 A    
O3    C1    1.296255 A    
O8    Cu1   1.955869 S    
C26   C37   1.415675 A    
C63   N15   1.157535 T    
C61   H7    1.084361 S    
C23   C57   1.490540 S    
C22   C24   1.420286 A    
C49   N7    1.157478 T    
C15   C17   1.416614 A    
C65   N17   1.157718 T    
C6    C22   1.411240 A    
C16   C18   1.412853 A    
Cu1   N4    2.033248 S    
C46   C51   1.440329 S    
C14   C16   1.410493 A    
C58   H6    1.085438 S    
C19   C21   1.413994 A    
C3    C27   1.482920 S    
C20   C22   1.414051 A    
C9    C11   1.412594 A    
C48   N6    1.158042 T    
O2    Cu2   1.973129 S    
C29   C32   1.422758 A    
C37   C63   1.446834 S    
C13   C47   1.447071 S    
C53   N11   1.157817 T    
C23   C39   1.411285 A    
O5    Cu1   1.957704 S    
C24   C40   1.412050 A    
C6    O10   1.348852 S    
C45   C46   1.510611 S    
C59   N13   1.157772 T    
C19   C34   1.417119 A    
C20   C33   1.417130 A    
C57   H5    1.085450 S    
C29   C33   1.415553 A    
C61   O17   1.220979 D    
C30   C34   1.415770 A    
N4    C46   1.315242 D    
