data_mof_unit_30610.cif
_audit_creation_date              2012-12-10T17:03:56-0500
_audit_creation_method            fapswitch 2.2
_symmetry_space_group_name_H-M    P1
_symmetry_Int_Tables_number       1
_space_group_crystal_system       triclinic
_cell_length_a                    9.854518
_cell_length_b                    10.953549
_cell_length_c                    15.744022
_cell_angle_alpha                 93.953574
_cell_angle_beta                  80.351145
_cell_angle_gamma                 110.421875
_cell_volume                      1569.99770306

loop_
_atom_site_label
_atom_site_type_symbol
_atom_type_description
_atom_site_fract_x
_atom_site_fract_y
_atom_site_fract_z
_atom_type_partial_charge
C1    C     C_R   0.552601 0.745086 0.509609 0.883695
C2    C     C_R   0.443428 0.254399 0.497488 0.892660
C3    C     C_R   0.296920 0.371099 0.073774 0.416225
C4    C     C_R   0.641233 0.426425 0.920813 0.378737
C5    C     C_R   0.198690 0.366032 0.017254 0.414561
C6    C     C_R   0.750408 0.474905 0.974191 0.405278
C7    C     C_2   0.574184 0.883539 0.521493 -0.384094
C8    C     C_2   0.412025 0.114669 0.503278 -0.383556
C9    C     C_2   0.460027 0.925868 0.543822 0.314057
C10   C     C_2   0.488630 0.067283 0.547092 0.326156
C11   C     C_2   0.922153 0.488585 0.493547 -0.026864
C12   C     C_2   0.077258 0.510643 0.506734 -0.031516
C13   C     C_R   0.412645 0.487858 0.663009 0.807730
C14   C     C_R   0.587157 0.511825 0.336916 0.814497
C15   C     C_R   0.358327 0.471184 0.756326 -0.188297
C16   C     C_R   0.634839 0.506912 0.242891 -0.169523
C17   C     C_R   0.158920 0.414572 0.875971 -0.202370
C18   C     C_R   0.817489 0.515494 0.117856 -0.215617
C19   C     C_R   0.212444 0.456077 0.790921 0.474551
C20   C     C_R   0.781160 0.523191 0.207605 0.454998
C21   C     C_R   0.452369 0.463701 0.811231 -0.207201
C22   C     C_R   0.528235 0.477681 0.188305 -0.255480
C23   C     C_R   0.401092 0.425978 0.897927 0.063030
C24   C     C_R   0.560400 0.454232 0.099575 0.033331
C25   C     C_R   0.251942 0.401355 0.930475 -0.120102
C26   C     C_R   0.709404 0.481263 0.063864 -0.068755
C27   C     C_R   0.498186 0.422661 0.953949 -0.118907
C28   C     C_R   0.451283 0.416923 0.044164 -0.165872
Cu1   Cu    Cu3+1 0.362980 0.479380 0.485080 0.980672
Cu2   Cu    Cu3+1 0.637020 0.520620 0.514920 0.981968
H1    H     H_    0.420665 0.477293 0.216068 0.233612
H2    H     H_    0.567303 0.492428 0.785751 0.196434
H3    H     H_    0.044656 0.393989 0.899767 0.233131
H4    H     H_    0.931200 0.536648 0.090119 0.215549
H5    H     H_    0.324837 0.049092 0.470773 0.122146
H6    H     H_    0.685725 0.952442 0.511532 0.120417
H7    H     H_    0.124081 0.581392 0.554795 0.197075
H8    H     H_    0.874989 0.417635 0.445505 0.164271
H9    H     H_    0.109686 0.381165 0.417624 0.190158
H10   H     H_    0.890366 0.618428 0.582573 0.181811
N1    N     N_2   0.842890 0.551600 0.537350 -0.280935
N2    N     N_2   0.157110 0.448400 0.462650 -0.287649
O1    O     O_R   0.426810 0.668300 0.492040 -0.516199
O2    O     O_R   0.573190 0.331700 0.507960 -0.515944
O3    O     O_R   0.658240 0.703130 0.517240 -0.590848
O4    O     O_R   0.341760 0.296870 0.482760 -0.589683
O5    O     O_R   0.319390 0.472820 0.610170 -0.534252
O6    O     O_R   0.680610 0.527180 0.389830 -0.525972
O7    O     O_R   0.550820 0.507640 0.635370 -0.586082
O8    O     O_R   0.449180 0.492360 0.364630 -0.589838
O9    O     O_3   0.052379 0.341112 0.050262 -0.575972
C29   C     C_3   0.972465 0.208945 0.035637 -0.320081
H11   H     H_    0.995304 0.145347 0.079082 0.176242
H12   H     H_    0.994217 0.178183 0.967298 0.146621
H13   H     H_    0.853919 0.194742 0.050837 0.189208
O10   O     O_3   0.896594 0.524441 0.938989 -0.598109
C30   C     C_3   0.939918 0.661857 0.935542 -0.394920
H14   H     H_    0.911969 0.691070 0.876441 0.160155
H15   H     H_    0.060212 0.703810 0.933640 0.192550
H16   H     H_    0.891451 0.706800 0.992828 0.162729
O11   O     O_3   0.888609 0.560215 0.260682 -0.580286
C31   C     C_3   0.979702 0.483543 0.244180 -0.228808
H17   H     H_    0.916787 0.378552 0.234077 0.172909
H18   H     H_    0.035220 0.490440 0.300890 0.171812
H19   H     H_    0.067274 0.522154 0.188609 0.195329
O12   O     O_3   0.120298 0.480795 0.742570 -0.590442
C32   C     C_3   0.157305 0.617203 0.736975 -0.305877
H20   H     H_    0.068350 0.637555 0.712443 0.160422
H21   H     H_    0.259656 0.660529 0.691228 0.193622
H22   H     H_    0.170272 0.667131 0.800417 0.156623
O13   O     O_3   0.237022 0.326132 0.156509 -0.587037
C33   C     C_3   0.253358 0.204699 0.165311 -0.326072
H23   H     H_    0.368772 0.216577 0.169143 0.177433
H24   H     H_    0.215111 0.135551 0.111984 0.143791
H25   H     H_    0.185747 0.160164 0.226410 0.189792
O14   O     O_3   0.654860 0.350730 0.846928 -0.602888
C34   C     C_3   0.789342 0.400136 0.792534 -0.162432
H26   H     H_    0.827103 0.507702 0.786665 0.151859
H27   H     H_    0.870145 0.365507 0.814468 0.223634
H28   H     H_    0.774748 0.358919 0.726952 0.196542
O15   O     O_3   0.594768 0.149813 0.592304 -0.705541
H29   H     H_    0.629556 0.096161 0.625694 0.315261
O16   O     O_3   0.318123 0.838557 0.560525 -0.746897
H30   H     H_    0.251856 0.887676 0.583030 0.307633

loop_
_geom_bond_atom_site_label_1
_geom_bond_atom_site_label_2
_ccdc_geom_bond_type
Cu1   N2    S    
C7    H6    S    
Cu2   O3    S    
C18   C26   A    
O15   H29   S    
C14   O8    A    
C34   H26   S    
C2    O4    A    
C15   C19   A    
C31   H17   S    
Cu1   O5    S    
C22   C24   A    
Cu2   O6    S    
C3    C28   A    
C24   C26   A    
C30   H15   S    
C12   H7    S    
O10   C30   S    
C19   O12   S    
C20   O11   S    
C12   N2    D    
C1    O1    A    
C2    O2    A    
C31   H18   S    
Cu2   N1    S    
C23   C27   A    
C9    C10   S    
C18   C20   A    
C29   H13   S    
O12   C32   S    
Cu1   O1    S    
Cu2   O2    S    
C17   H3    S    
C33   H25   S    
C29   H12   S    
H9    N2    S    
Cu1   O8    S    
C34   H27   S    
C21   H2    S    
C22   H1    S    
O9    C29   S    
O14   C34   S    
C4    C6    A    
C13   O5    A    
C30   H16   S    
C14   O6    A    
C32   H20   S    
C32   H21   S    
C8    H5    S    
C11   H8    S    
C3    O13   S    
Cu1   Cu2   S    
O16   H30   S    
C16   C20   A    
C18   H4    S    
C9    O16   S    
C5    C25   A    
C33   H24   S    
H10   N1    S    
Cu2   O7    S    
C13   C15   S    
C13   O7    A    
C4    C27   A    
C29   H11   S    
C34   H28   S    
C7    C9    D    
C16   C22   A    
C31   H19   S    
C1    C7    S    
C2    C8    S    
C24   C28   A    
C6    O10   S    
C33   H23   S    
C3    C5    A    
C11   C12   S    
C10   O15   S    
Cu1   O4    S    
C32   H22   S    
C17   C25   A    
C21   C23   A    
O13   C33   S    
C1    O3    A    
C30   H14   S    
C6    C26   A    
C17   C19   A    
C11   N1    D    
C14   C16   S    
C23   C25   A    
O11   C31   S    
C4    O14   S    
C15   C21   A    
C8    C10   D    
C27   C28   A    
C5    O9    S    
