data_mof_unit_66138.cif
_audit_creation_date              2012-10-26T17:50:11-0400
_audit_creation_method            fapswitch 2.2
_symmetry_space_group_name_H-M    P1
_symmetry_Int_Tables_number       1
_space_group_crystal_system       triclinic
_cell_length_a                    21.748433
_cell_length_b                    21.781976
_cell_length_c                    30.142699
_cell_angle_alpha                 90.40692
_cell_angle_beta                  90.038311
_cell_angle_gamma                 90.028509
_cell_volume                      14278.9501738

loop_
_atom_site_label
_atom_site_type_symbol
_atom_type_description
_atom_site_fract_x
_atom_site_fract_y
_atom_site_fract_z
_atom_type_partial_charge
C1    C     C_R   0.499408 0.118717 0.506215 0.544206
C2    C     C_R   0.275535 0.349401 0.547939 0.235997
C3    C     C_R   0.996085 0.499570 0.414442 0.546593
C4    C     C_R   0.999974 0.500204 0.085583 0.536040
C5    C     C_R   0.497144 0.000436 0.085556 0.542566
C6    C     C_R   0.000206 0.497347 0.914404 0.539303
C7    C     C_R   0.503898 0.000034 0.914483 0.544026
C8    C     C_R   0.543221 0.958558 0.842920 -0.098572
C9    C     C_R   0.960499 0.458456 0.842370 -0.100255
C10   C     C_R   0.468919 0.041966 0.842852 -0.092847
C11   C     C_R   0.042897 0.533934 0.843432 -0.093952
C12   C     C_R   0.458437 0.960702 0.157177 -0.099723
C13   C     C_R   0.342612 0.722030 0.536669 0.242110
C14   C     C_R   0.032867 0.455783 0.156899 -0.107844
C15   C     C_R   0.532303 0.044576 0.156972 -0.095178
C16   C     C_R   0.964757 0.544330 0.156808 -0.105573
C17   C     C_R   0.023407 0.450964 0.342571 -0.097247
C18   C     C_R   0.457296 0.965761 0.343017 -0.094219
C19   C     C_R   0.962585 0.544636 0.342846 -0.098092
C20   C     C_R   0.538716 0.042302 0.342830 -0.101050
C21   C     C_R   0.966008 0.457323 0.656556 -0.093862
C22   C     C_R   0.540994 0.956500 0.656670 -0.099486
C23   C     C_R   0.041061 0.540084 0.657652 -0.100246
C24   C     C_R   0.712738 0.655765 0.553731 0.270689
C25   C     C_R   0.457553 0.030796 0.657496 -0.094624
C26   C     C_R   0.506110 0.000531 0.866022 0.014323
C27   C     C_R   0.001243 0.496236 0.865998 0.013763
C28   C     C_R   0.495563 0.002020 0.133971 0.014041
C29   C     C_R   0.999598 0.500363 0.133845 0.006139
C30   C     C_R   0.993200 0.498078 0.365904 0.010731
C31   C     C_R   0.498632 0.003793 0.366021 0.014047
C32   C     C_R   0.003475 0.499180 0.634000 0.013907
C33   C     C_R   0.499059 0.993697 0.633952 0.013404
C34   C     C_R   0.466009 0.039590 0.796644 0.022927
C35   C     C_R   0.655527 0.712296 0.446601 0.270873
C36   C     C_R   0.042891 0.535649 0.797185 0.021076
C37   C     C_R   0.543363 0.957875 0.796474 0.022445
C38   C     C_R   0.961746 0.457599 0.795982 0.021624
C39   C     C_R   0.533885 0.044662 0.203263 0.021793
C40   C     C_R   0.963716 0.544652 0.203166 0.019067
C41   C     C_R   0.457404 0.962032 0.203553 0.021633
C42   C     C_R   0.030501 0.454054 0.203207 0.019940
C43   C     C_R   0.962188 0.544493 0.296437 0.021570
C44   C     C_R   0.537106 0.043576 0.296453 0.021963
C45   C     C_R   0.025441 0.451472 0.296296 0.020704
C46   C     C_R   0.290166 0.646893 0.436867 0.262488
C47   C     C_R   0.457002 0.964456 0.296738 0.021131
C48   C     C_R   0.042055 0.538713 0.704033 0.021834
C49   C     C_R   0.459895 0.033578 0.703719 0.022643
C50   C     C_R   0.964429 0.457177 0.702812 0.020824
C51   C     C_R   0.541634 0.956234 0.703105 0.022022
C52   C     C_R   0.503752 0.997774 0.773283 0.068715
C53   C     C_R   0.002590 0.496909 0.773302 0.067679
C54   C     C_R   0.495903 0.003607 0.226694 0.067948
C55   C     C_R   0.996203 0.498962 0.226474 0.066392
C56   C     C_R   0.994497 0.498240 0.273083 0.067721
C57   C     C_R   0.348902 0.274894 0.451750 0.236000
C58   C     C_R   0.496621 0.003937 0.273308 0.067677
C59   C     C_R   0.003052 0.497579 0.726703 0.067717
C60   C     C_R   0.501725 0.995794 0.726689 0.068652
C61   C     C_R   0.425371 0.077662 0.773465 -0.092245
C62   C     C_R   0.082124 0.575696 0.774447 -0.092836
C63   C     C_R   0.581985 0.917854 0.772783 -0.093935
C64   C     C_R   0.922938 0.418255 0.771861 -0.093846
C65   C     C_R   0.573177 0.084604 0.226496 -0.095128
C66   C     C_R   0.930885 0.589785 0.226615 -0.096969
C67   C     C_R   0.418781 0.922464 0.227205 -0.095209
C68   C     C_R   0.721716 0.342703 0.462953 0.241180
C69   C     C_R   0.061541 0.408130 0.226642 -0.097589
C70   C     C_R   0.930563 0.590013 0.272961 -0.094736
C71   C     C_R   0.575204 0.083651 0.272798 -0.096558
C72   C     C_R   0.058631 0.406569 0.272887 -0.096126
C73   C     C_R   0.418148 0.924085 0.273517 -0.093101
C74   C     C_R   0.081291 0.577630 0.728157 -0.095109
C75   C     C_R   0.421822 0.074165 0.727299 -0.092871
C76   C     C_R   0.924687 0.417630 0.725554 -0.092203
C77   C     C_R   0.581667 0.917578 0.726397 -0.094181
C78   C     C_R   0.591743 0.195828 0.561013 0.092537
C79   C     C_R   0.157528 0.778512 0.036500 0.242044
C80   C     C_R   0.194331 0.382033 0.498510 0.134992
C81   C     C_R   0.381534 0.804771 0.491048 0.143040
C82   C     C_R   0.807132 0.597534 0.556203 0.095778
C83   C     C_R   0.597023 0.806430 0.443949 0.095558
C84   C     C_R   0.195018 0.589521 0.437871 0.092579
C85   C     C_R   0.382164 0.194441 0.501263 0.134407
C86   C     C_R   0.805007 0.381696 0.508787 0.143646
C87   C     C_R   0.118503 0.694792 0.990986 0.143447
C88   C     C_R   0.692981 0.904665 0.057157 0.094748
C89   C     C_R   0.883599 0.305376 0.006324 0.126543
C90   C     C_R   0.787096 0.845903 0.054972 0.270855
C91   C     C_R   0.305593 0.117842 0.997763 0.136892
C92   C     C_R   0.116384 0.305429 0.994740 0.127052
C93   C     C_R   0.694506 0.117715 0.003667 0.136876
C94   C     C_R   0.902168 0.692442 0.944558 0.096152
C95   C     C_R   0.304825 0.907321 0.938923 0.093187
C96   C     C_R   0.644426 0.229513 0.573096 0.320771
C97   C     C_R   0.219476 0.337647 0.526796 0.297300
C98   C     C_R   0.332761 0.777199 0.514287 0.301868
C99   C     C_R   0.775340 0.652885 0.563229 0.316738
C100  C     C_R   0.652374 0.774620 0.436851 0.316396
C101  C     C_R   0.847569 0.220754 0.050916 0.237679
C102  C     C_R   0.228205 0.642183 0.425701 0.320466
C103  C     C_R   0.337387 0.219184 0.472957 0.297354
C104  C     C_R   0.777203 0.332942 0.485293 0.300938
C105  C     C_R   0.167269 0.722744 0.014330 0.302238
C106  C     C_R   0.724574 0.849444 0.064627 0.317547
C107  C     C_R   0.837957 0.279088 0.033129 0.295738
C108  C     C_R   0.280480 0.162896 0.026004 0.296653
C109  C     C_R   0.162234 0.278701 0.968104 0.296447
C110  C     C_R   0.719604 0.162462 0.975617 0.298054
C111  C     C_R   0.846654 0.724088 0.938025 0.316294
C112  C     C_R   0.118591 0.499287 0.493698 0.545689
C113  C     C_R   0.225068 0.151149 0.047864 0.236648
C114  C     C_R   0.271139 0.854551 0.927067 0.321252
C115  C     C_R   0.152719 0.220049 0.950225 0.238318
C116  C     C_R   0.775002 0.150484 0.953702 0.236723
C117  C     C_R   0.843772 0.786671 0.947583 0.270581
C118  C     C_R   0.208904 0.851249 0.937444 0.260292
C119  C     C_R   0.602188 0.318419 0.537485 -0.101471
C120  C     C_R   0.307974 0.402639 0.538027 -0.131131
C121  C     C_R   0.398926 0.692148 0.532590 -0.136962
C122  C     C_R   0.683118 0.604415 0.536406 -0.106981
C123  C     C_R   0.604393 0.682909 0.464093 -0.106089
C124  C     C_R   0.499456 0.881424 0.493576 0.542048
C125  C     C_R   0.317653 0.601590 0.462112 -0.101207
C126  C     C_R   0.402332 0.307416 0.461606 -0.131476
C127  C     C_R   0.691790 0.398906 0.467318 -0.137191
C128  C     C_R   0.101362 0.808500 0.032109 -0.136679
C129  C     C_R   0.816873 0.896535 0.037253 -0.107557
C130  C     C_R   0.899505 0.187573 0.038511 -0.129763
C131  C     C_R   0.192669 0.097603 0.038275 -0.133965
C132  C     C_R   0.100768 0.187000 0.962507 -0.128360
C133  C     C_R   0.807484 0.097168 0.963175 -0.132101
C134  C     C_R   0.895318 0.816452 0.964433 -0.106960
C135  C     C_R   0.881546 0.499519 0.506520 0.542441
C136  C     C_R   0.181702 0.897676 0.962144 -0.102221
C137  C     C_R   0.550942 0.284405 0.522328 -0.024060
C138  C     C_R   0.280804 0.449532 0.512522 -0.048925
C139  C     C_R   0.448405 0.719563 0.509841 -0.042086
C140  C     C_R   0.716350 0.551974 0.522434 -0.018753
C141  C     C_R   0.551955 0.716185 0.477988 -0.018345
C142  C     C_R   0.284018 0.550389 0.477239 -0.024506
C143  C     C_R   0.449560 0.280627 0.487138 -0.048985
C144  C     C_R   0.719452 0.448366 0.490323 -0.041777
C145  C     C_R   0.051858 0.780667 0.009305 -0.041097
C146  C     C_R   0.000521 0.618433 0.993507 0.544239
C147  C     C_R   0.783792 0.948663 0.022993 -0.020632
C148  C     C_R   0.948114 0.216547 0.015717 -0.044583
C149  C     C_R   0.219443 0.050460 0.012405 -0.049620
C150  C     C_R   0.052022 0.216323 0.985197 -0.043969
C151  C     C_R   0.780685 0.050247 0.988796 -0.046712
C152  C     C_R   0.948020 0.783447 0.977851 -0.019704
C153  C     C_R   0.215754 0.948920 0.977267 -0.023776
C154  C     C_R   0.547391 0.220729 0.531513 -0.015527
C155  C     C_R   0.219443 0.442421 0.498316 -0.030301
C156  C     C_R   0.442227 0.780600 0.495063 -0.021829
C157  C     C_R   0.618495 0.000628 0.006476 0.542507
C158  C     C_R   0.780512 0.549482 0.530473 -0.011697
C159  C     C_R   0.549302 0.780164 0.469826 -0.011803
C160  C     C_R   0.220259 0.546419 0.467946 -0.015378
C161  C     C_R   0.442650 0.219513 0.501419 -0.030837
C162  C     C_R   0.780700 0.442289 0.505082 -0.021169
C163  C     C_R   0.057853 0.719242 0.994741 -0.021006
C164  C     C_R   0.719637 0.951620 0.030949 -0.012464
C165  C     C_R   0.943780 0.279484 0.006374 -0.034586
C166  C     C_R   0.280598 0.057345 0.997826 -0.029161
C167  C     C_R   0.056232 0.279446 0.994479 -0.034742
C168  C     C_R   0.999985 0.380802 0.000094 0.528893
C169  C     C_R   0.719491 0.057267 0.003319 -0.029012
C170  C     C_R   0.950464 0.719261 0.969886 -0.012712
C171  C     C_R   0.279619 0.952239 0.968129 -0.015087
C172  C     C_R   0.502185 0.313947 0.500008 0.036490
C173  C     C_R   0.313908 0.502045 0.499627 0.036544
C174  C     C_R   0.502146 0.686364 0.499141 0.042093
C175  C     C_R   0.686341 0.502048 0.501234 0.042506
C176  C     C_R   0.998165 0.813691 0.998533 0.042114
C177  C     C_R   0.813843 0.997574 0.001181 0.039958
C178  C     C_R   0.000060 0.184452 0.000422 0.042010
C179  C     C_R   0.381429 0.000523 0.993555 0.543150
C180  C     C_R   0.186120 0.997836 0.999611 0.036781
C181  C     C_R   0.495847 0.186579 0.515489 0.009023
C182  C     C_R   0.186325 0.495356 0.484235 0.010309
C183  C     C_R   0.496405 0.813827 0.483624 0.009206
C184  C     C_R   0.814060 0.496512 0.516623 0.009275
C185  C     C_R   0.003530 0.685821 0.983461 0.007916
C186  C     C_R   0.686094 0.003948 0.016301 0.009049
C187  C     C_R   0.999980 0.312978 0.000312 -0.004340
C188  C     C_R   0.313680 0.004001 0.983947 0.009001
C189  C     C_R   0.381194 0.500184 0.500097 0.513260
C190  C     C_R   0.648174 0.291463 0.562464 0.261105
C191  C     C_R   0.500560 0.618914 0.500090 0.502928
C192  C     C_R   0.618897 0.500534 0.500046 0.503274
C193  C     C_R   0.500057 0.381200 0.499769 0.512683
C194  C     C_R   0.881162 0.999215 0.000026 0.507289
C195  C     C_R   0.999945 0.118284 0.000134 0.519499
C196  C     C_R   0.118816 0.999973 0.000112 0.511156
C197  C     C_R   0.999569 0.881108 0.999853 0.503960
C198  C     C_R   0.499814 0.996084 0.585514 0.544946
C199  C     C_R   0.002547 0.499949 0.585578 0.542887
C200  C     C_R   0.499761 0.002586 0.414424 0.543231
Cl1   Cl    Cl    0.267083 0.180637 0.464272 -0.358334
Cl2   Cl    Cl    0.682033 0.233317 0.968108 -0.353295
Cl3   Cl    Cl    0.231914 0.317735 0.958523 -0.358205
Cl4   Cl    Cl    0.304761 0.795233 0.894940 -0.366997
Cl5   Cl    Cl    0.768371 0.318260 0.043037 -0.361152
Cl6   Cl    Cl    0.687720 0.786983 0.090574 -0.378187
Cl7   Cl    Cl    0.241580 0.690246 0.013621 -0.371161
Cl8   Cl    Cl    0.317928 0.233973 0.033691 -0.355962
Cl9   Cl    Cl    0.704294 0.339195 0.586489 -0.495241
Cl10  Cl    Cl    0.308437 0.296750 0.584884 -0.481263
Cl11  Cl    Cl    0.282855 0.685200 0.565525 -0.491357
Cl12  Cl    Cl    0.194387 0.699307 0.392239 -0.371302
Cl13  Cl    Cl    0.668887 0.721344 0.566958 -0.498080
Cl14  Cl    Cl    0.721137 0.668417 0.433486 -0.496765
Cl15  Cl    Cl    0.337320 0.703269 0.413181 -0.494536
Cl16  Cl    Cl    0.295710 0.307289 0.414824 -0.480832
Cl17  Cl    Cl    0.684575 0.282977 0.433788 -0.495639
Cl18  Cl    Cl    0.217284 0.815857 0.065452 -0.491872
Cl19  Cl    Cl    0.830662 0.780429 0.068310 -0.496529
Cl20  Cl    Cl    0.793856 0.186228 0.086316 -0.489712
Cl21  Cl    Cl    0.192958 0.203990 0.085507 -0.483536
Cl22  Cl    Cl    0.206501 0.185020 0.914821 -0.485701
Cl23  Cl    Cl    0.715605 0.810899 0.411245 -0.380704
Cl24  Cl    Cl    0.806835 0.202589 0.915935 -0.476882
Cl25  Cl    Cl    0.777930 0.830267 0.934970 -0.496420
Cl26  Cl    Cl    0.161268 0.794995 0.913465 -0.498044
Cl27  Cl    Cl    0.809524 0.258654 0.485984 -0.376136
Cl28  Cl    Cl    0.258333 0.809390 0.513206 -0.373983
Cl29  Cl    Cl    0.180991 0.267547 0.535546 -0.357424
Cl30  Cl    Cl    0.703039 0.196290 0.605733 -0.365787
Cl31  Cl    Cl    0.812047 0.716470 0.588534 -0.379466
Cl32  Cl    Cl    0.782814 0.687162 0.913272 -0.375828
Cu1   Cu    Cu3+1 0.438180 0.000000 0.500000 1.110591
Cu2   Cu    Cu3+1 0.500000 0.500000 0.544440 1.045603
Cu3   Cu    Cu3+1 0.000000 0.000000 0.955560 1.046923
Cu4   Cu    Cu3+1 1.000000 1.000000 0.044440 1.030409
Cu5   Cu    Cu3+1 1.000000 0.561820 0.500000 1.136415
Cu6   Cu    Cu3+1 0.561820 0.000000 0.500000 1.138194
Cu7   Cu    Cu3+1 0.000000 0.438180 0.500000 1.108063
Cu8   Cu    Cu3+1 0.938180 0.500000 0.000000 1.129173
Cu9   Cu    Cu3+1 0.500000 0.061820 0.000000 1.114652
Cu10  Cu    Cu3+1 0.061820 0.500000 0.000000 1.114002
Cu11  Cu    Cu3+1 0.500000 0.938180 0.000000 1.139736
Cu12  Cu    Cu3+1 0.500000 0.500000 0.455560 1.044026
H1    H     H_    0.572295 0.927094 0.861129 0.147767
H2    H     H_    0.426824 0.935735 0.361226 0.156227
H3    H     H_    0.938933 0.580649 0.361062 0.151951
H4    H     H_    0.570144 0.071945 0.360946 0.144831
H5    H     H_    0.936650 0.426229 0.638015 0.157197
H6    H     H_    0.572503 0.927486 0.638164 0.147717
H7    H     H_    0.070246 0.571951 0.639902 0.145728
H8    H     H_    0.425618 0.059840 0.639656 0.154552
H9    H     H_    0.395903 0.109670 0.791079 0.156325
H10   H     H_    0.113061 0.605868 0.792488 0.159972
H11   H     H_    0.612772 0.887142 0.790125 0.156432
H12   H     H_    0.928785 0.429102 0.860136 0.147308
H13   H     H_    0.891536 0.387736 0.788810 0.156838
H14   H     H_    0.602762 0.116136 0.208834 0.155041
H15   H     H_    0.905886 0.625183 0.209111 0.155134
H16   H     H_    0.388873 0.890503 0.209886 0.154015
H17   H     H_    0.087821 0.373289 0.209193 0.153512
H18   H     H_    0.905440 0.625664 0.290444 0.155948
H19   H     H_    0.606311 0.114451 0.290110 0.151880
H20   H     H_    0.082806 0.370591 0.290377 0.153935
H21   H     H_    0.387719 0.893370 0.291191 0.159381
H22   H     H_    0.111578 0.609258 0.711221 0.153786
H23   H     H_    0.439919 0.073918 0.860980 0.155438
H24   H     H_    0.389801 0.103658 0.709998 0.155409
H25   H     H_    0.894615 0.386600 0.707508 0.160914
H26   H     H_    0.612381 0.886822 0.708742 0.156700
H27   H     H_    0.606590 0.366928 0.531079 0.154684
H28   H     H_    0.353533 0.407384 0.551859 0.182828
H29   H     H_    0.403033 0.647047 0.546990 0.174563
H30   H     H_    0.633770 0.606629 0.533805 0.148452
H31   H     H_    0.606752 0.633694 0.466834 0.148408
H32   H     H_    0.366215 0.606440 0.468749 0.154161
H33   H     H_    0.407001 0.352733 0.447723 0.182049
H34   H     H_    0.073842 0.563440 0.861971 0.156934
H35   H     H_    0.646469 0.402933 0.452929 0.174664
H36   H     H_    0.097395 0.853982 0.046355 0.174670
H37   H     H_    0.866165 0.893865 0.034357 0.149644
H38   H     H_    0.902115 0.140174 0.048585 0.179014
H39   H     H_    0.147466 0.092773 0.052622 0.181870
H40   H     H_    0.098303 0.139391 0.952446 0.178765
H41   H     H_    0.852675 0.092300 0.948800 0.182903
H42   H     H_    0.893060 0.865742 0.967131 0.147817
H43   H     H_    0.133008 0.893551 0.968406 0.155005
H44   H     H_    0.429798 0.928332 0.139078 0.146406
H45   H     H_    0.059171 0.421647 0.138677 0.142320
H46   H     H_    0.561344 0.076015 0.138724 0.154359
H47   H     H_    0.939384 0.578754 0.138507 0.143869
H48   H     H_    0.047573 0.415377 0.360532 0.157208
I1    I     I_    0.564648 0.131173 0.608751 -0.212689
I2    I     I_    0.629928 0.928175 0.107550 -0.209873
I3    I     I_    0.850049 0.354134 0.949327 -0.063872
I4    I     I_    0.361963 0.149112 0.943679 -0.065754
I5    I     I_    0.149274 0.355502 0.051825 -0.069984
I6    I     I_    0.637721 0.149252 0.057699 -0.074138
I7    I     I_    0.923021 0.628452 0.893911 -0.197630
I8    I     I_    0.369799 0.933374 0.890937 -0.215217
I9    I     I_    0.138815 0.349322 0.444107 -0.071360
I10   I     I_    0.357135 0.863430 0.436519 -0.086962
I11   I     I_    0.870923 0.576420 0.606578 -0.200370
I12   I     I_    0.575239 0.870089 0.393867 -0.200549
I13   I     I_    0.131970 0.559299 0.389367 -0.213012
I14   I     I_    0.349963 0.139846 0.555790 -0.070322
I15   I     I_    0.864376 0.357366 0.563145 -0.085809
I16   I     I_    0.143081 0.634994 0.936601 -0.086263
O1    O     O_R   0.447800 0.090110 0.500010 -0.502660
O2    O     O_R   0.590110 0.052200 0.000010 -0.503992
O3    O     O_R   0.052200 0.409890 0.000010 -0.499847
O4    O     O_R   0.409890 0.947800 0.000010 -0.481782
O5    O     O_R   0.947800 0.409890 0.999990 -0.501370
O6    O     O_R   0.590110 0.947800 0.999990 -0.482385
O7    O     O_R   0.052200 0.590110 0.999990 -0.503130
O8    O     O_R   0.409890 0.052200 0.999990 -0.503693
O9    O     O_R   0.447790 0.999910 0.564880 -0.501650
O10   O     O_R   0.999910 0.552210 0.564880 -0.485655
O11   O     O_R   0.552210 0.000090 0.564880 -0.484190
O12   O     O_R   0.090110 0.552200 0.500010 -0.481659
O13   O     O_R   0.000090 0.447790 0.564880 -0.498881
O14   O     O_R   0.447790 0.000090 0.435120 -0.499114
O15   O     O_R   0.999910 0.447790 0.435120 -0.504387
O16   O     O_R   0.552210 0.999910 0.435120 -0.485340
O17   O     O_R   0.000090 0.552210 0.435120 -0.486690
O18   O     O_R   0.947790 0.499910 0.064880 -0.495315
O19   O     O_R   0.499910 0.052210 0.064880 -0.501345
O20   O     O_R   0.052210 0.500090 0.064880 -0.491705
O21   O     O_R   0.500090 0.947790 0.064880 -0.484943
O22   O     O_R   0.947790 0.500090 0.935120 -0.483504
O23   O     O_R   0.552200 0.909890 0.500010 -0.483552
O24   O     O_R   0.499910 0.947790 0.935120 -0.484831
O25   O     O_R   0.052210 0.499910 0.935120 -0.501288
O26   O     O_R   0.500090 0.052210 0.935120 -0.499559
O27   O     O_R   0.409850 0.499950 0.462440 -0.499523
O28   O     O_R   0.499950 0.590150 0.462440 -0.498691
O29   O     O_R   0.590150 0.500050 0.462440 -0.509196
O30   O     O_R   0.500050 0.409850 0.462440 -0.511733
O31   O     O_R   0.409850 0.500050 0.537560 -0.511562
O32   O     O_R   0.499950 0.409850 0.537560 -0.499413
O33   O     O_R   0.590150 0.499950 0.537560 -0.498576
O34   O     O_R   0.909890 0.447800 0.500010 -0.505384
O35   O     O_R   0.500050 0.590150 0.537560 -0.508886
O36   O     O_R   0.909850 0.999950 0.962440 -0.508864
O37   O     O_R   0.999950 0.090150 0.962440 -0.508961
O38   O     O_R   0.090150 0.000050 0.962440 -0.500755
O39   O     O_R   0.000050 0.909850 0.962440 -0.497858
O40   O     O_R   0.909850 0.000050 0.037560 -0.505024
O41   O     O_R   0.999950 0.909850 0.037560 -0.508861
O42   O     O_R   0.090150 0.999950 0.037560 -0.511047
O43   O     O_R   0.000050 0.090150 0.037560 -0.510326
O44   O     O_R   0.447800 0.909890 0.499990 -0.505020
O45   O     O_R   0.090110 0.447800 0.499990 -0.502351
O46   O     O_R   0.552200 0.090110 0.499990 -0.481895
O47   O     O_R   0.909890 0.552200 0.499990 -0.483100
O48   O     O_R   0.947800 0.590110 0.000010 -0.480201

loop_
_geom_bond_atom_site_label_1
_geom_bond_atom_site_label_2
_ccdc_geom_bond_type
C101  C107  A    
Cu12  O29   S    
Cu8   O48   S    
C8    C26   A    
C91   C166  A    
C133  C151  A    
Cu8   O22   S    
C176  C197  S    
C18   C47   A    
C155  C182  A    
C41   C67   A    
C165  C187  A    
C49   C60   A    
Cu3   O39   S    
C50   C59   A    
C164  C186  A    
C147  C164  A    
C122  H30   S    
C200  O14   A    
C84   I13   S    
C128  C145  A    
Cu10  O3    S    
C94   C111  A    
C132  C150  A    
C157  O6    A    
C95   I8    S    
C36   C53   A    
C45   C56   A    
C78   C96   A    
C7    O24   A    
C197  O41   A    
C67   H16   S    
C85   C103  A    
C93   C110  A    
C101  C130  A    
C153  C180  A    
C168  C187  S    
C148  C165  A    
C39   C65   A    
C135  O47   A    
C36   C62   A    
Cu11  O21   S    
Cu8   O18   S    
C31   C200  S    
C37   C63   A    
C156  C183  A    
C80   I9    S    
C38   C64   A    
C5    O21   A    
Cu1   O9    S    
C1    C181  S    
C69   H17   S    
C179  C188  S    
Cu9   O8    S    
C34   C61   A    
Cu10  O7    S    
Cu7   O15   S    
C108  C113  A    
C196  O38   A    
C103  Cl1   S    
C106  Cl6   S    
C50   C76   A    
C42   C55   A    
C152  C170  A    
C57   Cl16  S    
C11   C27   A    
C40   C55   A    
C76   H25   S    
C123  C141  A    
C4    O18   A    
Cu11  O4    S    
Cu9   O19   S    
C81   C156  A    
C113  Cl21  S    
C16   C40   A    
C3    O17   A    
C8    H1    S    
C66   H15   S    
C191  O28   A    
C166  C188  A    
C131  C149  A    
C120  C138  A    
C110  C116  A    
Cu8   O5    S    
C118  C136  A    
C61   H9    S    
Cu3   O37   S    
C200  O16   A    
C99   Cl31  S    
Cu1   O44   S    
C119  H27   S    
C15   H46   S    
C120  H28   S    
C92   I5    S    
C110  Cl2   S    
C168  O3    A    
C94   C170  A    
C136  C153  A    
C66   C70   A    
C38   C53   A    
C170  C185  A    
C134  H42   S    
C198  O11   A    
C6    O22   A    
C199  O10   A    
C92   C109  A    
C35   Cl14  S    
C107  Cl5   S    
C192  O33   A    
C46   Cl15  S    
C112  O45   A    
C19   C30   A    
C143  C161  A    
Cu2   Cu12  S    
C80   C97   A    
C84   C102  A    
C126  C143  A    
C115  Cl22  S    
Cu5   O17   S    
C101  Cl20  S    
C108  Cl8   S    
C86   C104  A    
C131  H39   S    
Cu5   O47   S    
C118  Cl26  S    
C193  O30   A    
Cu12  O28   S    
C7    C26   S    
Cu7   O13   S    
C17   C45   A    
C143  C172  A    
C22   H6    S    
C32   C199  S    
C82   C158  A    
C151  C177  A    
C39   C54   A    
C91   I4    S    
C4    O20   A    
C96   C190  A    
C52   C60   A    
C140  C158  A    
C197  O39   A    
C90   C129  A    
C141  C159  A    
C3    O15   A    
Cu9   O2    S    
C49   C75   A    
C11   H34   S    
Cu2   O32   S    
C5    O19   A    
Cu10  O20   S    
Cu4   O41   S    
C20   C44   A    
C123  H31   S    
C142  C173  A    
C121  H29   S    
C115  C132  A    
C194  O36   A    
Cu1   O14   S    
C135  O34   A    
C129  C147  A    
C157  O2    A    
C175  C192  S    
C37   C52   A    
C2    C120  A    
C78   I1    S    
C145  C163  A    
C100  Cl23  S    
C87   I16   S    
C88   C164  A    
C198  O9    A    
C69   C72   A    
C13   C121  A    
C147  C177  A    
C87   C105  A    
Cu7   O34   S    
C195  O43   A    
C16   H47   S    
C141  C174  A    
C114  Cl4   S    
C14   C29   A    
C35   C100  A    
C64   H13   S    
C48   C59   A    
C189  O31   A    
C70   H18   S    
C193  O32   A    
C194  O40   A    
C196  O42   A    
C180  C196  S    
C18   C31   A    
C112  O12   A    
C174  C191  S    
C151  C169  A    
Cu10  O25   S    
C111  C117  A    
C121  C139  A    
C35   C123  A    
C68   Cl17  S    
C122  C140  A    
C12   H44   S    
C158  C184  A    
C33   C198  S    
Cu2   O31   S    
C9    C38   A    
C161  C181  A    
Cu4   O43   S    
C6    O25   A    
C51   C60   A    
C127  H35   S    
C136  H43   S    
C128  H36   S    
C25   C33   A    
C85   I14   S    
C138  C155  A    
C55   C56   A    
C17   C30   A    
C85   C161  A    
C82   C99   A    
C13   Cl11  S    
C46   C125  A    
C119  C190  A    
Cu11  O24   S    
C84   C160  A    
C93   C169  A    
C171  C188  A    
C12   C28   A    
C7    O26   A    
C169  C186  A    
C63   C77   A    
C192  O29   A    
C199  O13   A    
C81   C98   A    
C95   C114  A    
Cu3   O38   S    
C154  C181  A    
C146  O7    A    
C22   C33   A    
C137  C172  A    
C23   H7    S    
C179  O8    A    
C146  C185  S    
C2    C97   A    
C44   C58   A    
C148  C178  A    
Cu3   Cu4   S    
C67   C73   A    
C4    C29   S    
C40   C66   A    
C172  C193  S    
C117  C134  A    
C19   C43   A    
C75   H24   S    
C71   H19   S    
C57   C103  A    
C126  H33   S    
C72   H20   S    
C177  C194  S    
Cu4   O40   S    
C47   C73   A    
Cu6   O46   S    
C78   C154  A    
C149  C180  A    
C116  Cl24  S    
Cu1   Cu6   S    
C51   C77   A    
C162  C184  A    
C12   C41   A    
C48   C74   A    
C145  C176  A    
Cu5   O10   S    
C134  C152  A    
C89   C107  A    
C138  C173  A    
C24   C122  A    
C68   C127  A    
C90   C106  A    
C73   H21   S    
C86   I15   S    
C132  H40   S    
C189  O27   A    
C133  H41   S    
C93   I6    S    
C8    C37   A    
C9    C27   A    
C104  Cl27  S    
C1    O1    A    
C91   C108  A    
Cu3   O36   S    
C68   C104  A    
C116  C133  A    
C17   H48   S    
C34   C52   A    
C163  C185  A    
C23   C32   A    
C65   H14   S    
C92   C167  A    
C102  Cl12  S    
C15   C28   A    
C140  C175  A    
C150  C167  A    
C137  C154  A    
C88   I2    S    
C127  C144  A    
C25   C49   A    
Cu7   O45   S    
C80   C155  A    
C62   C74   A    
C168  O5    A    
Cu5   O12   S    
C191  O35   A    
C95   C171  A    
C124  O44   A    
C125  H32   S    
C87   C163  A    
C79   C128  A    
C24   C99   A    
Cu4   O42   S    
C81   I10   S    
C53   C59   A    
C19   H3    S    
C83   I12   S    
C61   C75   A    
Cu2   O35   S    
C46   C102  A    
C117  Cl25  S    
C11   C36   A    
C190  Cl9   S    
C21   H5    S    
C25   H8    S    
C124  O23   A    
Cu6   O11   S    
C79   C105  A    
C44   C71   A    
C13   C98   A    
C63   H11   S    
C1    O46   A    
C86   C162  A    
C96   Cl30  S    
C94   I7    S    
C15   C39   A    
C150  C178  A    
C10   C26   A    
C45   C72   A    
Cu12  O30   S    
C111  Cl32  S    
C135  C184  S    
C14   H45   S    
C160  C182  A    
C21   C50   A    
C105  Cl7   S    
C98   Cl28  S    
C21   C32   A    
C97   Cl29  S    
C2    Cl10  S    
Cu12  O27   S    
C10   H23   S    
C130  C148  A    
C119  C137  A    
C195  O37   A    
C157  C186  S    
C124  C183  S    
C179  O4    A    
C57   C126  A    
C89   I3    S    
C79   Cl18  S    
C112  C182  S    
C16   C29   A    
C65   C71   A    
C42   C69   A    
Cu6   O23   S    
Cu9   Cu11  S    
C3    C30   S    
C5    C28   S    
C88   C106  A    
C24   Cl13  S    
C18   H2    S    
C6    C27   S    
C125  C142  A    
C167  C187  A    
C153  C171  A    
Cu8   Cu10  S    
C64   C76   A    
C10   C34   A    
C129  H37   S    
C89   C165  A    
C90   Cl19  S    
C114  C118  A    
C146  O48   A    
C43   C70   A    
Cu5   Cu7   S    
Cu6   O16   S    
C9    H12   S    
C82   I11   S    
C54   C58   A    
C62   H10   S    
Cu2   O33   S    
C109  Cl3   S    
C23   C48   A    
C113  C131  A    
C144  C162  A    
C149  C166  A    
C142  C160  A    
C139  C174  A    
C178  C195  S    
C14   C42   A    
C83   C100  A    
Cu1   O1    S    
Cu9   O26   S    
C130  H38   S    
C47   C58   A    
C74   H22   S    
C139  C156  A    
C144  C175  A    
C173  C189  S    
C41   C54   A    
C109  C115  A    
C152  C176  A    
C43   C56   A    
C20   H4    S    
C83   C159  A    
Cu11  O6    S    
C77   H26   S    
C159  C183  A    
C22   C51   A    
C20   C31   A    
