data_mof_unit_8727.cif
_audit_creation_date              2012-12-10T19:29:38-0500
_audit_creation_method            fapswitch 2.2
_symmetry_space_group_name_H-M    P1
_symmetry_Int_Tables_number       1
_space_group_crystal_system       triclinic
_cell_length_a                    22.352828
_cell_length_b                    22.166103
_cell_length_c                    14.923726
_cell_angle_alpha                 89.532537
_cell_angle_beta                  90.015375
_cell_angle_gamma                 89.935059
_cell_volume                      7394.08331317

loop_
_atom_site_label
_atom_site_type_symbol
_atom_type_description
_atom_site_fract_x
_atom_site_fract_y
_atom_site_fract_z
_atom_type_partial_charge
C1    C     C_R   0.418228 0.919577 0.500239 0.910016
C2    C     C_R   0.581039 0.081251 0.499726 0.904778
C3    C     C_R   0.581110 0.918739 0.500335 0.897736
C4    C     C_R   0.418468 0.080743 0.499749 0.907634
C5    C     C_R   0.918229 0.419576 0.500239 0.910019
C6    C     C_R   0.081039 0.581252 0.499726 0.904779
C7    C     C_R   0.081110 0.418739 0.500335 0.897738
C8    C     C_R   0.918467 0.580743 0.499749 0.907657
C9    C     C_1   0.329246 0.153916 0.500736 0.021777
C10   C     C_1   0.658143 0.832382 0.500758 -0.050880
C11   C     C_1   0.661726 0.163833 0.496618 0.028432
C12   C     C_1   0.335745 0.838982 0.500977 -0.051647
C13   C     C_1   0.829242 0.653911 0.500732 0.021784
C14   C     C_1   0.158143 0.332382 0.500759 -0.050880
C15   C     C_1   0.161721 0.663838 0.496616 0.028428
C16   C     C_1   0.835748 0.338979 0.500978 -0.051642
C17   C     C_1   0.499900 0.999918 0.189758 0.014315
C18   C     C_1   0.499538 0.999715 0.810276 0.031813
C19   C     C_1   0.999903 0.499920 0.189758 0.014313
C20   C     C_1   0.999538 0.499715 0.810276 0.031819
C21   C     C_3   0.524954 0.948054 0.971061 0.086222
C22   C     C_3   0.473692 0.050988 0.029018 0.088525
C23   C     C_3   0.556414 0.996218 0.029439 0.089138
C24   C     C_3   0.442283 0.002750 0.970653 0.090851
C25   C     C_3   0.024960 0.448058 0.971061 0.086227
C26   C     C_3   0.973689 0.550988 0.029019 0.088529
C27   C     C_3   0.056417 0.496225 0.029436 0.089130
C28   C     C_3   0.942283 0.502747 0.970657 0.090845
C29   C     C_3   0.687161 0.716314 0.485144 0.448868
C30   C     C_3   0.294586 0.263386 0.518422 0.416124
C31   C     C_3   0.294345 0.734253 0.445245 0.458253
C32   C     C_3   0.703646 0.267284 0.550355 0.413980
C33   C     C_3   0.187160 0.216311 0.485179 0.448842
C34   C     C_3   0.794582 0.763380 0.518450 0.416116
C35   C     C_3   0.794352 0.234247 0.445251 0.458253
C36   C     C_3   0.203643 0.767288 0.550358 0.413986
C37   C     C_3   0.242105 0.212232 0.422423 -0.066796
C38   C     C_3   0.739766 0.767550 0.581871 -0.145807
C39   C     C_3   0.771051 0.197731 0.526442 -0.092901
C40   C     C_3   0.226472 0.804265 0.468184 -0.151932
C41   C     C_3   0.742117 0.712245 0.422407 -0.066782
C42   C     C_3   0.239781 0.267567 0.581863 -0.145764
C43   C     C_3   0.271046 0.697734 0.526435 -0.092899
C44   C     C_3   0.726477 0.304259 0.468180 -0.151936
C45   C     C_1   0.370378 0.120564 0.499497 -0.176261
C46   C     C_1   0.623165 0.872359 0.501161 -0.200535
C47   C     C_1   0.624686 0.125957 0.498679 -0.192139
C48   C     C_1   0.373194 0.876428 0.500814 -0.198196
C49   C     C_1   0.870375 0.620561 0.499496 -0.176268
C50   C     C_1   0.123165 0.372360 0.501162 -0.200529
C51   C     C_1   0.124683 0.625960 0.498678 -0.192140
C52   C     C_1   0.873196 0.376426 0.500814 -0.198219
C53   C     C_3   0.226785 0.199918 0.566410 0.423501
C54   C     C_3   0.755770 0.779776 0.436934 0.400914
C55   C     C_3   0.729645 0.245575 0.413420 0.450079
C56   C     C_3   0.267956 0.756092 0.582663 0.395040
C57   C     C_3   0.726772 0.699905 0.566385 0.423485
C58   C     C_3   0.255759 0.279766 0.436916 0.400932
C59   C     C_3   0.229637 0.745583 0.413419 0.450079
C60   C     C_3   0.767958 0.256090 0.582665 0.395044
C61   C     C_3   0.281119 0.196046 0.503519 -0.168678
C62   C     C_3   0.700276 0.783977 0.499016 -0.228799
C63   C     C_3   0.706828 0.209203 0.494545 -0.164979
C64   C     C_3   0.291609 0.792655 0.500702 -0.229287
C65   C     C_3   0.781115 0.696042 0.503512 -0.168628
C66   C     C_3   0.200276 0.283977 0.499018 -0.228792
C67   C     C_3   0.206822 0.709209 0.494543 -0.164980
C68   C     C_3   0.791613 0.292651 0.500703 -0.229281
C69   C     C_3   0.468164 0.951495 0.030832 0.087508
C70   C     C_3   0.530584 0.047587 0.969557 0.083872
C71   C     C_3   0.968171 0.451495 0.030835 0.087510
C72   C     C_3   0.030581 0.547592 0.969554 0.083867
C73   C     C_3   0.499642 0.999745 0.089230 -0.082346
C74   C     C_3   0.499166 0.999435 0.910881 -0.082457
C75   C     C_3   0.999645 0.499748 0.089230 -0.082342
C76   C     C_3   0.999166 0.499435 0.910881 -0.082450
N1    N     N_1   0.500020 0.000000 0.268010 -0.089307
N2    N     N_1   0.499980 0.000000 0.731990 -0.090927
N3    N     N_1   0.000020 0.500000 0.268010 -0.089309
N4    N     N_1   0.999980 0.500000 0.731990 -0.090929
O1    O     O_R   0.438390 0.938390 0.574460 -0.619765
O2    O     O_R   0.561610 0.061610 0.425540 -0.614134
O3    O     O_R   0.561610 0.938390 0.425540 -0.609180
O4    O     O_R   0.438390 0.061610 0.574460 -0.618963
O5    O     O_R   0.938390 0.438390 0.574460 -0.619756
O6    O     O_R   0.061610 0.561610 0.425540 -0.614134
O7    O     O_R   0.061610 0.438390 0.425540 -0.609180
O8    O     O_R   0.938390 0.561610 0.574460 -0.618959
O9    O     O_R   0.438400 0.938390 0.425520 -0.608702
O10   O     O_R   0.561600 0.061610 0.574480 -0.602476
O11   O     O_R   0.561600 0.938390 0.574480 -0.611165
O12   O     O_R   0.438400 0.061610 0.425520 -0.611404
O13   O     O_R   0.938400 0.438390 0.425520 -0.608702
O14   O     O_R   0.061600 0.561610 0.574480 -0.602477
O15   O     O_R   0.061600 0.438390 0.574480 -0.611164
O16   O     O_R   0.938400 0.561610 0.425520 -0.611414
Zn1   Zn    Zn3+2 0.500000 0.000000 0.599450 0.954342
Zn2   Zn    Zn3+2 0.500000 0.000000 0.400550 0.951230
Zn3   Zn    Zn3+2 0.000000 0.500000 0.599450 0.954342
Zn4   Zn    Zn3+2 0.000000 0.500000 0.400550 0.951226
C77   C     C_3   0.564877 0.099638 0.924576 -0.402232
C78   C     C_3   0.592068 0.143894 0.991715 -0.362651
C79   C     C_3   0.628974 0.192185 0.943745 -0.871177
H1    H     H_    0.666511 0.171149 0.906487 0.266753
H2    H     H_    0.600462 0.218174 0.896176 0.261792
H3    H     H_    0.647807 0.223808 0.993695 0.251599
H4    H     H_    0.556201 0.166628 0.029894 0.228942
H5    H     H_    0.621395 0.119793 0.039973 0.231053
H6    H     H_    0.600729 0.080194 0.882183 0.199620
H7    H     H_    0.533995 0.124255 0.878872 0.197308
C80   C     C_3   0.434921 0.899806 0.078691 -0.404370
C81   C     C_3   0.404900 0.855757 0.014337 -0.373092
C82   C     C_3   0.376974 0.802873 0.065091 -0.859906
H8    H     H_    0.412370 0.776082 0.099277 0.257094
H9    H     H_    0.344306 0.819300 0.115441 0.268391
H10   H     H_    0.353279 0.773141 0.017236 0.253995
H11   H     H_    0.369116 0.879160 0.976203 0.225259
H12   H     H_    0.438123 0.837521 0.966671 0.233027
H13   H     H_    0.467151 0.875171 0.122185 0.195406
H14   H     H_    0.400630 0.919419 0.123734 0.194870
C83   C     C_3   0.064867 0.599646 0.924567 -0.402237
C84   C     C_3   0.092063 0.643902 0.991701 -0.362628
C85   C     C_3   0.128946 0.692207 0.943722 -0.871174
H15   H     H_    0.166481 0.671184 0.906441 0.266761
H16   H     H_    0.100418 0.718193 0.896172 0.261783
H17   H     H_    0.147783 0.723831 0.993669 0.251595
H18   H     H_    0.056199 0.666623 0.029904 0.228942
H19   H     H_    0.121408 0.619803 0.039938 0.231057
H20   H     H_    0.100716 0.580206 0.882165 0.199610
H21   H     H_    0.033980 0.624261 0.878870 0.197310
C86   C     C_3   0.934938 0.399800 0.078698 -0.404382
C87   C     C_3   0.904909 0.355754 0.014347 -0.373075
C88   C     C_3   0.877007 0.302857 0.065100 -0.859912
H22   H     H_    0.912417 0.276069 0.099261 0.257086
H23   H     H_    0.844347 0.319269 0.115471 0.268395
H24   H     H_    0.853308 0.273124 0.017249 0.253998
H25   H     H_    0.869110 0.379155 0.976243 0.225283
H26   H     H_    0.938123 0.337533 0.966653 0.233015
H27   H     H_    0.967177 0.375163 0.122176 0.195407
H28   H     H_    0.900653 0.419405 0.123758 0.194864
C89   C     C_3   0.244110 0.179093 0.332860 -0.312217
C90   C     C_3   0.199244 0.205475 0.265305 -0.310534
C91   C     C_3   0.201727 0.171758 0.176659 -0.913620
H29   H     H_    0.247101 0.175283 0.146768 0.262553
H30   H     H_    0.190441 0.123426 0.187211 0.265925
H31   H     H_    0.168920 0.191781 0.129070 0.251027
H32   H     H_    0.153118 0.202299 0.292591 0.241162
H33   H     H_    0.209388 0.253774 0.252254 0.246295
H34   H     H_    0.290150 0.182555 0.305198 0.209366
H35   H     H_    0.233898 0.130683 0.345273 0.199149
C92   C     C_3   0.736751 0.800650 0.671518 -0.348310
C93   C     C_3   0.779564 0.773386 0.741160 -0.330505
C94   C     C_3   0.783721 0.813076 0.823969 -0.910767
H36   H     H_    0.802109 0.858066 0.805728 0.259216
H37   H     H_    0.738885 0.818865 0.854738 0.265299
H38   H     H_    0.813891 0.791575 0.873993 0.252170
H39   H     H_    0.763213 0.728187 0.762090 0.229967
H40   H     H_    0.825023 0.768151 0.712260 0.239622
H41   H     H_    0.747724 0.848900 0.659680 0.187860
H42   H     H_    0.690250 0.798272 0.697535 0.206674
C95   C     C_3   0.792945 0.136305 0.560964 -0.311947
C96   C     C_3   0.859275 0.137221 0.586945 -0.329735
C97   C     C_3   0.876363 0.080745 0.640105 -0.903287
H43   H     H_    0.852280 0.079671 0.705198 0.266523
H44   H     H_    0.864897 0.039707 0.601699 0.263826
H45   H     H_    0.925242 0.080848 0.653442 0.255676
H46   H     H_    0.887074 0.139179 0.525490 0.215243
H47   H     H_    0.869440 0.177327 0.628258 0.245425
H48   H     H_    0.765383 0.123760 0.620228 0.219608
H49   H     H_    0.785607 0.102000 0.508203 0.190082
C98   C     C_3   0.205352 0.866890 0.436897 -0.348470
C99   C     C_3   0.138405 0.868925 0.414419 -0.354940
C100  C     C_3   0.114928 0.933609 0.413668 -0.888576
H50   H     H_    0.119448 0.953778 0.481248 0.258298
H51   H     H_    0.140122 0.961428 0.364279 0.267252
H52   H     H_    0.066872 0.933798 0.394769 0.252728
H53   H     H_    0.131022 0.849640 0.347102 0.214511
H54   H     H_    0.112104 0.842156 0.463637 0.242318
H55   H     H_    0.215614 0.899585 0.490761 0.192953
H56   H     H_    0.231543 0.880532 0.376806 0.211588
C101  C     C_3   0.744133 0.679122 0.332831 -0.312213
C102  C     C_3   0.699279 0.705520 0.265271 -0.310536
C103  C     C_3   0.701763 0.671809 0.176619 -0.913607
H57   H     H_    0.747140 0.675326 0.146738 0.262540
H58   H     H_    0.690464 0.623479 0.187159 0.265927
H59   H     H_    0.668964 0.691844 0.129027 0.251022
H60   H     H_    0.653150 0.702353 0.292547 0.241170
H61   H     H_    0.709436 0.753817 0.252233 0.246279
H62   H     H_    0.790177 0.682585 0.305186 0.209352
H63   H     H_    0.733915 0.630711 0.345222 0.199173
C104  C     C_3   0.236783 0.300674 0.671505 -0.348305
C105  C     C_3   0.279609 0.273412 0.741131 -0.330455
C106  C     C_3   0.283775 0.313101 0.823941 -0.910794
H64   H     H_    0.302149 0.358096 0.805693 0.259219
H65   H     H_    0.238946 0.318878 0.854732 0.265290
H66   H     H_    0.313962 0.291605 0.873947 0.252172
H67   H     H_    0.263269 0.228210 0.762062 0.230027
H68   H     H_    0.325065 0.268183 0.712214 0.239602
H69   H     H_    0.247755 0.348922 0.659654 0.187834
H70   H     H_    0.190287 0.298298 0.697541 0.206696
C107  C     C_3   0.292939 0.636306 0.560951 -0.311947
C108  C     C_3   0.359271 0.637219 0.586925 -0.329735
C109  C     C_3   0.376358 0.580742 0.640083 -0.903285
H71   H     H_    0.352278 0.579669 0.705178 0.266523
H72   H     H_    0.364886 0.539705 0.601678 0.263824
H73   H     H_    0.425237 0.580842 0.653413 0.255680
H74   H     H_    0.387067 0.639176 0.525467 0.215246
H75   H     H_    0.369439 0.677324 0.628239 0.245423
H76   H     H_    0.265379 0.623761 0.620217 0.219609
H77   H     H_    0.285598 0.602003 0.508188 0.190081
C110  C     C_3   0.705356 0.366882 0.436886 -0.348472
C111  C     C_3   0.638410 0.368916 0.414405 -0.354954
C112  C     C_3   0.614931 0.433599 0.413652 -0.888569
H78   H     H_    0.619448 0.453767 0.481233 0.258296
H79   H     H_    0.640126 0.461419 0.364266 0.267257
H80   H     H_    0.566877 0.433786 0.394750 0.252729
H81   H     H_    0.631030 0.349631 0.347087 0.214511
H82   H     H_    0.612108 0.342145 0.463620 0.242317
H83   H     H_    0.715618 0.399580 0.490748 0.192961
H84   H     H_    0.731549 0.380522 0.376796 0.211586
O17   O     O_3   0.635216 0.682352 0.465058 -0.639262
C113  C     C_3   0.581851 0.712435 0.488097 0.078227
H85   H     H_    0.544375 0.685988 0.459363 0.157353
H86   H     H_    0.578833 0.757345 0.455503 0.141071
C114  C     C_3   0.572473 0.715276 0.589921 -0.280411
H87   H     H_    0.574539 0.668938 0.618771 0.247114
H88   H     H_    0.607987 0.742756 0.621462 0.232862
C115  C     C_3   0.512141 0.743373 0.612544 -1.032267
H89   H     H_    0.508970 0.789737 0.584022 0.272129
H90   H     H_    0.507051 0.745885 0.686431 0.276648
H91   H     H_    0.475343 0.715357 0.585406 0.252410
O18   O     O_3   0.354322 0.280730 0.535642 -0.633604
C116  C     C_3   0.359543 0.343346 0.549970 0.113870
H92   H     H_    0.374575 0.350301 0.620086 0.150594
H93   H     H_    0.317202 0.368958 0.541642 0.102830
C117  C     C_3   0.407035 0.368731 0.486366 -0.313988
H94   H     H_    0.450650 0.346365 0.500257 0.228362
H95   H     H_    0.394262 0.358922 0.416037 0.239861
C118  C     C_3   0.414211 0.436689 0.497067 -1.008407
H96   H     H_    0.371477 0.460065 0.481138 0.259478
H97   H     H_    0.449237 0.453443 0.450393 0.273408
H98   H     H_    0.427923 0.447369 0.566695 0.270409
O19   O     O_3   0.335872 0.711080 0.382556 -0.612308
C119  C     C_3   0.394954 0.730681 0.398266 0.078862
H99   H     H_    0.424979 0.691217 0.389329 0.147125
H100  H     H_    0.403072 0.746585 0.467670 0.118680
C120  C     C_3   0.412064 0.778441 0.328125 -0.303339
H101  H     H_    0.407143 0.758892 0.260270 0.225646
H102  H     H_    0.381400 0.817710 0.332370 0.234331
C121  C     C_3   0.476444 0.799690 0.340020 -0.958653
H103  H     H_    0.483555 0.816826 0.408912 0.263113
H104  H     H_    0.486119 0.836640 0.291478 0.270787
H105  H     H_    0.507880 0.761907 0.327292 0.245379
O20   O     O_3   0.652905 0.278651 0.604220 -0.631794
C122  C     C_3   0.657429 0.334686 0.648246 0.122491
H106  H     H_    0.620397 0.364168 0.624394 0.150352
H107  H     H_    0.699660 0.359529 0.634890 0.110285
C123  C     C_3   0.650298 0.324722 0.749160 -0.321224
H108  H     H_    0.604672 0.307208 0.763397 0.221369
H109  H     H_    0.683170 0.290533 0.772850 0.247391
C124  C     C_3   0.659840 0.383192 0.800539 -1.002009
H110  H     H_    0.705725 0.400740 0.788686 0.257676
H111  H     H_    0.654196 0.374510 0.873425 0.272312
H112  H     H_    0.626706 0.417756 0.778953 0.272171
O21   O     O_3   0.135214 0.182342 0.465127 -0.639284
C125  C     C_3   0.081850 0.212434 0.488152 0.078222
H113  H     H_    0.044372 0.185981 0.459436 0.157345
H114  H     H_    0.078833 0.257335 0.455534 0.141071
C126  C     C_3   0.072477 0.215300 0.589975 -0.280414
H115  H     H_    0.074541 0.168968 0.618849 0.247092
H116  H     H_    0.107995 0.242784 0.621498 0.232874
C127  C     C_3   0.012148 0.243407 0.612588 -1.032238
H117  H     H_    0.008981 0.289766 0.584044 0.272132
H118  H     H_    0.007061 0.245935 0.686473 0.276643
H119  H     H_    0.975347 0.215388 0.585465 0.252405
O22   O     O_3   0.854315 0.780718 0.535708 -0.633619
C128  C     C_3   0.859538 0.843334 0.550029 0.113904
H120  H     H_    0.874572 0.850292 0.620143 0.150593
H121  H     H_    0.817197 0.868947 0.541703 0.102832
C129  C     C_3   0.907030 0.868715 0.486419 -0.313987
H122  H     H_    0.950644 0.846350 0.500311 0.228357
H123  H     H_    0.894256 0.858902 0.416092 0.239891
C130  C     C_3   0.914207 0.936674 0.497111 -1.008423
H124  H     H_    0.871471 0.960049 0.481186 0.259470
H125  H     H_    0.949230 0.953425 0.450430 0.273408
H126  H     H_    0.927923 0.947357 0.566736 0.270411
O23   O     O_3   0.835881 0.211073 0.382566 -0.612306
C131  C     C_3   0.894963 0.230676 0.398278 0.078867
H127  H     H_    0.924988 0.191212 0.389346 0.147122
H128  H     H_    0.903078 0.246582 0.467682 0.118677
C132  C     C_3   0.912074 0.278433 0.328134 -0.303343
H129  H     H_    0.907154 0.258882 0.260280 0.225652
H130  H     H_    0.881409 0.317702 0.332375 0.234330
C133  C     C_3   0.976453 0.299683 0.340032 -0.958660
H131  H     H_    0.983561 0.316823 0.408922 0.263114
H132  H     H_    0.986130 0.336630 0.291485 0.270790
H133  H     H_    0.007889 0.261899 0.327312 0.245378
O24   O     O_3   0.152903 0.778654 0.604227 -0.631797
C134  C     C_3   0.157431 0.834686 0.648260 0.122490
H134  H     H_    0.120401 0.864172 0.624413 0.150354
H135  H     H_    0.199663 0.859528 0.634905 0.110287
C135  C     C_3   0.150302 0.824716 0.749172 -0.321207
H136  H     H_    0.104677 0.807201 0.763409 0.221369
H137  H     H_    0.183175 0.790525 0.772857 0.247395
C136  C     C_3   0.159845 0.883183 0.800559 -1.002004
H138  H     H_    0.205730 0.900732 0.788706 0.257659
H139  H     H_    0.154202 0.874496 0.873444 0.272314
H140  H     H_    0.126711 0.917748 0.778979 0.272169
O25   O     O_3   0.775716 0.814883 0.362972 -0.644552
C137  C     C_3   0.760664 0.876551 0.370288 0.097112
H141  H     H_    0.800636 0.903263 0.350650 0.161219
H142  H     H_    0.749173 0.890999 0.439163 0.121367
C138  C     C_3   0.709943 0.892252 0.305183 -0.357362
H143  H     H_    0.724151 0.881735 0.235704 0.215980
H144  H     H_    0.669948 0.864438 0.320731 0.228062
C139  C     C_3   0.693341 0.958994 0.310540 -0.917942
H145  H     H_    0.681684 0.971335 0.380369 0.262053
H146  H     H_    0.654020 0.968359 0.267270 0.266881
H147  H     H_    0.731305 0.987416 0.287447 0.255352
O26   O     O_3   0.203385 0.160935 0.633471 -0.644674
C140  C     C_3   0.246407 0.120076 0.667373 0.083725
H148  H     H_    0.236468 0.112977 0.739627 0.152117
H149  H     H_    0.292914 0.137793 0.665052 0.131925
C141  C     C_3   0.240571 0.059062 0.620413 -0.315356
H150  H     H_    0.194208 0.041875 0.629061 0.227688
H151  H     H_    0.248873 0.064578 0.547475 0.221372
C142  C     C_3   0.284291 0.012579 0.658826 -0.997237
H152  H     H_    0.331046 0.028643 0.651415 0.286485
H153  H     H_    0.279529 0.969357 0.622358 0.254585
H154  H     H_    0.274804 0.004214 0.730899 0.265382
O27   O     O_3   0.284279 0.753240 0.674342 -0.640665
C143  C     C_3   0.309302 0.807579 0.705496 0.092639
H155  H     H_    0.291525 0.815465 0.773895 0.164061
H156  H     H_    0.296849 0.848026 0.665261 0.125311
C144  C     C_3   0.377274 0.801369 0.712231 -0.355386
H157  H     H_    0.388732 0.761884 0.755339 0.226723
H158  H     H_    0.396265 0.793456 0.644780 0.227939
C145  C     C_3   0.405313 0.857862 0.751838 -0.940829
H159  H     H_    0.389639 0.898889 0.715841 0.289048
H160  H     H_    0.454788 0.855077 0.746926 0.268323
H161  H     H_    0.392530 0.861787 0.823122 0.238768
O28   O     O_3   0.716728 0.239859 0.321034 -0.610742
C146  C     C_3   0.655124 0.231137 0.304644 0.083765
H162  H     H_    0.640932 0.265039 0.253697 0.148517
H163  H     H_    0.625903 0.237911 0.364204 0.128489
C147  C     C_3   0.645357 0.168439 0.265020 -0.317709
H164  H     H_    0.671055 0.164581 0.201540 0.224512
H165  H     H_    0.662100 0.133296 0.312189 0.232597
C148  C     C_3   0.579328 0.157105 0.245647 -0.962421
H166  H     H_    0.552740 0.159582 0.308358 0.285280
H167  H     H_    0.573841 0.111529 0.216576 0.260690
H168  H     H_    0.562107 0.191110 0.197020 0.248750
O29   O     O_3   0.275687 0.314862 0.362932 -0.644537
C149  C     C_3   0.260648 0.376533 0.370243 0.097132
H169  H     H_    0.300620 0.403236 0.350585 0.161212
H170  H     H_    0.249169 0.390988 0.439119 0.121363
C150  C     C_3   0.209917 0.392236 0.305157 -0.357373
H171  H     H_    0.224111 0.381713 0.235675 0.215966
H172  H     H_    0.169921 0.364427 0.320726 0.228072
C151  C     C_3   0.193324 0.458981 0.310515 -0.917947
H173  H     H_    0.181686 0.471329 0.380348 0.262049
H174  H     H_    0.153992 0.468349 0.267269 0.266883
H175  H     H_    0.231284 0.487397 0.287393 0.255366
O30   O     O_3   0.703363 0.660896 0.633406 -0.644650
C152  C     C_3   0.746405 0.620088 0.667389 0.083745
H176  H     H_    0.736452 0.613023 0.739646 0.152085
H177  H     H_    0.792902 0.637834 0.665071 0.131916
C153  C     C_3   0.740626 0.559043 0.620500 -0.315371
H178  H     H_    0.694272 0.541829 0.629137 0.227674
H179  H     H_    0.748945 0.564525 0.547561 0.221362
C154  C     C_3   0.784366 0.512610 0.658998 -0.997209
H180  H     H_    0.831113 0.528702 0.651611 0.286506
H181  H     H_    0.779649 0.469365 0.622575 0.254597
H182  H     H_    0.774858 0.504272 0.731071 0.265387
O31   O     O_3   0.784280 0.253242 0.674345 -0.640663
C155  C     C_3   0.809294 0.307586 0.705497 0.092648
H183  H     H_    0.791512 0.315472 0.773893 0.164062
H184  H     H_    0.796842 0.348029 0.665256 0.125287
C156  C     C_3   0.877267 0.301383 0.712245 -0.355390
H185  H     H_    0.888726 0.261901 0.755358 0.226725
H186  H     H_    0.896264 0.293470 0.644798 0.227945
C157  C     C_3   0.905296 0.357881 0.751852 -0.940829
H187  H     H_    0.889624 0.398904 0.715844 0.289051
H188  H     H_    0.954772 0.355098 0.746954 0.268317
H189  H     H_    0.892504 0.361808 0.823132 0.238768
O32   O     O_3   0.216718 0.739871 0.321033 -0.610744
C158  C     C_3   0.155113 0.731147 0.304647 0.083764
H190  H     H_    0.140919 0.765050 0.253702 0.148517
H191  H     H_    0.125894 0.737918 0.364209 0.128489
C159  C     C_3   0.145348 0.668450 0.265019 -0.317708
H192  H     H_    0.171044 0.664595 0.201537 0.224507
H193  H     H_    0.162093 0.633306 0.312185 0.232595
C160  C     C_3   0.079319 0.657113 0.245650 -0.962417
H194  H     H_    0.052732 0.659587 0.308362 0.285276
H195  H     H_    0.073833 0.611538 0.216576 0.260690
H196  H     H_    0.062095 0.691119 0.197026 0.248750
C161  C     C_3   0.618255 0.991508 0.073676 -0.417413
C162  C     C_3   0.669940 0.990961 0.006208 -0.352099
C163  C     C_3   0.729491 0.979657 0.053413 -0.874587
H197  H     H_    0.737761 0.014925 0.104408 0.266513
H198  H     H_    0.729365 0.934603 0.086486 0.260021
H199  H     H_    0.766357 0.980912 0.003581 0.250680
H200  H     H_    0.663191 0.955175 0.955867 0.224774
H201  H     H_    0.672639 0.034926 0.970649 0.228189
H202  H     H_    0.624048 0.029891 0.120171 0.192766
H203  H     H_    0.619310 0.949651 0.114935 0.197689
C164  C     C_3   0.380490 0.005611 0.925759 -0.414395
C165  C     C_3   0.328640 0.009797 0.992661 -0.353690
C166  C     C_3   0.268573 0.009815 0.944060 -0.891890
H204  H     H_    0.265580 0.048994 0.897354 0.257109
H205  H     H_    0.263006 0.967417 0.905783 0.260334
H206  H     H_    0.231728 0.013085 0.993677 0.255942
H207  H     H_    0.329628 0.971063 0.039972 0.226727
H208  H     H_    0.331981 0.051821 0.031954 0.227238
H209  H     H_    0.379272 0.045105 0.879552 0.195206
H210  H     H_    0.374931 0.964855 0.883910 0.198876
C167  C     C_3   0.552037 0.892220 0.926031 -0.406478
C168  C     C_3   0.577169 0.845646 0.992560 -0.358232
C169  C     C_3   0.597390 0.788792 0.944119 -0.877238
H211  H     H_    0.558712 0.767011 0.910662 0.262826
H212  H     H_    0.631862 0.800021 0.893103 0.260441
H213  H     H_    0.616876 0.756374 0.993191 0.248668
H214  H     H_    0.616166 0.864612 0.028434 0.226758
H215  H     H_    0.542788 0.832757 0.042530 0.228404
H216  H     H_    0.517006 0.871040 0.884149 0.198691
H217  H     H_    0.588066 0.906987 0.879647 0.192829
C170  C     C_3   0.445515 0.106679 0.072701 -0.408235
C171  C     C_3   0.421872 0.153095 0.004616 -0.364645
C172  C     C_3   0.394838 0.207386 0.052087 -0.871120
H218  H     H_    0.356988 0.192978 0.095435 0.260541
H219  H     H_    0.429232 0.229959 0.093785 0.263366
H220  H     H_    0.377879 0.240263 0.001612 0.246996
H221  H     H_    0.458517 0.169204 0.960649 0.227047
H222  H     H_    0.386948 0.132735 0.961829 0.226255
H223  H     H_    0.408497 0.091561 0.117057 0.197382
H224  H     H_    0.479428 0.128108 0.116318 0.202095
C173  C     C_3   0.118259 0.491524 0.073674 -0.417418
C174  C     C_3   0.169944 0.490968 0.006206 -0.352100
C175  C     C_3   0.229503 0.479731 0.053424 -0.874578
H225  H     H_    0.237756 0.515040 0.104361 0.266491
H226  H     H_    0.229402 0.434700 0.086570 0.260054
H227  H     H_    0.266367 0.480969 0.003588 0.250676
H228  H     H_    0.163216 0.455145 0.955917 0.224782
H229  H     H_    0.172617 0.534912 0.970586 0.228189
H230  H     H_    0.124050 0.529915 0.120155 0.192790
H231  H     H_    0.119318 0.449674 0.114946 0.197673
C176  C     C_3   0.880486 0.505601 0.925773 -0.414429
C177  C     C_3   0.828639 0.509791 0.992682 -0.353645
C178  C     C_3   0.768565 0.509730 0.944099 -0.891880
H232  H     H_    0.765531 0.548880 0.897345 0.257111
H233  H     H_    0.763027 0.467303 0.905878 0.260324
H234  H     H_    0.731721 0.512997 0.993717 0.255931
H235  H     H_    0.829666 0.471090 0.040051 0.226727
H236  H     H_    0.831956 0.551846 0.031908 0.227221
H237  H     H_    0.879261 0.545091 0.879557 0.195197
H238  H     H_    0.874928 0.464840 0.883934 0.198906
C179  C     C_3   0.052049 0.392227 0.926030 -0.406481
C180  C     C_3   0.077172 0.345646 0.992557 -0.358259
C181  C     C_3   0.097447 0.288817 0.944102 -0.877220
H239  H     H_    0.058798 0.267027 0.910585 0.262833
H240  H     H_    0.131940 0.300079 0.893135 0.260431
H241  H     H_    0.116923 0.256394 0.993175 0.248674
H242  H     H_    0.116140 0.364622 0.028489 0.226752
H243  H     H_    0.042772 0.332723 0.042478 0.228414
H244  H     H_    0.017023 0.371048 0.884136 0.198675
H245  H     H_    0.088082 0.406999 0.879658 0.192849
C182  C     C_3   0.945508 0.606678 0.072700 -0.408241
C183  C     C_3   0.921869 0.653095 0.004613 -0.364634
C184  C     C_3   0.894836 0.707388 0.052082 -0.871140
H246  H     H_    0.856992 0.692981 0.095443 0.260532
H247  H     H_    0.929233 0.729967 0.093767 0.263365
H248  H     H_    0.877869 0.740260 0.001606 0.246996
H249  H     H_    0.958515 0.669203 0.960649 0.227058
H250  H     H_    0.886945 0.632736 0.961823 0.226231
H251  H     H_    0.908487 0.591558 0.117048 0.197385
H252  H     H_    0.979418 0.628108 0.116322 0.202098

loop_
_geom_bond_atom_site_label_1
_geom_bond_atom_site_label_2
_ccdc_geom_bond_type
C99   H53   S    
C170  C171  S    
C122  H107  S    
C150  H171  S    
C179  C180  S    
C132  H129  S    
C181  H239  S    
C158  C159  S    
C184  H246  S    
C110  H84   S    
C109  H72   S    
C157  H187  S    
C97   H44   S    
C96   C97   S    
O15   Zn3   S    
C120  C121  S    
C121  H104  S    
C91   H29   S    
C114  C115  S    
C119  H99   S    
C31   C59   S    
C2    O10   A    
C102  C103  S    
C154  H182  S    
C86   H28   S    
C173  H230  S    
C127  H117  S    
C178  H233  S    
C43   C107  S    
C129  C130  S    
C105  H68   S    
C155  C156  S    
C121  H105  S    
C180  H243  S    
O2    Zn2   S    
C27   C75   S    
C153  H179  S    
C115  H89   S    
O29   C149  S    
C112  H79   S    
C137  H142  S    
C108  C109  S    
C20   N4    T    
C104  C105  S    
C131  C132  S    
C162  H201  S    
C169  H213  S    
C83   H20   S    
C144  H158  S    
O28   C146  S    
C85   H17   S    
C159  H193  S    
C77   H7    S    
C173  C174  S    
C139  H145  S    
C103  H57   S    
C59   O32   S    
C38   C57   S    
C101  H63   S    
C4    O4    A    
C18   N2    T    
C143  H155  S    
C94   H38   S    
O13   Zn4   S    
C167  H217  S    
C34   C54   S    
C150  C151  S    
C126  H116  S    
C3    O3    A    
C35   O23   S    
C170  H224  S    
C103  H59   S    
C28   C71   S    
O24   C134  S    
C158  H190  S    
C179  H245  S    
C184  H248  S    
C163  H198  S    
C93   H39   S    
O31   C155  S    
C1    C48   S    
C26   C182  S    
C2    C47   S    
C160  H194  S    
C3    C46   S    
C22   C170  S    
C119  C120  S    
C25   C76   S    
C177  C178  S    
C54   O25   S    
C152  H176  S    
C164  H210  S    
O22   C128  S    
C44   C55   S    
C133  H131  S    
C58   O29   S    
C183  H250  S    
C127  H119  S    
C39   C60   S    
O8    Zn3   S    
C144  H157  S    
C111  C112  S    
C154  H181  S    
C106  H64   S    
C30   C61   S    
C88   H23   S    
C166  H204  S    
C77   H6    S    
C115  H91   S    
C154  H180  S    
C131  H128  S    
C82   H9    S    
C148  H166  S    
C80   C81   S    
C83   H21   S    
C70   C77   S    
C161  H202  S    
C85   H15   S    
C14   C50   T    
C172  H218  S    
C182  H252  S    
C181  H240  S    
C31   C43   S    
C139  H147  S    
C9    C61   S    
C139  H146  S    
C132  H130  S    
C176  H237  S    
C11   C63   S    
C141  C142  S    
C42   C53   S    
C124  H110  S    
C12   C64   S    
C138  H144  S    
C163  H197  S    
O30   C152  S    
C80   H13   S    
C84   H18   S    
C22   C73   S    
C59   C67   S    
C36   O24   S    
C136  H139  S    
O3    Zn2   S    
C55   C63   S    
C56   C64   S    
C25   C71   S    
C177  H236  S    
C116  H92   S    
C5    O5    A    
C140  C141  S    
C128  H120  S    
C153  C154  S    
C130  H126  S    
C17   C73   S    
C23   C70   S    
C98   H55   S    
C107  H76   S    
C151  H173  S    
C155  H184  S    
C89   H35   S    
C4    C45   S    
C100  H51   S    
C32   C44   S    
C160  H196  S    
C135  H137  S    
C180  C181  S    
C129  H122  S    
C79   H2    S    
C152  C153  S    
C142  H153  S    
C141  H150  S    
C156  C157  S    
C113  C114  S    
C6    O14   A    
C168  H214  S    
C21   C69   S    
C8    O8    A    
C92   H41   S    
C70   C74   S    
O17   C113  S    
O5    Zn3   S    
C134  H135  S    
C147  H165  S    
C106  H66   S    
C15   C67   S    
C33   C66   S    
N2    Zn1   S    
C26   C75   S    
C78   H4    S    
C118  H97   S    
C102  H61   S    
C166  H206  S    
C113  H86   S    
C125  H114  S    
C96   H47   S    
C140  H148  S    
C148  H168  S    
C15   C51   T    
C108  H74   S    
C146  H163  S    
N4    Zn3   S    
C53   O26   S    
C38   C92   S    
C171  C172  S    
C147  C148  S    
O7    Zn4   S    
C172  H220  S    
C99   H54   S    
C165  H207  S    
C29   C41   S    
C90   H32   S    
C7    C50   S    
C158  H191  S    
C125  C126  S    
C118  H98   S    
C124  H112  S    
O26   C140  S    
C145  H161  S    
C110  H83   S    
C145  H160  S    
C6    O6    A    
C117  C118  S    
O9    Zn2   S    
C44   C110  S    
C123  H108  S    
C104  H70   S    
C161  C162  S    
O16   Zn4   S    
C114  H88   S    
C119  H100  S    
C174  H228  S    
C40   C98   S    
C78   C79   S    
C116  C117  S    
C21   C167  S    
C71   C86   S    
C183  C184  S    
C43   C67   S    
C149  H169  S    
C128  C129  S    
C32   O20   S    
C130  H124  S    
C38   C62   S    
C22   C70   S    
C151  H175  S    
C171  H221  S    
C91   H31   S    
C9    C45   T    
C77   C78   S    
C24   C164  S    
C72   C83   S    
C133  H132  S    
C26   C72   S    
C11   C47   T    
C118  H96   S    
C143  C144  S    
C12   C48   T    
C170  H223  S    
C115  H90   S    
C95   C96   S    
C156  H185  S    
C101  C102  S    
C99   C100  S    
C29   O17   S    
C37   C89   S    
O4    Zn1   S    
C31   O19   S    
C169  H212  S    
C81   H11   S    
C85   H16   S    
C111  H81   S    
C87   H26   S    
O19   C119  S    
C3    O11   A    
C174  C175  S    
C153  H178  S    
C135  H136  S    
C101  H62   S    
C42   C104  S    
C7    O7    A    
C169  H211  S    
C1    O9    A    
C92   C93   S    
C69   C73   S    
C94   H37   S    
O6    Zn4   S    
O10   Zn1   S    
C72   C76   S    
C167  H216  S    
C184  H247  S    
C122  C123  S    
C150  H172  S    
C126  H115  S    
C41   C101  S    
C10   C62   S    
C179  H244  S    
C120  H102  S    
C109  H73   S    
C93   H40   S    
C89   H34   S    
C176  C177  S    
N3    Zn4   S    
C97   H45   S    
C133  H133  S    
C54   C62   S    
C157  H189  S    
C121  H103  S    
O25   C137  S    
C34   O22   S    
C33   C37   S    
C33   O21   S    
C164  H209  S    
C35   C39   S    
C175  H225  S    
O20   C122  S    
C36   C56   S    
C173  H231  S    
C5    O13   A    
O23   C131  S    
C112  H78   S    
C104  H69   S    
C178  H234  S    
C57   O30   S    
C17   N1    T    
C1    O1    A    
C105  H67   S    
O11   Zn1   S    
C19   N3    T    
C83   C84   S    
C168  H215  S    
C29   C57   S    
C25   C179  S    
C180  H242  S    
C21   C23   S    
C88   H22   S    
C22   C24   S    
C2    O2    A    
C32   C60   S    
C86   C87   S    
C28   C76   S    
C7    O15   A    
C60   O31   S    
C82   H8    S    
C112  H80   S    
C137  H141  S    
C162  H200  S    
C16   C52   T    
C57   C65   S    
C144  C145  S    
C141  H151  S    
C159  H192  S    
C182  H251  S    
C175  H226  S    
O32   C158  S    
C87   H25   S    
C142  H152  S    
C131  H127  S    
C146  H162  S    
C138  H143  S    
O18   C116  S    
C117  H95   S    
C84   H19   S    
C165  C166  S    
C60   C68   S    
C136  H138  S    
C126  C127  S    
C79   H1    S    
C90   C91   S    
C30   C42   S    
C8    C49   S    
C27   C72   S    
C4    O12   A    
C137  C138  S    
C163  H199  S    
C71   C75   S    
C98   C99   S    
C27   C173  S    
C130  H125  S    
C107  C108  S    
C97   H43   S    
C8    O16   A    
O27   C143  S    
C159  C160  S    
C151  H174  S    
C167  C168  S    
C36   C67   S    
O12   Zn2   S    
C13   C65   S    
C100  H50   S    
C117  H94   S    
C160  H195  S    
C135  C136  S    
O1    Zn1   S    
C35   C68   S    
C129  H123  S    
C152  H177  S    
C156  H186  S    
C183  H249  S    
C28   C176  S    
C20   C76   S    
C30   O18   S    
C58   C66   S    
C110  C111  S    
C87   C88   S    
C140  H149  S    
C10   C46   T    
C88   H24   S    
C164  C165  S    
C5    C52   S    
C78   H5    S    
C16   C68   S    
C105  C106  S    
C6    C51   S    
C166  H205  S    
O21   C125  S    
C37   C58   S    
C82   H10   S    
C55   O28   S    
C18   C74   S    
C40   C59   S    
C108  H75   S    
C53   C61   S    
C23   C73   S    
C34   C65   S    
C81   C82   S    
C134  C135  S    
C24   C69   S    
C172  H219  S    
C33   C53   S    
C181  H241  S    
C165  H208  S    
C35   C55   S    
C90   H33   S    
C36   C40   S    
C132  C133  S    
C86   H27   S    
C176  H238  S    
C175  H227  S    
C124  H111  S    
C134  H134  S    
C23   C161  S    
C138  C139  S    
C41   C65   S    
C106  H65   S    
C21   C74   S    
C80   H14   S    
C123  H109  S    
C103  H58   S    
C182  C183  S    
C136  H140  S    
C114  H87   S    
C14   C66   S    
N1    Zn2   S    
C174  H229  S    
C177  H235  S    
C93   C94   S    
C116  H93   S    
C13   C49   T    
C95   H49   S    
C127  H118  S    
C178  H232  S    
C149  H170  S    
C128  H121  S    
C98   H56   S    
C44   C68   S    
C123  C124  S    
C39   C95   S    
C122  H106  S    
C107  H77   S    
C155  H183  S    
C168  C169  S    
C100  H52   S    
C171  H222  S    
C91   H30   S    
C29   C62   S    
C157  H188  S    
C34   C38   S    
C31   C64   S    
C32   C63   S    
C142  H154  S    
C37   C61   S    
C120  H101  S    
C25   C27   S    
C149  C150  S    
C39   C63   S    
C26   C28   S    
C40   C64   S    
C92   H42   S    
C19   C75   S    
C84   C85   S    
C95   H48   S    
C56   O27   S    
C89   C90   S    
C81   H12   S    
C69   C80   S    
C24   C74   S    
C147  H164  S    
C111  H82   S    
O14   Zn3   S    
C30   C58   S    
C161  H203  S    
C79   H3    S    
C102  H60   S    
C113  H85   S    
C41   C54   S    
C125  H113  S    
C96   H46   S    
C43   C56   S    
C143  H156  S    
C148  H167  S    
C145  H159  S    
C146  C147  S    
C42   C66   S    
C162  C163  S    
C109  H71   S    
C94   H36   S    
