data_mof_unit_49338.cif
_audit_creation_date              2012-12-11T15:59:46-0500
_audit_creation_method            fapswitch 2.2
_symmetry_space_group_name_H-M    P1
_symmetry_Int_Tables_number       1
_space_group_crystal_system       triclinic
_cell_length_a                    10.911861
_cell_length_b                    10.997496
_cell_length_c                    16.968045
_cell_angle_alpha                 100.620578
_cell_angle_beta                  101.316172
_cell_angle_gamma                 59.160268
_cell_volume                      1705.82305009

loop_
_atom_site_label
_atom_site_type_symbol
_atom_type_description
_atom_site_fract_x
_atom_site_fract_y
_atom_site_fract_z
_atom_type_partial_charge
C1    C     C_R   0.380092 0.713198 0.387497 0.531515
C2    C     C_R   0.825785 0.335649 0.326387 0.028350
C3    C     C_R   0.370098 0.783736 0.146465 0.012032
C4    C     C_R   0.408032 0.375366 0.357204 0.554349
C5    C     C_R   0.485148 0.776772 0.204502 -0.023040
C6    C     C_R   0.479168 0.773407 0.286538 0.018641
C7    C     C_R   0.291005 0.710014 0.242909 -0.170588
C8    C     C_R   0.292982 0.723466 0.163184 0.041002
C9    C     C_R   0.609605 0.767462 0.185345 0.134308
C10   C     C_R   0.737656 0.693788 0.236419 0.081427
C11   C     C_R   0.727170 0.715923 0.318988 -0.059063
C12   C     C_R   0.750975 0.312227 0.183898 -0.071431
C13   C     C_R   0.590662 0.782264 0.343337 0.152373
C14   C     C_R   0.374972 0.745441 0.306181 -0.021314
C15   C     C_R   0.286169 0.273159 0.795808 -0.014059
C16   C     C_R   0.772028 0.377274 0.403121 0.558321
C17   C     C_R   0.403429 0.166313 0.755140 -0.020213
C18   C     C_R   0.460478 0.207024 0.705293 0.055873
C19   C     C_R   0.240369 0.439318 0.703955 -0.148382
C20   C     C_R   0.201677 0.407869 0.767528 -0.130021
C21   C     C_R   0.475232 0.022887 0.770692 -0.088489
C22   C     C_R   0.610824 0.925979 0.748594 0.086908
C23   C     C_R   0.765483 0.275579 0.261878 -0.050228
C24   C     C_R   0.679360 0.972693 0.712098 -0.077292
C25   C     C_R   0.608237 0.114466 0.694357 0.118700
C26   C     C_R   0.370307 0.341128 0.672779 0.009658
C27   C     C_1   0.855429 0.327663 0.704721 -0.025749
C28   C     C_R   0.359561 0.766190 0.627887 0.561517
C29   C     C_1   0.902449 0.290991 0.771850 -0.059708
C30   C     C_1   0.341717 0.803499 0.710534 -0.036725
C31   C     C_1   0.314174 0.831337 0.778489 -0.043539
C32   C     C_R   0.900190 0.309392 0.089644 0.565357
C33   C     C_R   0.324983 0.305228 0.117564 0.605748
C34   C     C_R   0.934098 0.357599 0.313538 0.078930
C35   C     C_R   0.302354 0.881124 0.081374 0.584342
C36   C     C_R   0.945907 0.271544 0.855733 0.519428
C37   C     C_R   0.275743 0.252087 0.876605 0.512713
C38   C     C_R   0.279473 0.882982 0.858156 0.530563
C39   C     C_R   0.402623 0.369862 0.600480 0.571499
C40   C     C_R   0.780101 0.378179 0.628225 0.564367
C41   C     C_1   0.380306 0.366833 0.271549 -0.013621
C42   C     C_1   0.356097 0.348640 0.199696 0.020889
C43   C     C_R   0.861696 0.332520 0.170064 0.015181
C44   C     C_R   0.967634 0.327123 0.235016 0.084993
C45   C     C_R   0.693164 0.249553 0.119306 -0.111826
C46   C     C_R   0.745746 0.104804 0.120882 0.174455
C47   C     C_R   0.817654 0.045473 0.194085 0.145491
C48   C     C_R   0.800033 0.135492 0.266180 -0.079280
Cr1   Cr    Cr6+3 0.608100 0.610860 0.522250 1.018442
Cr2   Cr    Cr6+3 0.288890 0.599990 0.488420 1.017224
Cr3   Cr    Cr6+3 0.603040 0.289190 0.489390 1.043025
Cr4   Cr    Cr6+3 0.053960 0.052250 0.967380 1.070219
Cr5   Cr    Cr6+3 0.059890 0.373160 0.992710 1.116431
Cr6   Cr    Cr6+3 0.373370 0.061690 0.991710 1.084883
H1    H     H_    0.818637 0.705276 0.362173 0.141988
H2    H     H_    0.038321 0.465530 0.366617 0.264502
H3    H     H_    0.615448 0.847262 0.463234 0.245511
H4    H     H_    0.449309 0.951675 0.414006 0.265647
H5    H     H_    0.800526 0.094654 0.682069 0.223749
H6    H     H_    0.686071 0.243886 0.734228 0.226096
H7    H     H_    0.973634 0.876052 0.252219 0.236567
H8    H     H_    0.006803 0.893579 0.164898 0.268347
H9    H     H_    0.171198 0.542314 0.681101 0.150005
H10   H     H_    0.429306 0.987767 0.803612 0.163483
H11   H     H_    0.108461 0.490045 0.795945 0.174838
H12   H     H_    0.791170 0.901953 0.703125 0.125852
H13   H     H_    0.656064 0.291837 0.061132 0.137772
H14   H     H_    0.847407 0.088625 0.322967 0.142192
H15   H     H_    0.226597 0.668288 0.255161 0.158875
H16   H     H_    0.121557 0.294903 0.388607 0.265808
I1    I     I_    0.941414 0.622940 0.203445 -0.314939
I2    I     I_    0.723950 0.720051 0.787338 -0.317746
I3    I     I_    0.184996 0.182493 0.223157 -0.308935
I4    I     I_    0.750188 0.976008 0.010798 -0.172830
I5    I     I_    0.579844 0.971632 0.203950 -0.237714
I6    I     I_    0.187386 0.644183 0.066474 -0.257557
N1    N     N_3   0.021702 0.386788 0.380493 -0.591023
N2    N     N_3   0.559660 0.892769 0.409398 -0.566102
N3    N     N_3   0.692339 0.172903 0.682955 -0.570928
N4    N     N_3   0.926675 0.900598 0.193217 -0.544400
O1    O     O_R   0.749810 0.499790 0.438040 -0.498113
O2    O     O_R   0.411730 0.181020 0.091530 -0.470845
O3    O     O_R   0.365010 0.944360 0.063320 -0.460040
O4    O     O_R   0.477660 0.726260 0.439290 -0.511386
O5    O     O_R   0.159380 0.906670 0.876210 -0.497542
O6    O     O_R   0.930820 0.177420 0.886730 -0.488910
O7    O     O_R   0.910360 0.395420 0.895720 -0.471633
O8    O     O_R   0.186010 0.361730 0.919870 -0.486818
O9    O     O_R   0.400000 0.173010 0.914630 -0.490822
O10   O     O_R   0.354140 0.936940 0.899340 -0.528823
O11   O     O_3   0.162410 0.162370 0.983930 -0.315401
O12   O     O_R   0.298970 0.468800 0.557390 -0.498412
O13   O     O_R   0.260150 0.743000 0.412270 -0.510784
O14   O     O_R   0.297740 0.466550 0.394720 -0.503192
O15   O     O_R   0.488080 0.253500 0.386430 -0.456655
O16   O     O_R   0.722670 0.303800 0.421940 -0.538355
O17   O     O_R   0.751130 0.502220 0.613520 -0.477738
O18   O     O_R   0.478890 0.728510 0.601960 -0.472783
O19   O     O_R   0.261470 0.745430 0.587750 -0.519459
O20   O     O_R   0.489400 0.255930 0.561910 -0.464503
O21   O     O_R   0.723890 0.306050 0.584610 -0.489117
O22   O     O_3   0.500010 0.500010 0.500020 -0.321181
O23   O     O_R   0.171100 0.914680 0.053100 -0.473899
O24   O     O_R   0.941680 0.184840 0.050710 -0.484332
O25   O     O_R   0.922080 0.403420 0.072610 -0.461849
O26   O     O_R   0.196880 0.369150 0.083850 -0.441048

loop_
_geom_bond_atom_site_label_1
_geom_bond_atom_site_label_2
_ccdc_geom_bond_type
H6    N3    S    
C27   C29   T    
C41   C42   T    
C37   O8    A    
C19   C20   A    
C18   C26   A    
Cr6   O2    S    
C7    C8    A    
Cr4   O23   S    
C45   C46   A    
Cr3   O22   S    
C29   C36   S    
Cr2   O19   S    
C33   C42   S    
Cr1   O4    S    
H8    N4    S    
Cr4   O5    S    
Cr6   O10   S    
C12   C43   A    
C35   O23   A    
C34   N1    S    
C30   C31   T    
C26   C39   S    
C4    C41   S    
H7    N4    S    
C8    I6    S    
Cr1   O1    S    
C19   C26   A    
C15   C37   S    
C21   H10   S    
Cr1   O18   S    
C46   C47   A    
Cr5   O26   S    
C7    C14   A    
C19   H9    S    
Cr5   O11   S    
C32   O24   A    
C2    C16   S    
C9    C10   A    
C24   H12   S    
Cr3   O16   S    
C10   I1    S    
C2    C34   A    
C40   O21   A    
C21   C22   A    
H16   N1    S    
C18   C25   A    
C47   N4    S    
C22   I2    S    
Cr6   O3    S    
C36   O7    A    
C15   C20   A    
C16   O16   A    
C38   O5    A    
C20   H11   S    
C34   C44   A    
C24   C25   A    
Cr6   O9    S    
C3    C8    A    
H5    N3    S    
C40   O17   A    
C35   O3    A    
Cr2   O14   S    
C12   C23   A    
C36   O6    A    
C17   C21   A    
H2    N1    S    
C1    O4    A    
C43   C44   A    
C5    C9    A    
C6    C14   A    
C4    O15   A    
C47   C48   A    
Cr1   O22   S    
C3    C35   S    
C27   C40   S    
C17   C18   A    
Cr5   O7    S    
C48   H14   S    
C4    O14   A    
C28   O19   A    
Cr2   O12   S    
Cr2   O22   S    
C32   O25   A    
C22   C24   A    
C39   O12   A    
C46   I4    S    
C11   H1    S    
C33   O2    A    
C28   O18   A    
Cr3   O20   S    
C15   C17   A    
C13   N2    S    
Cr4   O24   S    
C23   C48   A    
C25   N3    S    
H3    N2    S    
C33   O26   A    
C12   C45   A    
C3    C5    A    
C7    H15   S    
Cr2   O13   S    
C45   H13   S    
Cr3   O21   S    
C38   O10   A    
C31   C38   S    
C37   O9    A    
Cr4   O6    S    
Cr6   O11   S    
C6    C13   A    
C11   C13   A    
C39   O20   A    
C5    C6    A    
C28   C30   S    
C16   O1    A    
C32   C43   S    
Cr5   O8    S    
C44   I3    S    
C10   C11   A    
H4    N2    S    
Cr1   O17   S    
Cr5   O25   S    
C1    O13   A    
C2    C23   A    
Cr4   O11   S    
C1    C14   S    
C9    I5    S    
Cr3   O15   S    
