data_mof_unit_59504.cif
_audit_creation_date              2012-12-11T15:29:45-0500
_audit_creation_method            fapswitch 2.2
_symmetry_space_group_name_H-M    P1
_symmetry_Int_Tables_number       1
_space_group_crystal_system       triclinic
_cell_length_a                    21.415323
_cell_length_b                    7.246494
_cell_length_c                    14.743048
_cell_angle_alpha                 90.417801
_cell_angle_beta                  74.459848
_cell_angle_gamma                 89.894458
_cell_volume                      2204.19963981

loop_
_atom_site_label
_atom_site_type_symbol
_atom_type_description
_atom_site_fract_x
_atom_site_fract_y
_atom_site_fract_z
_atom_type_partial_charge
O1    O     O_R   0.464160 0.506670 0.130070 -0.533545
O2    O     O_R   0.535840 0.006670 0.869930 -0.533867
O3    O     O_R   0.589710 0.179080 0.006710 -0.544903
O4    O     O_R   0.410290 0.679080 0.993290 -0.544560
C1    C     C_R   0.616089 0.344104 0.002978 0.663348
C2    C     C_R   0.383906 0.844242 0.997040 0.663517
O5    O     O_R   0.467940 0.177220 0.138010 -0.539646
O6    O     O_R   0.532060 0.677220 0.861990 -0.539864
O7    O     O_R   0.413200 0.002810 0.002170 -0.541111
O8    O     O_R   0.586800 0.502810 0.997830 -0.538824
C3    C     C_R   0.456406 0.346412 0.174494 0.687024
C4    C     C_R   0.543473 0.844843 0.825507 0.688850
O9    O     O_3   0.482180 0.337850 0.955280 -0.376849
O10   O     O_3   0.517820 0.837850 0.044720 -0.374152
V1    V     V_3+5 0.503310 0.064600 0.008300 1.416793
V2    V     V_3+5 0.496690 0.564600 0.991700 1.421745
C5    C     C_R   0.570437 0.850423 0.723572 -0.038564
C6    C     C_R   0.429533 0.358922 0.276497 -0.045847
C7    C     C_R   0.927322 0.867767 0.276157 -0.032634
C8    C     C_R   0.072373 0.357728 0.723851 -0.033145
C9    C     C_R   0.556724 0.829058 0.567017 -0.095077
C10   C     C_R   0.440623 0.447335 0.429190 -0.094896
C11   C     C_R   0.530410 0.827822 0.664060 -0.170716
C12   C     C_R   0.467504 0.423985 0.332942 -0.158861
C13   C     C_R   0.637151 0.868932 0.686364 -0.196397
C14   C     C_R   0.364054 0.321246 0.315846 -0.197069
C15   C     C_R   0.665930 0.863576 0.587905 0.074425
C16   C     C_R   0.334498 0.349189 0.413244 0.072445
C17   C     C_R   0.624094 0.851220 0.527335 0.057953
C18   C     C_R   0.374580 0.408158 0.471157 0.055585
C19   C     C_R   0.734693 0.867681 0.548523 0.057263
C20   C     C_R   0.266357 0.325362 0.453744 0.058663
C21   C     C_R   0.760974 0.864315 0.448678 0.037679
C22   C     C_R   0.238793 0.364006 0.551483 0.037122
C23   C     C_R   0.717691 0.860255 0.391327 -0.236139
C24   C     C_R   0.280669 0.414113 0.606866 -0.233875
C25   C     C_R   0.650504 0.855734 0.428808 -0.017437
C26   C     C_R   0.347437 0.433334 0.568848 -0.013310
C27   C     C_R   0.778177 0.871321 0.605923 -0.177829
C28   C     C_R   0.224653 0.265570 0.399451 -0.176388
C29   C     C_R   0.844702 0.873858 0.567514 -0.184374
C30   C     C_R   0.158573 0.246260 0.438678 -0.199993
C31   C     C_R   0.871099 0.871607 0.470525 0.137035
C32   C     C_R   0.130840 0.286067 0.533301 0.133286
C33   C     C_R   0.829928 0.866353 0.409340 0.097376
C34   C     C_R   0.170169 0.347079 0.591271 0.099058
C35   C     C_R   0.938787 0.874258 0.434312 -0.165795
C36   C     C_R   0.063820 0.262191 0.570689 -0.168883
C37   C     C_R   0.966698 0.872683 0.337604 -0.170320
C38   C     C_R   0.034966 0.295190 0.665749 -0.152662
C39   C     C_R   0.859873 0.863468 0.311172 -0.215837
C40   C     C_R   0.138913 0.386399 0.687075 -0.220858
H1    H     H_    0.832770 0.859212 0.259355 0.090454
H2    H     H_    0.164583 0.435096 0.736107 0.093985
H3    H     H_    0.018942 0.875219 0.310711 0.148470
H4    H     H_    0.983608 0.269911 0.694311 0.134059
H5    H     H_    0.875907 0.877037 0.614551 0.126181
H6    H     H_    0.128785 0.198731 0.394300 0.147341
H7    H     H_    0.523740 0.807679 0.523878 0.148127
H8    H     H_    0.471805 0.502637 0.469370 0.146699
H9    H     H_    0.478698 0.809513 0.692829 0.142388
H10   H     H_    0.517954 0.458367 0.302248 0.136003
H11   H     H_    0.664841 0.885297 0.736952 0.091982
H12   H     H_    0.337508 0.276624 0.267206 0.093110
H13   H     H_    0.734616 0.863954 0.315784 0.141814
H14   H     H_    0.263091 0.434245 0.681769 0.142174
H15   H     H_    0.762859 0.870468 0.681579 0.132324
H16   H     H_    0.241178 0.230218 0.325922 0.130298
H17   H     H_    0.970200 0.878201 0.481014 0.118569
H18   H     H_    0.033889 0.214002 0.526621 0.120341
C41   C     C_3   0.215760 0.665933 0.976701 -0.333134
C42   C     C_3   0.783882 0.168148 0.026605 -0.337201
H19   H     H_    0.188367 0.566223 0.029333 0.197958
H20   H     H_    0.811311 0.062442 0.976395 0.194239
H21   H     H_    0.210375 0.621500 0.906731 0.148547
H22   H     H_    0.788647 0.131570 0.097680 0.144195
C43   C     C_3   0.288121 0.658321 0.975325 -0.305975
C44   C     C_3   0.711711 0.160022 0.026886 -0.308375
H23   H     H_    0.317184 0.609902 0.904795 0.175158
H24   H     H_    0.682225 0.115994 0.097565 0.153982
H25   H     H_    0.294513 0.555133 0.027739 0.165103
H26   H     H_    0.705765 0.053454 0.975078 0.166226
H27   H     H_    0.172638 0.809167 0.150566 0.095712
H28   H     H_    0.826347 0.291443 0.851086 0.099740
H29   H     H_    0.278402 0.814027 0.150724 0.123562
H30   H     H_    0.720962 0.305687 0.849418 0.122940
C45   C     C_3   0.197354 0.916703 0.100013 -0.104294
C46   C     C_3   0.802863 0.406096 0.899001 -0.108403
C47   C     C_3   0.228539 0.993430 0.924404 -0.299603
C48   C     C_3   0.771662 0.500837 0.073099 -0.300017
C49   C     C_3   0.187438 0.863644 0.001315 0.029119
C50   C     C_3   0.812601 0.363527 0.998601 0.028862
H31   H     H_    0.210072 0.137500 0.934854 0.174460
H32   H     H_    0.789903 0.644090 0.059340 0.177611
H33   H     H_    0.224198 0.948870 0.853943 0.135224
H34   H     H_    0.776504 0.464930 0.144185 0.132195
C51   C     C_3   0.312685 0.850959 0.998110 0.081418
C52   C     C_3   0.687316 0.350836 0.001956 0.066754
C53   C     C_3   0.270855 0.912042 0.096794 -0.362581
C54   C     C_3   0.729265 0.405447 0.902750 -0.356039
C55   C     C_3   0.301030 0.989644 0.924435 -0.304322
C56   C     C_3   0.699009 0.494791 0.074180 -0.289025
H35   H     H_    0.331391 0.950694 0.853040 0.151251
H36   H     H_    0.669178 0.459602 0.146079 0.156306
H37   H     H_    0.315867 0.130728 0.940335 0.160265
H38   H     H_    0.683553 0.634399 0.057575 0.169336
H39   H     H_    0.287842 0.049012 0.115068 0.152519
H40   H     H_    0.713070 0.542736 0.884052 0.155452
O11   O     O_R   0.913210 0.208550 0.002110 -0.541232
O12   O     O_R   0.086790 0.708550 0.997890 -0.541698
O13   O     O_R   0.032060 0.539960 0.861980 -0.534656
O14   O     O_R   0.967940 0.039960 0.138020 -0.533762
C57   C     C_R   0.043963 0.371622 0.825414 0.701919
C58   C     C_R   0.955996 0.873278 0.174596 0.701199
O15   O     O_R   0.910290 0.538020 0.993280 -0.533990
O16   O     O_R   0.089710 0.038020 0.006720 -0.533110
O17   O     O_R   0.964160 0.712340 0.130090 -0.540091
O18   O     O_R   0.035840 0.212340 0.869910 -0.540897
C59   C     C_R   0.883976 0.370085 0.998078 0.647372
C60   C     C_R   0.116038 0.869954 0.001923 0.646252
O19   O     O_3   0.017820 0.379210 0.044690 -0.373868
O20   O     O_3   0.982180 0.879210 0.955310 -0.374299
V3    V     V_3+5 0.996690 0.652500 0.991710 1.445220
V4    V     V_3+5 0.003310 0.152500 0.008290 1.447220
C61   C     C_2   0.609526 0.862166 0.361768 0.713994
O21   O     O_2   0.623979 0.767956 0.289932 -0.582068
O22   O     O_R   0.556248 0.981828 0.378495 -0.661331
H41   H     H_    0.532887 0.975265 0.327139 0.297625
C62   C     C_2   0.387298 0.475986 0.634906 0.710739
O23   O     O_2   0.368016 0.589686 0.698011 -0.586213
O24   O     O_R   0.445257 0.380482 0.627791 -0.660790
H42   H     H_    0.467376 0.420494 0.677470 0.296074
C63   C     C_2   0.166789 0.099381 0.138846 0.734226
O25   O     O_2   0.189492 0.244614 0.103159 -0.586196
O26   O     O_R   0.112453 0.101097 0.216527 -0.689296
H43   H     H_    0.095822 0.230547 0.235754 0.285548
C64   C     C_2   0.835254 0.581906 0.855321 0.737172
O27   O     O_2   0.815209 0.732597 0.888595 -0.586113
O28   O     O_R   0.888248 0.570698 0.775809 -0.679105
H44   H     H_    0.906279 0.696411 0.753065 0.285725

loop_
_geom_bond_atom_site_label_1
_geom_bond_atom_site_label_2
_ccdc_geom_bond_type
H27   C45   S    
C3    C6    S    
O4    V2    S    
C45   C49   S    
C15   C17   A    
C21   C33   A    
C45   C63   S    
O1    C3    A    
C42   H22   S    
O2    C4    A    
C30   H6    S    
C2    O7    A    
O14   C58   A    
O26   H43   S    
C27   C29   A    
O5    C3    A    
C64   O28   S    
C5    C11   A    
C6    C12   A    
C23   C25   A    
C50   C59   S    
C9    H7    S    
C10   H8    S    
C8    C57   S    
C42   C50   S    
C24   H14   S    
C23   H13   S    
C34   C40   A    
C18   C26   A    
C13   H11   S    
C44   H26   S    
C35   H17   S    
O19   V4    S    
C8    C38   A    
C48   C56   S    
C46   C50   S    
C40   H2    S    
C16   C18   A    
C6    C14   A    
C4    C5    S    
C44   C52   S    
C42   C44   S    
C19   C21   A    
C43   C51   S    
C22   C34   A    
C47   C49   S    
H30   C54   S    
C45   C53   S    
O5    V1    S    
C55   H35   S    
O14   V4    S    
C47   H31   S    
C29   C31   A    
C30   C32   A    
C14   C16   A    
C51   C53   S    
C32   C34   A    
C48   H32   S    
C25   C61   S    
C43   H23   S    
C55   H37   S    
C54   H40   S    
O15   V3    S    
C15   C19   A    
C26   C62   S    
C16   C20   A    
C42   H20   S    
O12   C60   A    
C41   H19   S    
C7    C58   S    
C52   C56   S    
C9    C17   A    
C38   H4    S    
O16   C60   A    
C39   H1    S    
C20   C22   A    
C47   H33   S    
C2    C51   S    
H29   C53   S    
C10   C18   A    
O12   V3    S    
C7    C37   A    
C48   C50   S    
C43   H25   S    
O6    C4    A    
O13   C57   A    
O1    V2    S    
O18   V4    S    
C56   H36   S    
O2    V1    S    
C31   C33   A    
C46   C54   S    
O4    C2    A    
O15   C59   A    
C9    C11   A    
C63   O25   D    
C10   C12   A    
C13   C15   A    
O22   H41   S    
C41   C43   S    
O3    V1    S    
O11   C59   A    
C61   O22   S    
C62   O23   D    
O13   V3    S    
C12   H10   S    
O16   V4    S    
C47   C55   S    
O10   V1    S    
C27   H15   S    
H28   C46   S    
C36   H18   S    
C28   C30   A    
O3    C1    A    
O28   H44   S    
O11   V4    S    
C48   H34   S    
C14   H12   S    
C35   C37   A    
C53   H39   S    
C64   O27   D    
C52   C54   S    
C5    C13   A    
C24   C26   A    
O7    V1    S    
C29   H5    S    
C1    O8    A    
C8    C40   A    
C32   C36   A    
C37   H3    S    
C41   H21   S    
C61   O21   D    
C36   C38   A    
C21   C23   A    
C22   C24   A    
C19   C27   A    
C56   H38   S    
C44   H24   S    
C20   C28   A    
O17   V3    S    
C46   C64   S    
C58   O17   A    
C57   O18   A    
C7    C39   A    
C11   H9    S    
C41   C49   S    
C1    C52   S    
O6    V2    S    
C28   H16   S    
O9    V2    S    
C17   C25   A    
C63   O26   S    
C33   C39   A    
C49   C60   S    
O8    V2    S    
O20   V3    S    
C31   C35   A    
C51   C55   S    
O24   H42   S    
C62   O24   S    
