data_mof_unit_44453.cif
_audit_creation_date              2012-12-11T15:17:45-0500
_audit_creation_method            fapswitch 2.2
_symmetry_space_group_name_H-M    P1
_symmetry_Int_Tables_number       1
_space_group_crystal_system       triclinic
_cell_length_a                    15.73801
_cell_length_b                    15.73824
_cell_length_c                    34.633903
_cell_angle_alpha                 89.998161
_cell_angle_beta                  89.997124
_cell_angle_gamma                 119.999878
_cell_volume                      7429.14065882

loop_
_atom_site_label
_atom_site_type_symbol
_atom_type_description
_atom_site_fract_x
_atom_site_fract_y
_atom_site_fract_z
_atom_type_partial_charge
C1    C     C_R   0.578759 0.440982 0.555131 0.555120
C2    C     C_R   0.559001 0.137765 0.555131 0.555113
C3    C     C_R   0.862228 0.421236 0.555131 0.555131
C4    C     C_R   0.440983 0.578760 0.055132 0.555113
C5    C     C_R   0.137770 0.559008 0.055131 0.555096
C6    C     C_R   0.421235 0.862224 0.055132 0.555113
C7    C     C_R   0.980753 0.492788 0.712662 0.388669
C8    C     C_R   0.507253 0.487945 0.712678 0.388658
C9    C     C_R   0.512052 0.019313 0.712672 0.388658
C10   C     C_R   0.492767 0.980733 0.212666 0.388670
C11   C     C_R   0.487944 0.507269 0.212679 0.388665
C12   C     C_R   0.019313 0.512020 0.212676 0.388680
C13   C     C_R   0.013884 0.433942 0.852683 -0.107715
C14   C     C_R   0.566119 0.580014 0.852690 -0.107707
C15   C     C_R   0.420151 0.986251 0.852699 -0.107681
C16   C     C_R   0.433925 0.013872 0.352689 -0.107709
C17   C     C_R   0.579998 0.566123 0.352694 -0.107712
C18   C     C_R   0.986225 0.420090 0.352704 -0.107697
C19   C     C_R   0.046518 0.447795 0.890738 -0.131950
C20   C     C_R   0.552246 0.598788 0.890742 -0.131905
C21   C     C_R   0.401348 0.953580 0.890751 -0.131911
C22   C     C_R   0.447784 0.046508 0.390743 -0.131938
C23   C     C_R   0.598772 0.552247 0.390746 -0.131919
C24   C     C_R   0.953560 0.401305 0.390757 -0.131912
C25   C     C_R   0.067538 0.611808 0.890148 0.150077
C26   C     C_R   0.388309 0.455678 0.890178 0.150037
C27   C     C_R   0.544270 0.932437 0.890143 0.150068
C28   C     C_R   0.611799 0.067526 0.390149 0.150069
C29   C     C_R   0.455686 0.388296 0.390175 0.150041
C30   C     C_R   0.932520 0.544287 0.390155 0.150051
C31   C     C_R   0.036049 0.597462 0.851841 -0.070986
C32   C     C_R   0.402684 0.438521 0.851876 -0.070998
C33   C     C_R   0.561434 0.963964 0.851841 -0.070974
C34   C     C_R   0.597445 0.036030 0.351843 -0.070982
C35   C     C_R   0.438529 0.402673 0.351873 -0.070997
C36   C     C_R   0.964057 0.561444 0.351853 -0.070979
C37   C     C_R   0.013323 0.510599 0.832434 0.001932
C38   C     C_R   0.489507 0.502728 0.832453 0.001918
C39   C     C_R   0.497342 0.986767 0.832443 0.001939
C40   C     C_R   0.510580 0.013307 0.332437 0.001930
C41   C     C_R   0.502724 0.489506 0.332453 0.001918
C42   C     C_R   0.986794 0.497306 0.332450 0.001929
C43   C     C_R   0.078699 0.538345 0.909351 0.024777
C44   C     C_R   0.461713 0.540362 0.909364 0.024789
C45   C     C_R   0.459669 0.921322 0.909353 0.024777
C46   C     C_R   0.538338 0.078692 0.409353 0.024782
C47   C     C_R   0.540359 0.461708 0.409364 0.024789
C48   C     C_R   0.921346 0.459660 0.409360 0.024785
C49   C     C_R   0.577735 0.441906 0.445408 0.573323
C50   C     C_R   0.558103 0.135838 0.445405 0.573300
C51   C     C_R   0.864168 0.422267 0.445405 0.573303
C52   C     C_R   0.441908 0.577736 0.945408 0.573335
C53   C     C_R   0.135839 0.558104 0.945404 0.573287
C54   C     C_R   0.422267 0.864161 0.945403 0.573298
C55   C     C_R   0.912646 0.453785 0.592468 -0.043019
C56   C     C_R   0.546212 0.458780 0.592481 -0.042967
C57   C     C_R   0.541111 0.087342 0.592469 -0.043047
C58   C     C_R   0.453777 0.912620 0.092472 -0.043017
C59   C     C_R   0.458782 0.546219 0.092482 -0.042969
C60   C     C_R   0.087398 0.541168 0.092478 -0.043003
C61   C     C_R   0.953597 0.402523 0.610137 -0.095185
C62   C     C_R   0.597195 0.551066 0.610103 -0.095168
C63   C     C_R   0.448921 0.046507 0.610156 -0.095205
C64   C     C_R   0.402573 0.953646 0.110132 -0.095182
C65   C     C_R   0.551067 0.597216 0.110106 -0.095165
C66   C     C_R   0.046272 0.448913 0.110124 -0.095182
C67   C     C_R   0.981340 0.418864 0.648898 0.150436
C68   C     C_R   0.580849 0.562469 0.648867 0.150498
C69   C     C_R   0.437530 0.018795 0.648922 0.150553
C70   C     C_R   0.418912 0.981388 0.148894 0.150533
C71   C     C_R   0.562468 0.580876 0.148870 0.150526
C72   C     C_R   0.018547 0.437509 0.148890 0.150584
C73   C     C_R   0.966842 0.486494 0.670651 0.040682
C74   C     C_R   0.513533 0.480265 0.670670 0.040720
C75   C     C_R   0.519640 0.033195 0.670660 0.040698
C76   C     C_R   0.486473 0.966806 0.170656 0.040732
C77   C     C_R   0.480265 0.513553 0.170671 0.040747
C78   C     C_R   0.033250 0.519673 0.170668 0.040757
C79   C     C_R   0.931381 0.542521 0.652114 0.142081
C80   C     C_R   0.457816 0.388662 0.652184 0.142103
C81   C     C_R   0.611093 0.068525 0.652106 0.142136
C82   C     C_R   0.542434 0.931251 0.152131 0.142106
C83   C     C_R   0.388665 0.457824 0.152184 0.142099
C84   C     C_R   0.068927 0.611223 0.152158 0.142126
C85   C     C_R   0.905940 0.526672 0.613231 -0.100305
C86   C     C_R   0.473628 0.379074 0.613298 -0.100289
C87   C     C_R   0.620676 0.093946 0.613219 -0.100297
C88   C     C_R   0.526595 0.905819 0.113247 -0.100289
C89   C     C_R   0.379078 0.473631 0.113298 -0.100277
C90   C     C_R   0.094333 0.620819 0.113271 -0.100279
C91   C     C_R   0.997983 0.503844 0.790505 0.338735
C92   C     C_R   0.496260 0.494139 0.790522 0.338765
C93   C     C_R   0.505923 0.002110 0.790515 0.338698
C94   C     C_R   0.503820 0.997965 0.290508 0.338715
C95   C     C_R   0.494137 0.496264 0.290523 0.338751
C96   C     C_R   0.002129 0.505876 0.290520 0.338724
Cr1   Cr    Cr6+3 0.522350 0.263930 0.500020 1.103558
Cr2   Cr    Cr6+3 0.736070 0.258420 0.500020 1.103563
Cr3   Cr    Cr6+3 0.741580 0.477650 0.500020 1.103578
Cr4   Cr    Cr6+3 0.263930 0.522350 0.000020 1.103575
Cr5   Cr    Cr6+3 0.258420 0.736070 0.000020 1.103573
Cr6   Cr    Cr6+3 0.477650 0.741580 0.000020 1.103574
H1    H     H_    0.960394 0.346863 0.594297 0.179592
H2    H     H_    0.652623 0.613597 0.594220 0.179510
H3    H     H_    0.386479 0.039787 0.594328 0.179597
H4    H     H_    0.346965 0.960512 0.094283 0.179566
H5    H     H_    0.613597 0.652648 0.094224 0.179509
H6    H     H_    0.039308 0.386418 0.094260 0.179533
N1    N     N_R   0.949106 0.415390 0.772685 -0.187600
N2    N     N_R   0.584713 0.534165 0.772671 -0.187605
N3    N     N_R   0.466480 0.051122 0.772701 -0.187520
N4    N     N_R   0.415364 0.949154 0.272686 -0.187564
N5    N     N_R   0.534133 0.584718 0.272675 -0.187599
N6    N     N_R   0.050841 0.466132 0.272689 -0.187546
N7    N     N_R   0.939975 0.410038 0.734452 -0.140469
N8    N     N_R   0.590040 0.530377 0.734438 -0.140316
N9    N     N_R   0.470237 0.060239 0.734467 -0.140285
N10   N     N_R   0.410012 0.940022 0.234453 -0.140313
N11   N     N_R   0.530346 0.590050 0.234443 -0.140281
N12   N     N_R   0.059950 0.469894 0.234455 -0.140206
N13   N     N_R   0.030139 0.581130 0.730447 -0.136589
N14   N     N_R   0.418909 0.448546 0.730492 -0.136529
N15   N     N_R   0.550876 0.969795 0.730450 -0.136555
N16   N     N_R   0.581112 0.030055 0.230453 -0.136557
N17   N     N_R   0.448573 0.418924 0.230490 -0.136533
N18   N     N_R   0.970086 0.551138 0.230471 -0.136543
N19   N     N_R   0.038582 0.586536 0.768674 -0.186884
N20   N     N_R   0.413532 0.451594 0.768720 -0.186917
N21   N     N_R   0.547863 0.961365 0.768678 -0.186858
N22   N     N_R   0.586517 0.038499 0.268679 -0.186882
N23   N     N_R   0.451621 0.413542 0.268718 -0.186921
N24   N     N_R   0.961664 0.548115 0.268698 -0.186890
O1    O     O_R   0.498680 0.159540 0.541860 -0.509167
O2    O     O_R   0.840460 0.339140 0.541860 -0.509093
O3    O     O_R   0.660860 0.501320 0.541860 -0.509029
O4    O     O_R   0.159540 0.498680 0.041860 -0.509107
O5    O     O_R   0.339140 0.840460 0.041860 -0.509111
O6    O     O_R   0.501320 0.660860 0.041860 -0.509046
O7    O     O_R   0.532760 0.358060 0.540030 -0.502050
O8    O     O_R   0.641940 0.174700 0.540030 -0.501997
O9    O     O_R   0.825300 0.467240 0.540030 -0.502013
O10   O     O_R   0.358060 0.532760 0.040030 -0.502036
O11   O     O_R   0.174700 0.641940 0.040030 -0.502023
O12   O     O_R   0.467240 0.825300 0.040030 -0.502018
O13   O     O_R   0.498590 0.161190 0.456930 -0.493616
O14   O     O_R   0.838810 0.337400 0.456930 -0.493589
O15   O     O_R   0.662600 0.501410 0.456930 -0.493611
O16   O     O_R   0.161190 0.498590 0.956930 -0.493626
O17   O     O_R   0.337400 0.838810 0.956930 -0.493557
O18   O     O_R   0.501410 0.662600 0.956930 -0.493588
O19   O     O_R   0.532680 0.359580 0.461300 -0.454681
O20   O     O_R   0.640420 0.173100 0.461300 -0.454689
O21   O     O_R   0.826900 0.467320 0.461300 -0.454691
O22   O     O_R   0.359580 0.532680 0.961300 -0.454683
O23   O     O_R   0.173100 0.640420 0.961300 -0.454684
O24   O     O_R   0.467320 0.826900 0.961300 -0.454690
O25   O     O_3   0.666667 0.333333 0.499990 -0.279628
O26   O     O_3   0.333333 0.666667 0.999990 -0.279641
H7    H     H_    0.873898 0.566634 0.600098 0.176367
H8    H     H_    0.433912 0.307006 0.600205 0.176316
H9    H     H_    0.692661 0.125899 0.600073 0.176337
H10   H     H_    0.566504 0.873709 0.100123 0.176360
H11   H     H_    0.307011 0.433905 0.100204 0.176344
H12   H     H_    0.126538 0.692859 0.100160 0.176334
H13   H     H_    0.052163 0.389305 0.904776 0.182813
H14   H     H_    0.610700 0.662967 0.904769 0.182951
H15   H     H_    0.337230 0.947967 0.904795 0.182833
H16   H     H_    0.389295 0.052155 0.404782 0.182826
H17   H     H_    0.662943 0.610706 0.404775 0.182910
H18   H     H_    0.947909 0.337170 0.404798 0.182861
Br1   Br    Br    0.037472 0.345708 0.670673 -0.330246
Br2   Br    Br    0.653550 0.691870 0.670573 -0.330208
Br3   Br    Br    0.308280 0.962847 0.670725 -0.329828
Br4   Br    Br    0.345853 0.037641 0.170656 -0.330197
Br5   Br    Br    0.691865 0.653597 0.170580 -0.330310
Br6   Br    Br    0.962150 0.308169 0.170638 -0.330051
Br7   Br    Br    0.903477 0.632661 0.679061 -0.339940
Br8   Br    Br    0.368216 0.270502 0.679199 -0.339964
Br9   Br    Br    0.729115 0.096289 0.679035 -0.339637
Br10  Br    Br    0.632457 0.903209 0.179093 -0.339951
Br11  Br    Br    0.270507 0.368212 0.179199 -0.340090
Br12  Br    Br    0.097193 0.729322 0.179146 -0.339909
H19   H     H_    0.995395 0.365603 0.838404 0.173937
H20   H     H_    0.634436 0.629917 0.838404 0.174000
H21   H     H_    0.370334 0.004796 0.838425 0.173948
H22   H     H_    0.365583 0.995382 0.338411 0.173953
H23   H     H_    0.629889 0.634447 0.338411 0.173991
H24   H     H_    0.004727 0.370241 0.338430 0.173971
Br13  Br    Br    0.097997 0.735618 0.912685 -0.440909
Br14  Br    Br    0.264542 0.362263 0.912735 -0.440888
Br15  Br    Br    0.637557 0.901854 0.912660 -0.441057
Br16  Br    Br    0.735614 0.097990 0.412683 -0.440951
Br17  Br    Br    0.362286 0.264516 0.412725 -0.440903
Br18  Br    Br    0.902004 0.637613 0.412679 -0.441011
H25   H     H_    0.032528 0.655950 0.836766 0.181773
H26   H     H_    0.344235 0.376453 0.836816 0.181818
H27   H     H_    0.623419 0.967445 0.836758 0.181773
H28   H     H_    0.655932 0.032505 0.336767 0.181786
H29   H     H_    0.376472 0.344219 0.336810 0.181817
H30   H     H_    0.967584 0.623453 0.336775 0.181806

loop_
_geom_bond_atom_site_label_1
_geom_bond_atom_site_label_2
_ccdc_geom_bond_type
C25   C31   A    
C5    O4    A    
C31   H25   S    
C29   Br17  S    
C26   C32   A    
N2    N8    A    
C9    N9    A    
C6    C58   S    
C36   C42   A    
C3    O9    A    
Cr1   O1    S    
C32   H26   S    
C11   N11   A    
Cr6   O26   S    
C26   Br14  S    
C2    C57   S    
C35   H29   S    
C7    C73   S    
Cr2   O20   S    
C27   C33   A    
C15   H21   S    
C83   Br11  S    
C33   C39   A    
Cr6   O12   S    
C29   C47   A    
C42   C96   S    
C30   C48   A    
C61   H1    S    
C1    C56   S    
Cr4   O16   S    
N13   N19   A    
N1    N7    A    
C10   N16   A    
C18   C42   A    
C54   O24   A    
C88   H10   S    
C5    O11   A    
C12   N18   A    
Cr5   O23   S    
C68   C74   A    
C38   C92   S    
Cr2   O8    S    
N17   N23   A    
C49   O15   A    
Cr6   O6    S    
C7    N7    A    
C61   C67   A    
C39   C93   S    
C72   C78   A    
C11   C77   S    
N5    N11   A    
C10   C76   S    
C43   C53   S    
C48   C51   S    
C12   N12   A    
C63   C69   A    
C71   Br5   S    
C13   H19   S    
C12   C78   S    
C80   C86   A    
C79   Br7   S    
C67   C73   A    
C32   C38   A    
C63   H3    S    
C24   H18   S    
C13   C37   A    
C1    O7    A    
C96   N24   A    
C22   H16   S    
C44   C52   S    
C72   Br6   S    
C28   C34   A    
C50   O20   A    
C74   C80   A    
N15   N21   A    
C95   N23   A    
C9    C75   S    
C96   N6    A    
C41   C95   S    
C27   Br15  S    
C7    N13   A    
C93   N21   A    
C92   N20   A    
C89   H11   S    
C20   C44   A    
C19   C43   A    
C46   C50   S    
C57   C63   A    
C54   O17   A    
C21   C45   A    
C58   C64   A    
C83   C89   A    
C90   H12   S    
C66   C72   A    
C2    O1    A    
C62   H2    S    
C49   O19   A    
Cr5   O17   S    
C26   C44   A    
C24   C48   A    
C14   C20   A    
C23   C47   A    
C81   Br9   S    
C47   C49   S    
C76   C82   A    
Cr5   O5    S    
C75   C81   A    
C13   C19   A    
Cr2   O14   S    
C51   O14   A    
C67   Br1   S    
C65   C71   A    
C4    O6    A    
C69   Br3   S    
C57   C87   A    
C31   C37   A    
C59   C89   A    
C80   Br8   S    
C55   C85   A    
C10   N10   A    
C78   C84   A    
C14   C38   A    
C34   H28   S    
C56   C86   A    
C23   H17   S    
Cr2   O25   S    
C33   H27   S    
C66   H6    S    
C4    O10   A    
C28   C46   A    
C8    C74   S    
Cr1   O19   S    
Cr3   O3    S    
Cr6   O18   S    
C17   C23   A    
C70   Br4   S    
C15   C39   A    
C81   C87   A    
C91   N19   A    
C16   C40   A    
C16   H22   S    
C34   C40   A    
C50   O13   A    
C25   C43   A    
C22   C46   A    
C93   N3    A    
C45   C54   S    
C53   O23   A    
C64   C70   A    
Cr3   O25   S    
C70   C76   A    
C18   C24   A    
C55   C61   A    
C6    O12   A    
C94   N22   A    
Cr6   O24   S    
C71   C77   A    
C84   C90   A    
Cr4   O22   S    
N6    N12   A    
C29   C35   A    
C51   O21   A    
C16   C22   A    
C5    C60   S    
C11   N17   A    
Cr1   O13   S    
Cr3   O9    S    
C36   H30   S    
C40   C94   S    
C73   C79   A    
C58   C88   A    
Cr5   O26   S    
C14   H20   S    
C64   H4    S    
C60   C90   A    
C20   H14   S    
Cr2   O2    S    
C3    C55   S    
C21   H15   S    
C30   C36   A    
N3    N9    A    
C3    O2    A    
C2    O8    A    
C91   N1    A    
C6    O5    A    
C84   Br12  S    
C92   N2    A    
Cr3   O15   S    
C87   H9    S    
C25   Br13  S    
N16   N22   A    
N4    N10   A    
Cr5   O11   S    
C27   C45   A    
C30   Br18  S    
C86   H8    S    
C95   N5    A    
C82   C88   A    
Cr3   O21   S    
C4    C59   S    
C18   H24   S    
C9    N15   A    
C79   C85   A    
Cr1   O7    S    
C69   C75   A    
C56   C62   A    
C62   C68   A    
C53   O16   A    
C8    N14   A    
N14   N20   A    
C35   C41   A    
C17   C41   A    
N18   N24   A    
C8    N8    A    
C60   C66   A    
Cr4   O26   S    
C15   C21   A    
C19   H13   S    
C52   O18   A    
C82   Br10  S    
Cr4   O4    S    
C77   C83   A    
C28   Br16  S    
Cr4   O10   S    
C85   H7    S    
C17   H23   S    
C1    O3    A    
C52   O22   A    
C65   H5    S    
C94   N4    A    
C59   C65   A    
C68   Br2   S    
C37   C91   S    
Cr1   O25   S    
