data_mof_unit_13507.cif
_audit_creation_date              2012-12-10T19:10:05-0500
_audit_creation_method            fapswitch 2.2
_symmetry_space_group_name_H-M    P1
_symmetry_Int_Tables_number       1
_space_group_crystal_system       triclinic
_cell_length_a                    10.794729
_cell_length_b                    10.796863
_cell_length_c                    9.550687
_cell_angle_alpha                 90.598463
_cell_angle_beta                  90.036432
_cell_angle_gamma                 90.202872
_cell_volume                      1113.05707574

loop_
_atom_site_label
_atom_site_type_symbol
_atom_type_description
_atom_site_fract_x
_atom_site_fract_y
_atom_site_fract_z
_atom_type_partial_charge
C1    C     C_R   0.500253 0.262618 0.499068 0.796018
C2    C     C_R   0.229052 0.178831 0.100991 -0.120223
C3    C     C_R   0.932505 0.435129 0.397397 -0.255769
C4    C     C_R   0.871466 0.505549 0.499816 -0.076960
C5    C     C_R   0.939245 0.572625 0.601585 0.006263
C6    C     C_R   0.067438 0.566653 0.599485 -0.245235
C7    C     C_R   0.128482 0.494648 0.499054 -0.083116
C8    C     C_R   0.060972 0.427316 0.396965 -0.001398
C9    C     C_R   0.841829 0.774172 0.667813 -0.173849
C10   C     C_R   0.796892 0.857596 0.769545 0.153732
C11   C     C_R   0.786889 0.819185 0.909226 -0.136870
C12   C     C_R   0.262436 0.496736 0.499696 0.792737
C13   C     C_R   0.825485 0.700817 0.947408 -0.165273
C14   C     C_R   0.874130 0.619809 0.846764 -0.151709
C15   C     C_R   0.880896 0.655454 0.706235 0.107336
C16   C     C_R   0.425767 0.065707 0.594019 0.108648
C17   C     C_R   0.493929 0.129746 0.494592 -0.093113
C18   C     C_R   0.547387 0.063536 0.382814 -0.241732
C19   C     C_R   0.547040 0.934401 0.384085 -0.241972
C20   C     C_R   0.493346 0.871107 0.497195 -0.098739
C21   C     C_R   0.424505 0.938564 0.595264 0.114734
C22   C     C_3   0.418463 0.936498 0.751554 -0.502006
C23   C     C_R   0.498836 0.737673 0.500279 0.802128
C24   C     C_3   0.420564 0.077272 0.749211 -0.466140
C25   C     C_R   0.395558 0.523730 0.074196 0.299569
C26   C     C_R   0.602633 0.462630 0.073880 -0.098404
C27   C     C_R   0.602426 0.462195 0.925173 -0.070461
C28   C     C_R   0.395221 0.522999 0.926941 0.260350
C29   C     C_3   0.319658 0.637969 0.923861 -0.529300
C30   C     C_3   0.320392 0.638668 0.082578 -0.499240
C31   C     C_R   0.737561 0.503626 0.500145 0.797917
C32   C     C_R   0.161368 0.280380 0.053733 -0.156587
C33   C     C_R   0.106520 0.361731 0.150095 -0.157323
C34   C     C_R   0.120691 0.342707 0.294553 0.131116
C35   C     C_R   0.188718 0.240354 0.341149 -0.125512
C36   C     C_R   0.242260 0.158604 0.244445 -0.114040
Cu1   Cu    Cu3+1 0.499990 0.499980 0.640670 0.940322
Cu2   Cu    Cu3+1 0.500010 0.500020 0.359330 0.941210
H1    H     H_    0.270620 0.115183 0.026745 0.125748
H2    H     H_    0.751363 0.881503 0.989090 0.114450
H3    H     H_    0.819153 0.672366 0.055539 0.137234
H4    H     H_    0.906353 0.529305 0.878115 0.112791
H5    H     H_    0.594732 0.111086 0.298904 0.161368
H6    H     H_    0.594301 0.884638 0.300846 0.161759
H7    H     H_    0.327943 0.900467 0.788822 0.193408
H8    H     H_    0.502132 0.895358 0.800303 0.210136
H9    H     H_    0.332366 0.120058 0.784571 0.187337
H10   H     H_    0.505941 0.118632 0.795243 0.205826
H11   H     H_    0.685135 0.433657 0.128440 0.136839
H12   H     H_    0.151030 0.295807 0.942511 0.127539
H13   H     H_    0.684330 0.432133 0.869841 0.140125
H14   H     H_    0.372215 0.715650 0.878404 0.216057
H15   H     H_    0.225981 0.621567 0.879712 0.193176
H16   H     H_    0.372324 0.718241 0.128911 0.214491
H17   H     H_    0.227464 0.621816 0.128814 0.199539
H18   H     H_    0.053850 0.439838 0.112342 0.114357
H19   H     H_    0.199146 0.223322 0.452120 0.098122
H20   H     H_    0.293378 0.079089 0.280629 0.140521
H21   H     H_    0.879624 0.381742 0.321101 0.145738
H22   H     H_    0.120020 0.622080 0.673693 0.144339
H23   H     H_    0.849451 0.802675 0.559662 0.114746
N1    N     N_R   0.500790 0.500930 0.147930 -0.186456
N2    N     N_R   0.500790 0.500890 0.852020 -0.183533
O1    O     O_R   0.500000 0.319640 0.618810 -0.581971
O2    O     O_R   0.500010 0.319680 0.381230 -0.575586
O3    O     O_R   0.319640 0.499990 0.618790 -0.587452
O4    O     O_R   0.319650 0.500030 0.381210 -0.571092
O5    O     O_R   0.499990 0.680320 0.618770 -0.571342
O6    O     O_R   0.500000 0.680360 0.381190 -0.586659
O7    O     O_R   0.680350 0.499970 0.618790 -0.577740
O8    O     O_R   0.680360 0.500010 0.381210 -0.597251
C37   C     C_3   0.762148 0.987635 0.729545 -0.436051
C38   C     C_3   0.877272 0.065058 0.694854 -0.354212
C39   C     C_3   0.842066 0.197000 0.655510 -0.821242
H24   H     H_    0.782865 0.196277 0.560289 0.248236
H25   H     H_    0.791381 0.242883 0.742796 0.247046
H26   H     H_    0.927373 0.251223 0.633690 0.243192
H27   H     H_    0.939984 0.068658 0.787274 0.220380
H28   H     H_    0.928248 0.022055 0.605823 0.217369
H29   H     H_    0.699369 0.983907 0.637671 0.222860
H30   H     H_    0.711469 0.033570 0.816906 0.188751

loop_
_geom_bond_atom_site_label_1
_geom_bond_atom_site_label_2
_ccdc_geom_bond_type
C16   C21   A    
C38   C39   S    
C23   O6    A    
C35   C36   A    
C13   H3    S    
C7    C8    A    
C25   C28   A    
C30   H16   S    
C26   C27   A    
Cu1   Cu2   S    
C39   H25   S    
C9    H23   S    
C28   C29   S    
C18   C19   A    
C36   H20   S    
C5    C6    A    
Cu1   O5    S    
C2    C32   A    
C34   C35   A    
C2    H1    S    
C31   O7    A    
C19   C20   A    
C16   C17   A    
C39   H26   S    
C1    O2    A    
C38   H27   S    
C20   C23   S    
C9    C10   A    
C37   H30   S    
C14   H4    S    
C33   H18   S    
C31   O8    A    
Cu2   O6    S    
C16   C24   S    
C21   C22   S    
Cu1   N2    S    
C27   H13   S    
C17   C18   A    
C7    C12   S    
C12   O4    A    
C39   H24   S    
C24   H10   S    
C6    H22   S    
C3    C8    A    
C26   H11   S    
C37   C38   S    
C12   O3    A    
C23   O5    A    
C29   C30   S    
Cu2   O2    S    
Cu1   O3    S    
C33   C34   A    
C38   H28   S    
C8    C34   S    
Cu2   O4    S    
C32   H12   S    
C27   N2    A    
C22   H8    S    
C22   C24   S    
C3    C4    A    
C1    O1    A    
Cu1   O1    S    
C19   H6    S    
C2    C36   A    
C25   C30   S    
Cu2   O8    S    
C24   H9    S    
C4    C5    A    
C6    C7    A    
C30   H17   S    
C1    C17   S    
C35   H19   S    
Cu1   O7    S    
C32   C33   A    
C26   N1    A    
C37   H29   S    
C18   H5    S    
C11   C13   A    
C29   H15   S    
C25   N1    A    
C9    C15   A    
C11   H2    S    
C5    C15   S    
C4    C31   S    
C10   C11   A    
C28   N2    A    
C22   H7    S    
C20   C21   A    
C14   C15   A    
C13   C14   A    
C10   C37   S    
Cu2   N1    S    
C29   H14   S    
C3    H21   S    
