data_mof_unit_pretest_608.cif
_audit_creation_date              2012-10-26T21:13:40-0400
_audit_creation_method            fapswitch 2.2
_symmetry_space_group_name_H-M    P1
_symmetry_Int_Tables_number       1
_space_group_crystal_system       triclinic
_cell_length_a                    9.06103
_cell_length_b                    10.889851
_cell_length_c                    9.594405
_cell_angle_alpha                 91.029104
_cell_angle_beta                  90.562776
_cell_angle_gamma                 90.787787
_cell_volume                      946.42110255

loop_
_atom_site_label
_atom_site_type_symbol
_atom_type_description
_atom_site_fract_x
_atom_site_fract_y
_atom_site_fract_z
_atom_type_partial_charge
Br1   Br    Br    0.234134 0.346336 0.148187 -0.550777
C1    C     C_R   0.504184 0.262644 0.498487 0.553978
C2    C     C_R   0.624025 0.532597 0.928516 0.112559
C3    C     C_3   0.707495 0.650739 0.924565 -0.253367
C4    C     C_R   0.220853 0.500166 0.499574 0.570405
C5    C     C_3   0.705928 0.653009 0.083760 -0.013364
C6    C     C_R   0.503625 0.737511 0.500928 0.549679
C7    C     C_R   0.779144 0.500327 0.500427 0.552523
C8    C     C_1   0.065599 0.500394 0.499374 -0.034430
C9    C     C_1   0.934380 0.500451 0.500533 -0.038273
C10   C     C_R   0.469171 0.066819 0.616082 -0.032166
C11   C     C_R   0.504476 0.129072 0.494662 0.018397
C12   C     C_R   0.532157 0.932300 0.375715 -0.133221
C13   C     C_R   0.538693 0.060340 0.372673 0.123459
C14   C     C_3   0.520712 0.101793 0.122256 -0.280289
C15   C     C_3   0.935056 0.750201 0.171009 -0.301865
C16   C     C_3   0.813110 0.940691 0.858234 -0.326958
C17   C     C_R   0.505855 0.870950 0.500527 -0.021890
C18   C     C_R   0.477286 0.939903 0.621001 0.017144
C19   C     C_3   0.562916 0.947988 0.756380 0.008130
C20   C     C_3   0.541740 0.085704 0.754619 -0.238579
C21   C     C_R   0.623293 0.534070 0.075253 0.161204
C22   C     C_R   0.388456 0.444615 0.069873 0.229507
C23   C     C_R   0.387545 0.447850 0.922065 0.005504
Cu1   Cu    Cu3+1 0.499990 0.499980 0.640670 0.942978
Cu2   Cu    Cu3+1 0.500010 0.500020 0.359330 1.010669
H1    H     H_    0.638716 0.722448 0.878067 0.162889
H2    H     H_    0.498997 0.193529 0.078863 0.176522
H3    H     H_    0.589693 0.049792 0.048100 0.125715
H4    H     H_    0.413775 0.052006 0.134557 0.164242
H5    H     H_    0.912167 0.566756 0.106929 0.276166
H6    H     H_    0.972257 0.787835 0.070343 0.131354
H7    H     H_    0.033723 0.730425 0.235952 0.161208
H8    H     H_    0.867852 0.819313 0.227491 0.152041
H9    H     H_    0.764056 0.939697 0.646549 0.264566
H10   H     H_    0.919190 0.892630 0.843412 0.147379
H11   H     H_    0.762441 0.908315 0.955958 0.144903
H12   H     H_    0.640755 0.728372 0.130927 0.136944
H13   H     H_    0.836508 0.040814 0.868112 0.149131
H14   H     H_    0.558721 0.881217 0.281824 0.132903
H15   H     H_    0.506632 0.901674 0.843878 0.127956
H16   H     H_    0.461291 0.119169 0.832622 0.117700
H17   H     H_    0.645284 0.141392 0.749504 0.154918
H18   H     H_    0.296739 0.405853 0.863866 0.153613
H19   H     H_    0.818612 0.639996 0.878095 0.148460
H20   H     H_    0.671676 0.189755 0.264677 0.274789
N1    N     N_R   0.500920 0.500930 0.147930 -0.236189
N2    N     N_R   0.500930 0.500890 0.852020 -0.261939
N3    N     N_2   0.600095 0.115845 0.252922 -0.510718
N4    N     N_2   0.850776 0.638133 0.146961 -0.488390
N5    N     N_2   0.717122 0.914498 0.739600 -0.517217
O1    O     O_R   0.500000 0.319640 0.618810 -0.514107
O2    O     O_R   0.500020 0.319680 0.381230 -0.463185
O3    O     O_R   0.288380 0.499980 0.618770 -0.516093
O4    O     O_R   0.288400 0.500020 0.381190 -0.441042
O5    O     O_R   0.499980 0.680320 0.618770 -0.488843
O6    O     O_R   0.500000 0.680360 0.381190 -0.519378
O7    O     O_R   0.711600 0.499980 0.618810 -0.503426
O8    O     O_R   0.711620 0.500020 0.381230 -0.473830

loop_
_geom_bond_atom_site_label_1
_geom_bond_atom_site_label_2
_ccdc_geom_bond_type
C10   C11   A    
C5    H12   S    
C4    C8    S    
C15   H8    S    
C16   H10   S    
C15   H7    S    
C15   H6    S    
C8    C9    T    
C2    N2    A    
C18   C19   S    
Cu1   N2    S    
Cu1   O5    S    
C22   C23   A    
C6    C17   S    
C1    C11   S    
Cu2   O4    S    
C16   N5    S    
Br1   C22   S    
C19   H15   S    
Cu1   O1    S    
C16   H11   S    
C12   C13   A    
C5    N4    S    
H20   N3    S    
C10   C18   A    
C14   H2    S    
C1    O1    A    
C6    O5    A    
C12   C17   A    
C3    C5    S    
C15   N4    S    
C14   H3    S    
C19   N5    S    
C3    H19   S    
C14   N3    S    
C7    O8    A    
H9    N5    S    
C23   H18   S    
Cu2   O6    S    
C21   N1    A    
C13   N3    S    
C22   N1    A    
C6    O6    A    
C12   H14   S    
H5    N4    S    
C10   C20   S    
C20   H16   S    
C5    C21   S    
Cu2   O2    S    
C4    O3    A    
C3    H1    S    
C19   C20   S    
C14   H4    S    
C7    C9    S    
Cu1   O7    S    
C16   H13   S    
Cu1   O3    S    
Cu2   N1    S    
C17   C18   A    
Cu2   O8    S    
C7    O7    A    
Cu1   Cu2   S    
C20   H17   S    
C4    O4    A    
C2    C3    S    
C11   C13   A    
C2    C21   A    
C1    O2    A    
C23   N2    A    
