data_mof_unit_pretest_625.cif
_audit_creation_date              2012-12-11T15:24:31-0500
_audit_creation_method            fapswitch 2.2
_symmetry_space_group_name_H-M    P1
_symmetry_Int_Tables_number       1
_space_group_crystal_system       triclinic
_cell_length_a                    23.02773
_cell_length_b                    6.941601
_cell_length_c                    20.71354
_cell_angle_alpha                 89.991027
_cell_angle_beta                  93.215267
_cell_angle_gamma                 89.987664
_cell_volume                      3305.83296075

loop_
_atom_site_label
_atom_site_type_symbol
_atom_type_description
_atom_site_fract_x
_atom_site_fract_y
_atom_site_fract_z
_atom_type_partial_charge
O1    O     O_R   0.188030 0.379840 0.189340 -0.524527
O2    O     O_R   0.811970 0.620160 0.810660 -0.530912
O3    O     O_R   0.311970 0.879840 0.310660 -0.525845
O4    O     O_R   0.688030 0.120160 0.689340 -0.529443
O5    O     O_R   0.307090 0.708420 0.185790 -0.524429
O6    O     O_R   0.692910 0.291580 0.814210 -0.519639
O7    O     O_R   0.192910 0.208420 0.314210 -0.525004
O8    O     O_R   0.807090 0.791580 0.685790 -0.519730
C1    C     C_R   0.326692 0.540778 0.170714 0.749646
C2    C     C_R   0.673530 0.459325 0.829547 0.768060
C3    C     C_R   0.173311 0.040785 0.329289 0.747995
C4    C     C_R   0.826501 0.959306 0.670490 0.764813
O9    O     O_R   0.188180 0.709480 0.181650 -0.542365
O10   O     O_R   0.811820 0.290520 0.818350 -0.552205
O11   O     O_R   0.311820 0.209480 0.318350 -0.542249
O12   O     O_R   0.688180 0.790520 0.681650 -0.552161
O13   O     O_R   0.192210 0.880960 0.306500 -0.542740
O14   O     O_R   0.807790 0.119040 0.693500 -0.545377
O15   O     O_R   0.307790 0.380960 0.193500 -0.542736
O16   O     O_R   0.692210 0.619040 0.806500 -0.545412
C5    C     C_R   0.166645 0.540815 0.167070 0.776910
C6    C     C_R   0.834387 0.459102 0.832000 0.738606
C7    C     C_R   0.333353 0.040740 0.332960 0.772779
C8    C     C_R   0.665577 0.959160 0.668025 0.738286
O17   O     O_3   0.251460 0.546730 0.290970 -0.374036
O18   O     O_3   0.748540 0.453270 0.709030 -0.374075
O19   O     O_3   0.248540 0.046730 0.209030 -0.372681
O20   O     O_3   0.751460 0.953270 0.790970 -0.374866
V1    V     V_3+5 0.249730 0.821120 0.242400 1.546021
V2    V     V_3+5 0.750270 0.178880 0.757600 1.494483
V3    V     V_3+5 0.250270 0.321120 0.257600 1.543864
V4    V     V_3+5 0.749730 0.678880 0.742400 1.494237
C9    C     C_R   0.568838 0.113361 0.627354 -0.009304
C10   C     C_R   0.430794 0.902783 0.374211 0.004006
C11   C     C_R   0.931348 0.611849 0.872287 -0.012614
C12   C     C_R   0.068407 0.406342 0.126943 0.006111
C13   C     C_R   0.612135 0.967979 0.623218 -0.144157
C14   C     C_R   0.383042 0.028346 0.381646 -0.094572
C15   C     C_R   0.887710 0.467953 0.876937 -0.147096
C16   C     C_R   0.116742 0.528869 0.118703 -0.114323
C17   C     C_R   0.604304 0.824955 0.575979 -0.218542
C18   C     C_R   0.381354 0.140104 0.437544 -0.175247
C19   C     C_R   0.894918 0.326997 0.924922 -0.219129
C20   C     C_R   0.118638 0.638465 0.062354 -0.158158
C21   C     C_R   0.557677 0.830509 0.529127 0.083218
C22   C     C_R   0.425535 0.128687 0.487174 0.068310
C23   C     C_R   0.941258 0.333449 0.972084 0.084707
C24   C     C_R   0.073753 0.629360 0.013547 0.100362
C25   C     C_R   0.515227 0.976966 0.532038 -0.028199
C26   C     C_R   0.469905 0.988912 0.482883 -0.031148
C27   C     C_R   0.984074 0.478552 0.968743 -0.029752
C28   C     C_R   0.029113 0.491098 0.018166 -0.042894
C29   C     C_R   0.517798 0.109810 0.584395 -0.029995
C30   C     C_R   0.469040 0.861392 0.429135 -0.040638
C31   C     C_R   0.982168 0.609318 0.915698 -0.013836
C32   C     C_R   0.029667 0.365190 0.072372 -0.042981
C33   C     C_R   0.551727 0.685952 0.481184 0.209678
C34   C     C_R   0.424481 0.247661 0.542486 0.223629
C35   C     C_R   0.946463 0.191145 0.020876 0.214368
C36   C     C_R   0.075472 0.746954 0.958221 0.220009
C37   C     C_R   0.506121 0.696547 0.432496 -0.092144
C38   C     C_R   0.468765 0.232509 0.592044 -0.081431
C39   C     C_R   0.991908 0.202023 0.069739 -0.090758
C40   C     C_R   0.031492 0.731192 0.908038 -0.097742
H1    H     H_    0.636655 0.712121 0.574459 0.171706
H2    H     H_    0.345417 0.239147 0.440871 0.135018
H3    H     H_    0.862259 0.215275 0.926754 0.171977
H4    H     H_    0.155532 0.733008 0.057318 0.166424
C41   C     C_3   0.049263 0.053643 0.532840 -0.033945
C42   C     C_3   0.950836 0.947207 0.467308 0.004228
C43   C     C_3   0.450773 0.553730 0.967195 -0.035673
C44   C     C_3   0.549200 0.447121 0.032731 0.004272
C45   C     C_3   0.013346 0.872018 0.545299 0.272841
C46   C     C_3   0.986734 0.128963 0.454889 0.279473
C47   C     C_3   0.486696 0.372083 0.954736 0.272784
C48   C     C_3   0.513296 0.628902 0.045151 0.279433
H5    H     H_    0.014087 0.682468 0.449773 0.137248
H6    H     H_    0.985976 0.318751 0.550283 0.171859
H7    H     H_    0.485957 0.182430 0.050259 0.137237
H8    H     H_    0.514052 0.818788 0.949759 0.171658
C49   C     C_1   0.871775 0.968857 0.624746 -0.118271
C50   C     C_1   0.128122 0.031329 0.375140 -0.127419
C51   C     C_1   0.628260 0.468887 0.875294 -0.119285
C52   C     C_1   0.371892 0.531311 0.124875 -0.125584
C53   C     C_3   0.992492 0.175346 0.528134 -0.318541
C54   C     C_3   0.007605 0.825541 0.472080 -0.276359
C55   C     C_3   0.507539 0.675369 0.971907 -0.318562
C56   C     C_3   0.492435 0.325520 0.027954 -0.276223
C57   C     C_3   0.956776 0.990034 0.540704 0.055222
C58   C     C_3   0.043295 0.010738 0.459433 0.053786
C59   C     C_3   0.543261 0.490034 0.959337 0.055694
C60   C     C_3   0.456738 0.510742 0.040603 0.053642
C61   C     C_1   0.909969 0.977838 0.586793 0.062445
C62   C     C_1   0.090025 0.022537 0.413222 0.046652
C63   C     C_1   0.590068 0.477857 0.913249 0.061883
C64   C     C_1   0.409999 0.522527 0.086804 0.047179
C65   C     C_2   0.578585 0.274973 0.673419 0.446615
H9    H     H_    0.575689 0.422504 0.656123 0.007889
O21   O     O_2   0.586508 0.244230 0.731261 -0.519820
C66   C     C_2   0.448317 0.848012 0.308060 0.414507
H10   H     H_    0.490690 0.784847 0.301861 0.047315
O22   O     O_2   0.417770 0.881501 0.259312 -0.542819
C67   C     C_2   0.922020 0.770535 0.824981 0.454773
H11   H     H_    0.924597 0.919140 0.841230 0.007838
O23   O     O_2   0.914526 0.736067 0.767331 -0.520196
C68   C     C_2   0.051107 0.354391 0.193415 0.419335
H12   H     H_    0.008254 0.295778 0.200212 0.046135
O24   O     O_2   0.082495 0.384962 0.241744 -0.542434
N1    N     N_2   0.590067 0.524208 0.484733 -0.547069
H13   H     H_    0.570078 0.391566 0.480461 0.254664
C69   C     C_3   0.640620 0.542710 0.446772 -0.552351
H14   H     H_    0.669655 0.416746 0.455877 0.209163
H15   H     H_    0.665285 0.675389 0.460545 0.216599
H16   H     H_    0.627478 0.548504 0.394395 0.185870
N2    N     N_2   0.376634 0.373608 0.551889 -0.536176
H17   H     H_    0.335883 0.315283 0.542485 0.269170
C70   C     C_3   0.383239 0.566754 0.527205 -0.523486
H18   H     H_    0.381545 0.565450 0.473576 0.231706
H19   H     H_    0.425147 0.630044 0.546008 0.198525
H20   H     H_    0.347365 0.658921 0.543192 0.207117
N3    N     N_2   0.907473 0.031114 0.018076 -0.546658
H21   H     H_    0.926876 0.897740 0.023412 0.254929
C71   C     C_3   0.856694 0.054549 0.055402 -0.552439
H22   H     H_    0.827195 0.929508 0.046904 0.209658
H23   H     H_    0.832665 0.187546 0.040491 0.216814
H24   H     H_    0.869474 0.063029 0.107825 0.185806
N4    N     N_2   0.124001 0.872284 0.951411 -0.534401
H25   H     H_    0.141726 0.869309 0.906813 0.270761
C72   C     C_3   0.116221 0.065301 0.975740 -0.526467
H26   H     H_    0.155953 0.151696 0.968774 0.207738
H27   H     H_    0.109185 0.061092 0.028202 0.246510
H28   H     H_    0.078592 0.136592 0.949677 0.187598
C73   C     C_2   0.494277 0.524517 0.390588 0.305715
H29   H     H_    0.529326 0.430705 0.377453 0.072907
O25   O     O_2   0.444720 0.482166 0.371805 -0.536695
C74   C     C_2   0.457162 0.325770 0.654586 0.419195
H30   H     H_    0.443016 0.474751 0.655811 0.075717
O26   O     O_2   0.460049 0.232869 0.704734 -0.512200
C75   C     C_2   0.002684 0.031607 0.112731 0.298903
H31   H     H_    0.966967 0.942156 0.126802 0.074272
O27   O     O_2   0.051990 0.985498 0.131332 -0.537425
C76   C     C_2   0.042354 0.827327 0.845849 0.364765
H32   H     H_    0.053679 0.978941 0.844877 0.059475
O28   O     O_2   0.041694 0.734622 0.795713 -0.507032
N5    N     N_2   0.026683 0.732512 0.595927 -0.516427
H33   H     H_    0.024354 0.789349 0.641688 0.287778
C77   C     C_3   0.078440 0.618851 0.588316 -0.479270
H34   H     H_    0.082475 0.509204 0.627312 0.205319
H35   H     H_    0.117710 0.711830 0.591600 0.204980
H36   H     H_    0.075799 0.542858 0.541077 0.203680
N6    N     N_2   0.973321 0.269486 0.404584 -0.524906
H37   H     H_    0.008307 0.356042 0.395517 0.266550
C78   C     C_3   0.920379 0.377642 0.411504 -0.516324
H38   H     H_    0.912915 0.475036 0.369341 0.192431
H39   H     H_    0.923825 0.465893 0.456284 0.205676
H40   H     H_    0.882514 0.279404 0.413214 0.219484
N7    N     N_2   0.473365 0.232644 0.904107 -0.517207
H41   H     H_    0.475695 0.289529 0.858347 0.287424
C79   C     C_3   0.421610 0.119037 0.911712 -0.477513
H42   H     H_    0.417582 0.009425 0.872718 0.205164
H43   H     H_    0.382337 0.212065 0.908421 0.205584
H44   H     H_    0.424247 0.043004 0.958952 0.203801
N8    N     N_2   0.526706 0.769365 0.095454 -0.524815
H45   H     H_    0.491719 0.855965 0.104515 0.266532
C80   C     C_3   0.579648 0.877453 0.088533 -0.516173
H46   H     H_    0.587109 0.974816 0.130692 0.192567
H47   H     H_    0.576205 0.965734 0.043749 0.205546
H48   H     H_    0.617515 0.779165 0.086831 0.219387
C81   C     C_2   0.103149 0.111730 0.571739 0.355909
H49   H     H_    0.101482 0.132799 0.623472 0.062581
O29   O     O_2   0.148877 0.135306 0.545792 -0.528181
C82   C     C_2   0.897130 0.887253 0.428413 0.349209
H50   H     H_    0.899002 0.864356 0.376789 0.057636
O30   O     O_2   0.851343 0.863911 0.454263 -0.534385
C83   C     C_2   0.396889 0.611921 0.928292 0.359673
H51   H     H_    0.398560 0.633051 0.876559 0.061902
O31   O     O_2   0.351157 0.635513 0.954233 -0.523710
C84   C     C_2   0.602909 0.387061 0.071623 0.348878
H52   H     H_    0.601039 0.364106 0.123247 0.057710
O32   O     O_2   0.648697 0.363696 0.045772 -0.534613

loop_
_geom_bond_atom_site_label_1
_geom_bond_atom_site_label_2
_ccdc_geom_bond_type
C34   C38   A    
O1    C5    A    
N7    H41   S    
C50   C62   T    
C55   C59   S    
O19   V1    S    
O13   V1    S    
C81   H49   S    
O3    C7    A    
C77   H34   S    
C44   C84   S    
C44   C48   S    
O15   V3    S    
C65   H9    S    
C37   C73   S    
C71   H22   S    
C83   O31   D    
O7    C3    A    
C21   C33   A    
O5    C1    A    
C80   H46   S    
C68   O24   D    
C13   C17   A    
O9    V1    S    
C77   H35   S    
C14   C18   A    
H8    C55   S    
C11   C67   S    
N1    C69   S    
N5    H33   S    
O4    C8    A    
C71   H23   S    
C68   H12   S    
N2    H17   S    
C2    C51   S    
C60   C64   S    
O2    V4    S    
C52   C64   T    
C38   C74   S    
C33   C37   A    
O3    V1    S    
C42   C82   S    
N5    C77   S    
C1    O15   A    
C33   N1    S    
C43   C60   S    
C56   C60   S    
C2    O16   A    
N2    C70   S    
O2    C6    A    
C10   C66   S    
N6    H37   S    
C79   H43   S    
C24   C36   A    
O14   V2    S    
C21   C25   A    
C78   H39   S    
C16   C20   A    
C27   C31   A    
C47   C59   S    
C72   H28   S    
C47   N7    S    
O11   C7    A    
O12   C8    A    
C22   C34   A    
O17   V1    S    
C81   O29   D    
C80   H47   S    
O10   V2    S    
H7    C56   S    
C44   C56   S    
C82   O30   D    
C58   C62   S    
O5    V1    S    
O1    V3    S    
C9    C29   A    
C32   C39   A    
O7    V3    S    
C12   C68   S    
C27   C28   A    
O8    V4    S    
C84   H52   S    
O20   V4    S    
C77   H36   S    
C74   O26   D    
C54   C58   S    
C70   H20   S    
C44   C59   S    
C53   C57   S    
O18   V4    S    
C71   H24   S    
C17   H1    S    
C11   C31   A    
C9    C13   A    
C45   N5    S    
C11   C15   A    
N4    C72   S    
C42   C46   S    
C12   C32   A    
C49   C61   T    
C29   C38   A    
C84   O32   D    
C79   H42   S    
C12   C16   A    
O8    C4    A    
C51   C63   T    
C31   C40   A    
C66   O22   D    
C8    C13   S    
C79   H44   S    
O9    C5    A    
C69   H15   S    
C41   C81   S    
C78   H40   S    
C41   C45   S    
C48   C55   S    
N3    H21   S    
C48   C60   S    
C43   C55   S    
H6    C53   S    
C19   H3    S    
O6    V2    S    
H5    C54   S    
C10   C30   A    
C80   H48   S    
O19   V3    S    
C18   C22   A    
C73   H29   S    
C67   O23   D    
C76   O28   D    
C46   N6    S    
C20   H4    S    
C42   C57   S    
C3    C50   S    
C41   C58   S    
C42   C54   S    
C41   C53   S    
C82   H50   S    
C73   O25   D    
C72   H26   S    
O16   V4    S    
C3    O13   A    
C65   O21   D    
C69   H14   S    
N8    C80   S    
C10   C14   A    
C39   C75   S    
O17   V3    S    
C36   N4    S    
C74   H30   S    
O6    C2    A    
C23   C27   A    
C75   H31   S    
O11   V3    S    
N4    H25   S    
C30   C37   A    
O12   V4    S    
C7    C14   S    
C22   C26   A    
C35   C39   A    
C36   C40   A    
C46   C58   S    
C70   H19   S    
C45   C57   S    
C26   C30   A    
C83   H51   S    
N1    H13   S    
C43   C47   S    
C75   O27   D    
O10   C6    A    
C34   N2    S    
C5    C16   S    
C40   C76   S    
C25   C29   A    
C6    C15   S    
O20   V2    S    
C66   H10   S    
C43   C83   S    
C4    C49   S    
C69   H16   S    
C9    C65   S    
N6    C78   S    
C46   C53   S    
C57   C61   S    
C45   C54   S    
N3    C71   S    
N8    H45   S    
C1    C52   S    
C23   C35   A    
C35   N3    S    
C28   C32   A    
C47   C56   S    
C24   C28   A    
C15   C19   A    
C59   C63   S    
N7    C79   S    
C25   C26   A    
C4    O14   A    
C67   H11   S    
C18   H2    S    
C17   C21   A    
C76   H32   S    
C48   N8    S    
C78   H38   S    
C70   H18   S    
C19   C23   A    
O4    V2    S    
C20   C24   A    
C72   H27   S    
O18   V2    S    
