data_mof_unit_pretest_196.cif
_audit_creation_date              2012-12-10T17:05:11-0500
_audit_creation_method            fapswitch 2.2
_symmetry_space_group_name_H-M    P1
_symmetry_Int_Tables_number       1
_space_group_crystal_system       triclinic
_cell_length_a                    10.729989
_cell_length_b                    11.033603
_cell_length_c                    9.831737
_cell_angle_alpha                 110.917775
_cell_angle_beta                  98.516146
_cell_angle_gamma                 91.170029
_cell_volume                      1071.89237771

loop_
_atom_site_label
_atom_site_type_symbol
_atom_type_description
_atom_site_fract_x
_atom_site_fract_y
_atom_site_fract_z
_atom_type_partial_charge
C1    C     C_R   0.490295 0.254178 0.440793 0.865584
C2    C     C_3   0.878313 0.502018 0.500496 0.131160
C3    C     C_3   0.950504 0.525798 0.658297 -0.372020
C4    C     C_3   0.922776 0.613451 0.453421 -0.407040
C5    C     C_2   0.483875 0.114939 0.407465 -0.370649
C6    C     C_2   0.497802 0.069438 0.516760 -0.158606
C7    C     C_2   0.511843 0.884950 0.592638 -0.362898
C8    C     C_2   0.493014 0.930355 0.483403 -0.162468
C9    C     C_2   0.510851 0.510361 0.081378 -0.081633
C10   C     C_2   0.488695 0.490119 0.918747 -0.082438
C11   C     C_R   0.260100 0.500624 0.500975 0.767537
C12   C     C_R   0.508653 0.745795 0.559235 0.862330
C13   C     C_R   0.740211 0.500622 0.499694 0.766915
C14   C     C_3   0.056417 0.367435 0.399855 -0.456661
C15   C     C_3   0.911749 0.369459 0.393505 -0.389464
C16   C     C_3   0.093082 0.526103 0.659299 -0.367156
C17   C     C_3   0.064564 0.606025 0.439423 0.030443
C18   C     C_3   0.122614 0.502881 0.502053 0.157727
Cu1   Cu    Cu3+1 0.522160 0.521810 0.644910 0.920449
Cu2   Cu    Cu3+1 0.477840 0.478190 0.355090 0.919407
H1    H     H_    0.091403 0.290778 0.441597 0.165937
H2    H     H_    0.905225 0.708685 0.535283 0.166159
H3    H     H_    0.140646 0.617909 0.742915 0.179757
H4    H     H_    0.928949 0.620792 0.737687 0.165220
H5    H     H_    0.475013 0.864784 0.368436 0.178781
H6    H     H_    0.513878 0.134972 0.631746 0.179941
H7    H     H_    0.529781 0.950800 0.707411 0.149192
H8    H     H_    0.467807 0.049094 0.292681 0.148833
H9    H     H_    0.413903 0.418878 0.845816 0.155613
H10   H     H_    0.585108 0.582201 0.154463 0.156546
H11   H     H_    0.626583 0.620768 0.934216 0.185912
H12   H     H_    0.078439 0.340602 0.286093 0.170540
H13   H     H_    0.374481 0.378012 0.065476 0.186044
H14   H     H_    0.865511 0.352821 0.278571 0.175972
H15   H     H_    0.875850 0.288653 0.423610 0.159656
H16   H     H_    0.129544 0.447244 0.696380 0.156739
H17   H     H_    0.920019 0.448289 0.696984 0.172933
H18   H     H_    0.066499 0.565517 0.318358 0.122292
H19   H     H_    0.866700 0.605578 0.345400 0.141219
N1    N     N_2   0.444530 0.445420 0.137360 -0.286972
N2    N     N_2   0.555520 0.554510 0.862630 -0.286694
O1    O     O_R   0.511820 0.332340 0.577400 -0.576421
O2    O     O_R   0.474400 0.295500 0.332650 -0.573647
O3    O     O_R   0.336400 0.518400 0.622370 -0.586894
O4    O     O_R   0.298980 0.481560 0.377620 -0.592512
O5    O     O_R   0.525600 0.704500 0.667350 -0.575121
O6    O     O_R   0.488180 0.667660 0.422600 -0.581877
O7    O     O_R   0.701020 0.518440 0.622380 -0.584152
O8    O     O_R   0.663600 0.481600 0.377630 -0.582332
C19   C     C_3   0.137614 0.742151 0.490681 -0.411131
C20   C     C_3   0.166485 0.817545 0.657098 -0.833062
H20   H     H_    0.082276 0.816184 0.709879 0.246020
H21   H     H_    0.246619 0.777729 0.708225 0.249997
H22   H     H_    0.196105 0.920504 0.677940 0.237610
H23   H     H_    0.228224 0.731885 0.447180 0.209746
H24   H     H_    0.081520 0.802710 0.438856 0.199638

loop_
_geom_bond_atom_site_label_1
_geom_bond_atom_site_label_2
_ccdc_geom_bond_type
C17   C19   S    
C13   O7    A    
C2    C4    S    
C4    H19   S    
C11   C18   S    
Cu2   O8    S    
C2    C15   S    
C5    H8    S    
C4    H2    S    
C9    C10   S    
C14   C18   S    
C15   H14   S    
C19   H23   S    
Cu1   O1    S    
C20   H22   S    
Cu1   Cu2   S    
C19   C20   S    
Cu1   O5    S    
C11   O3    A    
C16   H16   S    
C10   N2    D    
C8    H5    S    
C10   H9    S    
C3    H4    S    
C6    H6    S    
C9    H10   S    
C12   O6    A    
C1    C5    S    
C4    C17   S    
C14   H1    S    
C16   C18   S    
C2    C3    S    
C16   H3    S    
C17   H18   S    
C17   C18   S    
C5    C6    D    
Cu2   N1    S    
C13   O8    A    
C7    C12   S    
C11   O4    A    
Cu2   O6    S    
C20   H20   S    
H13   N1    S    
C1    O1    A    
C7    C8    D    
Cu2   O2    S    
C7    H7    S    
Cu1   O3    S    
C3    H17   S    
C12   O5    A    
Cu2   O4    S    
C15   H15   S    
C2    C13   S    
C14   C15   S    
C6    C8    S    
H11   N2    S    
Cu1   O7    S    
C1    O2    A    
C9    N1    D    
C19   H24   S    
C3    C16   S    
Cu1   N2    S    
C14   H12   S    
C20   H21   S    
