data_mof_unit_pretest_1277.cif
_audit_creation_date              2012-12-11T16:10:32-0500
_audit_creation_method            fapswitch 2.2
_symmetry_space_group_name_H-M    P1
_symmetry_Int_Tables_number       1
_space_group_crystal_system       triclinic
_cell_length_a                    8.437293
_cell_length_b                    14.780576
_cell_length_c                    17.548276
_cell_angle_alpha                 95.465795
_cell_angle_beta                  96.463201
_cell_angle_gamma                 91.468924
_cell_volume                      2163.15285749

loop_
_atom_site_label
_atom_site_type_symbol
_atom_type_description
_atom_site_fract_x
_atom_site_fract_y
_atom_site_fract_z
_atom_type_partial_charge
Ba1   Ba    Ba6+2 0.148060 0.545480 0.461240 1.738498
Ba2   Ba    Ba6+2 0.662110 0.454510 0.538700 1.703497
C1    C     C_3   0.225909 0.874453 0.192130 -0.390246
C2    C     C_R   0.815622 0.807202 0.509007 -0.009566
C3    C     C_R   0.656633 0.779700 0.483332 -0.012202
C4    C     C_3   0.817615 0.774963 0.263284 0.319002
C5    C     C_R   0.560018 0.832437 0.435576 0.064505
C6    C     C_R   0.614229 0.918406 0.422351 -0.191899
C7    C     C_R   0.761697 0.957446 0.459512 -0.004196
C8    C     C_R   0.861391 0.903714 0.507279 -0.099200
C9    C     C_R   0.938637 0.097293 0.496617 -0.050955
C10   C     C_R   0.040196 0.042476 0.542869 -0.012520
C11   C     C_R   0.983500 0.194545 0.497685 0.047560
C12   C     C_3   0.316655 0.829987 0.257708 0.306572
C13   C     C_R   0.136716 0.223264 0.529460 -0.236465
C14   C     C_R   0.239835 0.168200 0.568660 -0.018214
C15   C     C_R   0.189811 0.080526 0.578381 -0.149128
C16   C     C_3   0.841095 0.872124 0.243252 -0.430395
C17   C     C_R   0.803330 0.050727 0.451653 -0.000940
C18   C     C_R   0.612137 0.513866 0.275852 -0.207903
C19   C     C_R   0.456429 0.476902 0.255037 0.080408
C20   C     C_R   0.397632 0.463688 0.176217 -0.096035
C21   C     C_R   0.491299 0.490026 0.119654 0.004265
C22   C     C_R   0.644910 0.530463 0.142440 -0.135099
C23   C     C_3   0.512648 0.744669 0.700580 0.403874
C24   C     C_R   0.706499 0.542467 0.220745 -0.030320
C25   C     C_R   0.427614 0.495287 0.835509 0.082332
C26   C     C_R   0.371429 0.491272 0.755129 0.030211
C27   C     C_R   0.121989 0.417953 0.780645 -0.030908
C28   C     C_3   0.827479 0.311974 0.298488 0.389182
C29   C     C_R   0.180534 0.417735 0.858521 -0.121296
C30   C     C_R   0.332374 0.456295 0.886630 0.001648
C31   C     C_1   0.384016 0.465235 0.969427 0.037118
C32   C     C_1   0.430942 0.475565 0.038056 0.016505
C33   C     C_R   0.219122 0.452633 0.729386 -0.325849
C34   C     C_3   0.512049 0.834725 0.752778 -0.050860
C35   C     C_3   0.893574 0.278855 0.222677 -0.078503
C36   C     C_3   0.005030 0.667536 0.693645 0.239635
C37   C     C_3   0.001900 0.702238 0.778239 -0.260492
C38   C     C_3   0.286452 0.268355 0.374606 0.316866
C39   C     C_3   0.277069 0.164637 0.356687 -0.132364
C40   C     C_2   0.050799 0.632791 0.831802 0.437083
C41   C     C_2   0.475999 0.087657 0.825939 0.526199
C42   C     C_2   0.063144 0.913936 0.623570 0.513718
C43   C     C_2   0.708915 0.093908 0.390523 0.537572
C44   C     C_2   0.646833 0.745842 0.242599 0.331103
C45   C     C_3   0.922229 0.204968 0.713869 0.367851
C46   C     C_2   0.676617 0.523397 0.356711 0.581061
C47   C     C_2   0.153851 0.458457 0.649431 0.539930
C48   C     C_3   0.931905 0.113900 0.747113 -0.364901
C49   C     C_3   0.424330 0.218653 0.748292 0.274049
C50   C     C_3   0.479081 0.189394 0.827677 -0.220681
C51   C     C_R   0.994578 0.950431 0.552749 0.000247
H1    H     H_    0.322454 0.757101 0.237203 0.098719
H2    H     H_    0.115530 0.834017 0.169598 0.158963
H3    H     H_    0.278590 0.132327 0.411213 0.052006
H4    H     H_    0.382800 0.142235 0.328491 0.096879
H5    H     H_    0.435658 0.865332 0.269832 -0.006022
H6    H     H_    0.300304 0.876517 0.144044 0.090839
H7    H     H_    0.636342 0.732601 0.687352 0.013850
H8    H     H_    0.530301 0.893730 0.719220 0.051786
H9    H     H_    0.393875 0.841204 0.774746 0.151273
H10   H     H_    0.196615 0.945154 0.211281 0.117600
H11   H     H_    0.747280 0.915449 0.265260 0.130301
H12   H     H_    0.845920 0.208854 0.202160 0.147637
H13   H     H_    0.840920 0.197168 0.658983 0.085398
H14   H     H_    0.043537 0.224774 0.700993 -0.073272
H15   H     H_    0.810846 0.081802 0.744371 0.109157
H16   H     H_    0.006657 0.068519 0.713547 0.060297
H17   H     H_    0.987390 0.122966 0.807896 0.147648
H18   H     H_    0.297610 0.196074 0.732922 -0.030815
H19   H     H_    0.435347 0.294068 0.751771 0.037652
H20   H     H_    0.398848 0.218391 0.869228 0.066950
H21   H     H_    0.602183 0.216676 0.847568 0.092448
H22   H     H_    0.851084 0.776442 0.326712 0.077358
H23   H     H_    0.025408 0.276547 0.233348 0.122652
H24   H     H_    0.532356 0.957317 0.387674 0.056445
H25   H     H_    0.275068 0.042135 0.610898 0.137666
H26   H     H_    0.182794 0.286849 0.516230 0.102461
H27   H     H_    0.715881 0.552883 0.099571 0.093459
H28   H     H_    0.105245 0.391354 0.897986 0.094743
H29   H     H_    0.280898 0.431206 0.159017 0.081882
H30   H     H_    0.957658 0.901430 0.271376 0.164360
H31   H     H_    0.834813 0.874305 0.179802 0.128673
H32   H     H_    0.887882 0.378216 0.319383 0.018607
H33   H     H_    0.731787 0.347059 0.154009 0.190775
H34   H     H_    0.126040 0.643970 0.685105 -0.060506
H35   H     H_    0.913189 0.401053 0.177926 0.187937
H36   H     H_    0.173613 0.612959 0.838480 0.007554
H37   H     H_    0.152737 0.143295 0.249548 0.186905
H38   H     H_    0.116072 0.064622 0.308144 0.198779
H39   H     H_    0.432235 0.809338 0.605953 0.171814
H40   H     H_    0.289683 0.750912 0.645862 0.248572
H41   H     H_    0.744477 0.854693 0.797961 0.157781
H42   H     H_    0.614744 0.893231 0.856871 0.200640
H43   H     H_    0.564522 0.049310 0.797775 0.000101
H44   H     H_    0.635529 0.693430 0.566012 0.125467
H45   H     H_    0.912575 0.612088 0.678214 0.062737
H46   H     H_    0.472403 0.698164 0.510069 0.223726
H47   H     H_    0.990585 0.905440 0.669165 -0.001760
H48   H     H_    0.608158 0.132721 0.404168 0.010812
H49   H     H_    0.625863 0.578636 0.828533 0.249457
H50   H     H_    0.651039 0.499954 0.891459 0.215880
H51   H     H_    0.586155 0.753122 0.185634 -0.001373
H52   H     H_    0.769915 0.481825 0.379275 -0.020601
H53   H     H_    0.060956 0.503909 0.634138 -0.015182
H54   H     H_    0.604640 0.255028 0.262175 0.207182
H55   H     H_    0.617381 0.331434 0.338926 0.154437
H56   H     H_    0.083884 0.763023 0.793122 0.092561
H57   H     H_    0.879105 0.722567 0.786584 0.126080
H58   H     H_    0.169669 0.292796 0.388932 0.024755
H59   H     H_    0.379834 0.285619 0.424334 0.026161
N1    N     N_3   0.854701 0.337881 0.161590 -0.521371
N2    N     N_3   0.132317 0.134735 0.306169 -0.458478
N3    N     N_3   0.405392 0.750137 0.630856 -0.507207
N4    N     N_3   0.636462 0.838163 0.817925 -0.471530
N5    N     N_3   0.593986 0.697545 0.508575 -0.383290
N6    N     N_3   0.570759 0.545912 0.868959 -0.458517
N7    N     N_3   0.655811 0.318631 0.284713 -0.554679
O1    O     O_2   0.110000 0.727700 0.527600 -0.428356
O2    O     O_2   0.789152 0.440551 0.775637 -0.464069
O3    O     O_3   0.863245 0.269134 0.767021 -0.589229
O4    O     O_3   0.867340 0.611500 0.534090 -0.460592
O5    O     O_3   0.433040 0.452610 0.411250 -0.472201
O6    O     O_2   0.638240 0.544950 0.683210 -0.472755
O7    O     O_3   0.456414 0.674732 0.739391 -0.644708
O8    O     O_2   0.562351 0.168248 0.549854 -0.510403
O9    O     O_3   0.518970 0.179438 0.693875 -0.597978
O10   O     O_3   0.340010 0.670810 0.392610 -0.400510
O11   O     O_2   0.265611 0.826556 0.467753 -0.460943
O12   O     O_3   0.326429 0.308208 0.310048 -0.657469
O13   O     O_3   0.971338 0.741157 0.651269 -0.659553
O14   O     O_3   0.237550 0.838238 0.323703 -0.590934
O15   O     O_2   0.172060 0.454990 0.316770 -0.474237
O16   O     O_3   0.924740 0.623930 0.356360 -0.478436
O17   O     O_2   0.047249 0.559283 0.228067 -0.480961
O18   O     O_2   0.955080 0.601201 0.870267 -0.563269
O19   O     O_2   0.374576 0.047634 0.855743 -0.587253
O20   O     O_2   0.203491 0.897274 0.633360 -0.616718
O21   O     O_2   0.734674 0.078681 0.323596 -0.596883
O22   O     O_2   0.577269 0.709782 0.289228 -0.644767
O23   O     O_3   0.913902 0.715615 0.222509 -0.593890
O24   O     O_2   0.629676 0.583349 0.399146 -0.505469
O25   O     O_2   0.201091 0.409581 0.598442 -0.577200
O26   O     O_2   0.700300 0.272240 0.472380 -0.496612
O27   O     O_3   0.942950 0.388490 0.465850 -0.491017
O28   O     O_3   0.470280 0.329180 0.607330 -0.421795
O29   O     O_3   0.860277 0.247192 0.350328 -0.608152
O30   O     O_3   0.377250 0.547380 0.588690 -0.432118
O31   O     O_3   0.885550 0.376060 0.643580 -0.493488
P1    P     P_3+3 0.940740 0.713140 0.550990 1.021739
P2    P     P_3+3 0.347910 0.426910 0.329700 0.996163
P3    P     P_3+3 0.899322 0.606992 0.255055 0.993866
P4    P     P_3+3 0.869550 0.286850 0.448950 0.972613
P5    P     P_3+3 0.914704 0.377673 0.743874 0.977735
P6    P     P_3+3 0.353826 0.791604 0.399327 1.049902
P7    P     P_3+3 0.458432 0.565704 0.688742 0.968100
P8    P     P_3+3 0.445547 0.210974 0.603468 0.969272

loop_
_geom_bond_atom_site_label_1
_geom_bond_atom_site_label_2
_ccdc_geom_bond_type
Ba2   O31   S    
O14   P6    S    
C9    C11   A    
O3    P5    S    
C39   N2    S    
C36   H45   S    
Ba1   O27   S    
O9    P8    S    
C4    H22   S    
C38   H59   S    
Ba2   O4    S    
Ba2   O26   S    
C9    C17   A    
O29   P4    S    
C41   O19   D    
H33   N1    S    
C49   O9    S    
C20   H29   S    
C48   H16   S    
C22   C24   A    
C50   H21   S    
C23   N3    S    
C36   C37   S    
O6    P7    D    
C41   C50   S    
O7    P7    S    
C35   N1    S    
C28   N7    S    
C13   C14   A    
C47   O25   D    
Ba1   P2    S    
Ba1   Ba2   S    
H40   N3    S    
C19   P2    S    
C45   H14   S    
H35   N1    S    
C8    C51   A    
C15   H25   S    
C38   H58   S    
C48   H15   S    
C1    H2    S    
C42   C51   S    
C22   H27   S    
C37   H57   S    
C13   H26   S    
C5    P6    S    
C29   C30   A    
C26   C33   A    
C6    C7    A    
C35   H12   S    
C10   C15   A    
C33   C47   S    
C16   H31   S    
C21   C22   A    
Ba1   O30   S    
C23   H7    S    
C45   C48   S    
C4    C44   S    
C7    C8    A    
C45   H13   S    
C10   C51   A    
H49   N6    S    
C27   P5    S    
Ba2   O30   S    
O5    P2    S    
Ba2   P4    S    
C19   C20   A    
C40   O18   D    
H55   N7    S    
O12   P2    S    
C49   H18   S    
C34   H9    S    
H54   N7    S    
C7    C17   A    
C16   H30   S    
C37   C40   S    
C4    C16   S    
O4    P1    S    
C14   P8    S    
C49   C50   S    
C5    C6    A    
C50   H20   S    
C3    C5    A    
H41   N4    S    
C14   C15   A    
C45   O3    S    
Ba2   O28   S    
C44   H51   S    
C43   O21   D    
C28   C35   S    
C3    N5    S    
Ba1   O1    S    
C36   O13   S    
C23   O7    S    
Ba1   O4    S    
C39   H3    S    
H46   N5    S    
C46   H52   S    
O27   P4    S    
H42   N4    S    
C21   C32   S    
O15   P2    D    
C41   H43   S    
C28   H32   S    
O8    P8    D    
C18   C46   S    
C1    C12   S    
C43   H48   S    
O26   P4    D    
C38   C39   S    
C12   H1    S    
C35   H23   S    
C42   O20   D    
C1    H10   S    
O31   P5    S    
C11   C13   A    
C6    H24   S    
H50   N6    S    
C4    O23   S    
C49   H19   S    
C2    C8    A    
Ba1   O15   S    
C34   N4    S    
C25   N6    S    
C2    P1    S    
O1    P1    D    
O2    P5    D    
C25   C30   A    
C38   O12   S    
C2    C3    A    
O16   P3    S    
O10   P6    S    
C9    C10   A    
C17   C43   S    
C28   O29   S    
C47   H53   S    
C12   O14   S    
Ba2   O5    S    
Ba2   O27   S    
C27   C33   A    
Ba1   O10   S    
C29   H28   S    
H38   N2    S    
C36   H34   S    
C40   H36   S    
C30   C31   S    
C48   H17   S    
Ba1   O5    S    
C39   H4    S    
C44   O22   D    
O17   P3    D    
C42   H47   S    
C16   H11   S    
C18   C24   A    
C26   P7    S    
C31   C32   T    
Ba1   P1    S    
H37   N2    S    
O23   P3    S    
H44   N5    S    
H39   N3    S    
C11   P4    S    
C23   C34   S    
Ba2   O6    S    
C37   H56   S    
C18   C19   A    
C46   O24   D    
C27   C29   A    
C25   C26   A    
O13   P1    S    
C20   C21   A    
C24   P3    S    
O11   P6    D    
Ba1   O16   S    
O28   P8    S    
O30   P7    S    
C34   H8    S    
C12   H5    S    
C1    H6    S    
