data_mof_unit_pretest_32.cif
_audit_creation_date              2012-12-10T18:23:16-0500
_audit_creation_method            fapswitch 2.2
_symmetry_space_group_name_H-M    P1
_symmetry_Int_Tables_number       1
_space_group_crystal_system       triclinic
_cell_length_a                    27.813653
_cell_length_b                    10.606581
_cell_length_c                    9.410978
_cell_angle_alpha                 89.747179
_cell_angle_beta                  90.181425
_cell_angle_gamma                 89.841061
_cell_volume                      2776.25983513

loop_
_atom_site_label
_atom_site_type_symbol
_atom_type_description
_atom_site_fract_x
_atom_site_fract_y
_atom_site_fract_z
_atom_type_partial_charge
C1    C     C_R   0.500111 0.259402 0.500342 0.823736
C2    C     C_R   0.499890 0.740598 0.499657 0.823724
C3    C     C_R   0.102158 0.503548 0.496034 -0.112260
C4    C     C_R   0.897844 0.496413 0.504035 -0.112274
C5    C     C_R   0.127953 0.394675 0.456599 0.013107
C6    C     C_R   0.872050 0.605323 0.543352 0.013104
C7    C     C_R   0.103174 0.285808 0.418616 -0.155111
C8    C     C_R   0.896830 0.714222 0.581206 -0.154978
C9    C     C_R   0.127747 0.613355 0.534422 -0.130030
C10   C     C_R   0.872253 0.386584 0.465740 -0.130045
C11   C     C_R   0.354849 0.492156 0.499344 -0.110827
C12   C     C_R   0.645151 0.507841 0.500657 -0.110832
C13   C     C_R   0.974751 0.388510 0.460923 -0.028320
C14   C     C_R   0.025250 0.611417 0.539225 -0.028324
C15   C     C_R   0.974047 0.609763 0.541243 0.094873
C16   C     C_R   0.025955 0.390199 0.458788 0.094884
C17   C     C_R   0.949084 0.498012 0.502522 0.068141
C18   C     C_R   0.050918 0.501937 0.497563 0.068165
C19   C     C_R   0.948129 0.280573 0.421917 -0.292602
C20   C     C_R   0.051871 0.719296 0.578429 -0.292681
C21   C     C_R   0.898022 0.277511 0.427538 0.516545
C22   C     C_R   0.101977 0.722383 0.572775 0.516556
C23   C     C_R   0.407665 0.496657 0.499872 0.842887
C24   C     C_R   0.592335 0.503343 0.500128 0.842886
C25   C     C_R   0.053394 0.283105 0.420113 -0.205500
C26   C     C_R   0.946609 0.716917 0.579716 -0.205440
C27   C     C_3   0.539421 0.041945 0.432725 -0.171542
C28   C     C_3   0.460580 0.958055 0.567274 -0.171548
C29   C     C_3   0.499737 0.960052 0.364679 -0.154374
C30   C     C_3   0.500263 0.039948 0.635321 -0.154380
C31   C     C_3   0.499918 0.877525 0.498864 0.016488
C32   C     C_3   0.500083 0.122475 0.501136 0.016486
C33   C     C_3   0.539601 0.957109 0.566774 -0.129740
C34   C     C_3   0.460400 0.042891 0.433226 -0.129737
C35   C     C_3   0.513155 0.608475 0.050084 -0.028833
C36   C     C_3   0.486845 0.391525 0.949916 -0.028833
C37   C     C_3   0.470748 0.584383 0.948594 -0.042787
C38   C     C_3   0.529252 0.415617 0.051406 -0.042787
C39   C     C_3   0.542453 0.524058 0.949944 -0.025329
C40   C     C_3   0.457547 0.475942 0.050056 -0.025323
C41   C     C_R   0.178319 0.396427 0.456667 0.543087
C42   C     C_R   0.821684 0.603580 0.543271 0.543100
C43   C     C_R   0.178556 0.610153 0.533692 0.568843
C44   C     C_R   0.821444 0.389801 0.466432 0.568808
C45   C     C_R   0.279990 0.568368 0.396381 -0.084698
C46   C     C_R   0.720009 0.431639 0.603642 -0.084711
C47   C     C_R   0.330015 0.564078 0.396997 -0.231681
C48   C     C_R   0.669983 0.435931 0.603020 -0.231679
C49   C     C_R   0.328644 0.421136 0.601017 -0.054172
C50   C     C_R   0.671358 0.578845 0.398975 -0.054190
C51   C     C_R   0.278284 0.428283 0.600170 -0.140594
C52   C     C_R   0.721718 0.571693 0.399828 -0.140570
C53   C     C_R   0.254016 0.500875 0.498102 0.321721
C54   C     C_R   0.745985 0.499115 0.501912 0.321700
Cu1   Cu    Cu3+1 0.500010 0.499990 0.643150 0.957288
Cu2   Cu    Cu3+1 0.499990 0.500010 0.356850 0.957291
H1    H     H_    0.571656 0.079461 0.377794 0.141516
H2    H     H_    0.428344 0.920539 0.622206 0.141516
H3    H     H_    0.571980 0.918628 0.621136 0.153517
H4    H     H_    0.428020 0.081372 0.378863 0.153525
H5    H     H_    0.446148 0.655307 0.900277 0.120912
H6    H     H_    0.553852 0.344693 0.099723 0.120908
H7    H     H_    0.524330 0.699804 0.096729 0.119235
H8    H     H_    0.475670 0.300196 0.903271 0.119240
H9    H     H_    0.578242 0.544611 0.903528 0.142164
H10   H     H_    0.421758 0.455389 0.096472 0.142166
H11   H     H_    0.257525 0.374501 0.676444 0.172404
H12   H     H_    0.742478 0.625462 0.323545 0.172431
H13   H     H_    0.122251 0.201094 0.387792 0.171853
H14   H     H_    0.877754 0.798972 0.611904 0.171745
H15   H     H_    0.650551 0.381297 0.681524 0.157299
H16   H     H_    0.349446 0.618724 0.318501 0.157296
H17   H     H_    0.738665 0.375950 0.683339 0.147882
H18   H     H_    0.261331 0.624068 0.316698 0.147883
H19   H     H_    0.964769 0.195440 0.384645 0.155058
H20   H     H_    0.035229 0.804342 0.615938 0.155107
H21   H     H_    0.037900 0.194169 0.390868 0.131896
H22   H     H_    0.962107 0.805908 0.608740 0.131829
H23   H     H_    0.499555 0.924611 0.253841 0.132664
H24   H     H_    0.500445 0.075389 0.746159 0.132662
N1    N     N_R   0.202447 0.502794 0.495526 -0.471131
N2    N     N_R   0.797554 0.497191 0.504496 -0.471118
N3    N     N_3   0.500040 0.499970 0.858290 -0.162378
N4    N     N_3   0.499960 0.500030 0.141710 -0.162377
O1    O     O_R   0.500020 0.316850 0.620870 -0.576946
O2    O     O_R   0.499980 0.683150 0.379130 -0.576944
O3    O     O_R   0.500000 0.316860 0.379090 -0.590406
O4    O     O_R   0.500000 0.683140 0.620910 -0.590406
O5    O     O_R   0.430270 0.500020 0.620880 -0.562881
O6    O     O_R   0.569730 0.499980 0.379120 -0.562876
O7    O     O_R   0.430250 0.500030 0.379090 -0.590334
O8    O     O_R   0.569750 0.499970 0.620910 -0.590340
O9    O     O_2   0.203114 0.292597 0.417802 -0.535394
O10   O     O_2   0.796891 0.707442 0.582039 -0.535424
O11   O     O_2   0.795905 0.287424 0.428109 -0.476630
O12   O     O_2   0.204094 0.712514 0.572078 -0.476607
C55   C     C_2   0.352175 0.333238 0.703140 0.855971
O13   O     O_2   0.335301 0.318622 0.821929 -0.596539
O14   O     O_R   0.392444 0.263279 0.662043 -0.769390
H25   H     H_    0.404794 0.205714 0.740406 0.321131
C56   C     C_2   0.647829 0.666733 0.296838 0.855981
O15   O     O_2   0.664705 0.681338 0.178049 -0.596551
O16   O     O_R   0.607560 0.736698 0.337918 -0.769377
H26   H     H_    0.595211 0.794254 0.259545 0.321127
O17   O     O_3   0.874462 0.169459 0.384201 -0.529143
C57   C     C_3   0.877006 0.079073 0.494429 -0.223329
H27   H     H_    0.862125 0.116592 0.595594 0.162159
H28   H     H_    0.914475 0.044955 0.510814 0.121119
H29   H     H_    0.854871 0.996681 0.463716 0.209416
O18   O     O_3   0.125537 0.830399 0.616230 -0.529144
C58   C     C_3   0.122947 0.920929 0.506168 -0.223356
H30   H     H_    0.085468 0.955018 0.489926 0.121170
H31   H     H_    0.137807 0.883565 0.404909 0.162149
H32   H     H_    0.145074 0.003309 0.536967 0.209403

loop_
_geom_bond_atom_site_label_1
_geom_bond_atom_site_label_2
_ccdc_geom_bond_type
C1    O3    A    
Cu1   Cu2   S    
C56   O15   D    
C27   C29   S    
C8    C26   A    
C14   C18   A    
C11   C47   A    
C58   H30   S    
C42   N2    A    
C12   C48   A    
C55   O13   D    
C27   C33   S    
C26   H22   S    
C3    C9    A    
C35   C37   S    
C37   C40   S    
C44   N2    A    
C38   C39   S    
C9    C22   A    
C57   H27   S    
C36   N3    S    
C20   H20   S    
C3    C18   A    
C53   N1    S    
C11   C23   S    
Cu1   O4    S    
C40   N4    S    
O18   C58   S    
Cu2   O7    S    
C41   O9    S    
C22   O18   S    
C50   C52   A    
C23   O5    A    
C2    O4    A    
C52   H12   S    
C30   H24   S    
Cu2   O6    S    
C28   C34   S    
C33   H3    S    
C40   H10   S    
C34   H4    S    
C39   H9    S    
C24   O8    A    
C55   O14   S    
C52   C54   A    
Cu2   N4    S    
C45   C47   A    
C10   C21   A    
C1    O1    A    
C46   C48   A    
C9    C43   A    
C13   C19   A    
C10   C44   A    
C14   C20   A    
C36   C40   S    
C4    C6    A    
C27   H1    S    
C5    C7    A    
C15   C26   A    
C6    C8    A    
C49   C51   A    
C29   C34   S    
C45   C53   A    
C1    C32   S    
C45   H18   S    
C51   C53   A    
C32   C34   S    
Cu1   O1    S    
C35   C39   S    
Cu1   O8    S    
C11   C49   A    
Cu2   O2    S    
O14   H25   S    
C29   H23   S    
C41   N1    A    
C46   C54   A    
C31   C33   S    
C43   O12   S    
C58   H31   S    
C51   H11   S    
C4    C17   A    
C16   C18   A    
C20   C22   A    
C43   N1    A    
C25   H21   S    
C48   H15   S    
Cu1   N3    S    
C3    C5    A    
C54   N2    S    
C37   H5    S    
C16   C25   A    
C15   C17   A    
C5    C41   A    
C30   C33   S    
C19   C21   A    
C27   C32   S    
C42   O10   S    
C28   C31   S    
C37   N3    S    
Cu2   O3    S    
C24   O6    A    
C7    H13   S    
C12   C50   A    
C35   N4    S    
C28   H2    S    
O17   C57   S    
C12   C24   S    
C8    H14   S    
C7    C25   A    
C13   C17   A    
C19   H19   S    
C38   N4    S    
C28   C30   S    
C29   C31   S    
C44   O11   S    
C30   C32   S    
C57   H28   S    
C36   C38   S    
C2    O2    A    
C58   H32   S    
C23   O7    A    
Cu1   O5    S    
C47   H16   S    
C39   N3    S    
C49   C55   S    
C50   C56   S    
C56   O16   S    
C6    C42   A    
C13   C16   A    
O16   H26   S    
C14   C15   A    
C2    C31   S    
C35   H7    S    
C36   H8    S    
C4    C10   A    
C46   H17   S    
C21   O17   S    
C38   H6    S    
C57   H29   S    
