data_mof_unit_pretest_1400.cif
_audit_creation_date              2013-03-05T16:19:40-0500
_audit_creation_method            fapswitch 2.2
_symmetry_space_group_name_H-M    P1
_symmetry_Int_Tables_number       1
_space_group_crystal_system       triclinic
_cell_length_a                    10.668474
_cell_length_b                    9.722312
_cell_length_c                    27.552286
_cell_angle_alpha                 89.884257
_cell_angle_beta                  90.042527
_cell_angle_gamma                 89.952787
_cell_volume                      2857.77703047

loop_
_atom_site_label
_atom_site_type_symbol
_atom_site_description
_atom_site_fract_x
_atom_site_fract_y
_atom_site_fract_z
_atom_type_partial_charge
O1    O     O_R   0.314910 0.616040 0.499990 -0.615808
O2    O     O_R   0.314910 0.383960 0.499990 -0.618809
C1    C     C_R   0.257780 0.499913 0.502207 0.947777
O3    O     O_R   0.500140 0.616020 0.428740 -0.577238
O4    O     O_R   0.500140 0.383980 0.428740 -0.581018
C2    C     C_R   0.502288 0.500519 0.406022 0.907763
Zn1   Zn    Zn3+2 0.500150 0.654960 0.499980 0.962835
Zn2   Zn    Zn3+2 0.500150 0.345040 0.499980 0.978752
O5    O     O_R   0.685320 0.616040 0.499970 -0.644976
O6    O     O_R   0.685320 0.383960 0.499970 -0.639738
O7    O     O_R   0.500090 0.616050 0.571230 -0.644617
O8    O     O_R   0.500090 0.383950 0.571230 -0.589651
C3    C     C_R   0.742372 0.499941 0.502165 0.876401
C4    C     C_R   0.497181 0.500412 0.594274 0.959877
C5    C     C_R   0.423804 0.613311 0.181934 0.564883
O9    O     O_2   0.333408 0.662765 0.211336 -0.455966
N1    N     N_R   0.527448 0.554663 0.202085 -0.366567
C6    C     C_R   0.629933 0.521968 0.175112 0.562871
C7    C     C_R   0.600256 0.618375 0.282788 -0.052400
C8    C     C_R   0.592729 0.605529 0.332851 -0.155129
C9    C     C_R   0.447284 0.415041 0.323916 -0.138701
C10   C     C_R   0.454110 0.428782 0.273675 -0.073075
C11   C     C_R   0.529601 0.531466 0.253197 0.263663
C12   C     C_R   0.521112 0.598484 0.102707 -0.110444
C13   C     C_R   0.413301 0.624281 0.131149 -0.134138
C14   C     C_R   0.300427 0.662830 0.108127 0.332003
C15   C     C_R   0.633495 0.555750 0.125440 -0.126550
C16   C     C_R   0.515238 0.504829 0.353573 -0.055457
H1    H     H_    0.385124 0.339082 0.339477 0.224282
H2    H     H_    0.398493 0.362410 0.250652 0.171721
C17   C     C_R   0.486233 0.507090 0.647455 -0.172410
C18   C     C_R   0.392019 0.635152 0.977247 0.017316
C19   C     C_R   0.621585 0.615287 0.972691 0.065084
C20   C     C_R   0.503020 0.623137 0.949512 0.089647
C21   C     C_R   0.275691 0.634552 0.952807 -0.251580
C22   C     C_R   0.267525 0.623187 0.902495 0.359665
C23   C     C_R   0.378006 0.608922 0.874688 -0.156243
C24   C     C_R   0.495725 0.615054 0.898251 -0.082035
C25   C     C_R   0.606808 0.609484 0.870617 -0.030795
C26   C     C_R   0.599214 0.592183 0.820455 0.600362
N2    N     N_R   0.485439 0.573513 0.798907 -0.335269
C27   C     C_R   0.375951 0.581527 0.824445 0.607408
C28   C     C_R   0.438909 0.649380 0.717152 -0.144211
C29   C     C_R   0.442751 0.631044 0.667516 -0.259221
C30   C     C_R   0.519903 0.397152 0.678470 0.404539
C31   C     C_R   0.522590 0.418739 0.729240 0.248626
C32   C     C_R   0.480659 0.545661 0.748052 0.139901
O10   O     O_2   0.266655 0.558100 0.801282 -0.464124
C33   C     C_R   0.400478 0.642755 0.028572 0.027897
C34   C     C_R   0.516337 0.613987 0.051575 0.087229
C35   C     C_R   0.626978 0.598400 0.023727 0.007569
C36   C     C_R   0.295859 0.673796 0.057779 -0.241631
H3    H     H_    0.412339 0.715631 0.644722 0.177483
H4    H     H_    0.407046 0.746649 0.731787 0.176173
H5    H     H_    0.187770 0.639052 0.971914 0.179239
H6    H     H_    0.207524 0.705631 0.042469 0.182251
O11   O     O_2   0.725826 0.454071 0.196312 -0.467587
C37   C     C_R   0.743974 0.544237 0.097744 0.335188
H7    H     H_    0.646150 0.675269 0.355468 0.159851
H8    H     H_    0.657905 0.698315 0.266938 0.165832
C38   C     C_R   0.730697 0.621457 0.943745 -0.172993
C39   C     C_R   0.723111 0.619013 0.893570 -0.056974
O12   O     O_2   0.704640 0.590968 0.793367 -0.503941
C40   C     C_R   0.739302 0.563256 0.047701 -0.252241
H9    H     H_    0.823658 0.629638 0.958799 0.177477
H10   H     H_    0.809328 0.620568 0.872842 0.241712
H11   H     H_    0.825957 0.548373 0.028383 0.183824
C41   C     C_3   0.071762 0.629659 0.531494 0.422239
C42   C     C_3   0.071684 0.365418 0.529245 0.419909
H12   H     H_    0.101093 0.722009 0.510007 0.094630
H13   H     H_    0.103184 0.275919 0.506845 0.094778
C43   C     C_3   0.927502 0.625925 0.532497 -0.452092
C44   C     C_3   0.927439 0.367588 0.529074 -0.448840
H14   H     H_    0.892627 0.620734 0.570546 0.207506
H15   H     H_    0.890245 0.362980 0.566805 0.211340
H16   H     H_    0.891622 0.723513 0.516458 0.144052
H17   H     H_    0.893529 0.274099 0.509847 0.146110
H18   H     H_    0.107374 0.595196 0.431802 0.254619
H19   H     H_    0.105211 0.411505 0.430896 0.246608
H20   H     H_    0.894534 0.600797 0.432675 0.200221
H21   H     H_    0.892242 0.416166 0.429918 0.203575
C45   C     C_3   0.071730 0.503068 0.451242 -0.568094
C46   C     C_3   0.121080 0.499529 0.504192 -0.020246
C47   C     C_3   0.878699 0.499792 0.503655 0.048000
C48   C     C_3   0.928129 0.505452 0.451022 -0.431635
C49   C     C_3   0.384170 0.081836 0.475444 0.220285
C50   C     C_3   0.382906 0.918909 0.476407 0.213031
H22   H     H_    0.302805 0.114620 0.497994 0.044733
H23   H     H_    0.303411 0.890010 0.500618 0.039939
H24   H     H_    0.624800 0.123773 0.437723 0.213074
H25   H     H_    0.618416 0.881188 0.435972 0.206000
C51   C     C_3   0.612834 0.081004 0.474635 -0.242845
C52   C     C_3   0.611373 0.919295 0.473640 -0.247039
C53   C     C_3   0.502121 0.080986 0.549018 -0.343713
C54   C     C_3   0.504774 0.918473 0.549104 -0.361940
N3    N     N_3   0.499750 0.138610 0.498940 -0.104359
N4    N     N_3   0.499750 0.861390 0.498940 -0.096711
H26   H     H_    0.585171 0.120874 0.568951 0.222693
H27   H     H_    0.590964 0.881755 0.567885 0.192837
H28   H     H_    0.418322 0.117059 0.569090 0.156036
H29   H     H_    0.424786 0.878896 0.570840 0.152192
H30   H     H_    0.698359 0.115139 0.494350 0.146003
H31   H     H_    0.698161 0.881029 0.491541 0.148457
N5    N     N_R   0.864075 0.527365 0.120269 0.259125
O13   O     O_R   0.948456 0.448670 0.100502 -0.328462
O14   O     O_R   0.896573 0.610396 0.155034 -0.249582
O15   O     O_3   0.555422 0.271715 0.659263 -0.573947
C55   C     C_3   0.456913 0.176941 0.666701 -0.246622
H32   H     H_    0.371242 0.209398 0.646743 0.144286
H33   H     H_    0.434234 0.162419 0.705726 0.195711
H34   H     H_    0.486489 0.075008 0.652829 0.172926
N6    N     N_R   0.569770 0.313530 0.761252 0.220114
O16   O     O_R   0.514972 0.288753 0.802529 -0.377640
O17   O     O_R   0.665928 0.239291 0.748690 -0.295339
O18   O     O_3   0.120865 0.633251 0.579428 -0.540321
C56   C     C_3   0.126649 0.769794 0.596610 -0.295217
H35   H     H_    0.033345 0.820884 0.595176 0.152286
H36   H     H_    0.196609 0.830589 0.575843 0.122131
H37   H     H_    0.157431 0.767777 0.635074 0.212646
O19   O     O_3   0.117965 0.355996 0.577493 -0.538421
C57   C     C_3   0.119813 0.217674 0.593255 -0.297740
H38   H     H_    0.193400 0.158706 0.573849 0.121492
H39   H     H_    0.027181 0.166872 0.588583 0.151604
H40   H     H_    0.142531 0.215534 0.632524 0.207534
N7    N     N_R   0.361293 0.140191 0.426913 0.252181
O20   O     O_R   0.254184 0.198742 0.417710 -0.423209
O21   O     O_R   0.441282 0.126392 0.391678 -0.365770
N8    N     N_R   0.353203 0.857089 0.429020 0.261357
O22   O     O_R   0.240954 0.809734 0.421422 -0.408447
O23   O     O_R   0.430916 0.861000 0.392717 -0.332702
N9    N     N_R   0.185666 0.677167 0.134570 0.262362
O24   O     O_R   0.111076 0.780054 0.125534 -0.315742
O25   O     O_R   0.145118 0.574415 0.160476 -0.238569
N10   N     N_R   0.145611 0.630345 0.880627 0.247383
O26   O     O_R   0.055297 0.553801 0.897266 -0.384503
O27   O     O_R   0.118693 0.731671 0.851490 -0.317820

loop_
_geom_bond_atom_site_label_1
_geom_bond_atom_site_label_2
_geom_bond_distance
_ccdc_geom_bond_type
C31   N6    1.439579 S    
N2    C27   1.366322 A    
N5    O13   1.301407 A    
C21   C22   1.393514 A    
Zn2   N3    2.007248 S    
C12   C15   1.414020 A    
C4    C17   1.471529 S    
C43   H16   1.113302 S    
N8    O22   1.300298 A    
C52   H31   1.112190 S    
H19   C45   1.111799 S    
N5    O14   1.300943 A    
C30   C31   1.415160 A    
C56   H35   1.112735 S    
Zn1   O7    1.998470 S    
C3    C47   1.454945 S    
N1    C11   1.425893 S    
C26   O12   1.350335 S    
C22   C23   1.413132 A    
C23   C24   1.414689 A    
O4    C2    1.293554 A    
O7    C4    1.290453 A    
C49   H22   1.114564 S    
C5    C13   1.407466 A    
C53   H26   1.112532 S    
O18   C56   1.411678 S    
C51   N3    1.489694 S    
C55   H32   1.111493 S    
C5    N1    1.361177 A    
C23   C27   1.410406 A    
C42   H13   1.119361 S    
O5    C3    1.283254 A    
C50   N8    1.472808 S    
C57   H40   1.108743 S    
C6    O11   1.349056 S    
C29   H3    1.083140 S    
C2    C16   1.452299 S    
C7    C8    1.387123 A    
C56   H36   1.110754 S    
O15   C55   1.413029 S    
C42   C44   1.539007 S    
Zn2   O8    1.999971 S    
Zn1   N4    2.007125 S    
C6    C15   1.407340 A    
C44   C47   1.551671 S    
C51   H30   1.112736 S    
O1    Zn1   2.012434 S    
C9    C10   1.392390 A    
C49   N7    1.471617 S    
C37   C40   1.391643 A    
C44   H15   1.113839 S    
C38   C39   1.385004 A    
O3    Zn1   1.999753 S    
N6    O17   1.301324 A    
N6    O16   1.301275 A    
C34   C35   1.416495 A    
C12   C34   1.417423 A    
C17   C29   1.405412 A    
C39   H10   1.083137 S    
C21   H5    1.076852 S    
C18   C21   1.411527 A    
C19   C20   1.418486 A    
C12   C13   1.414761 A    
C43   H14   1.113733 S    
C25   C26   1.394938 A    
C49   C50   1.584265 S    
N10   O27   1.301321 A    
C8    C16   1.402754 A    
C13   C14   1.410691 A    
C9    H1    1.081160 S    
O6    C3    1.283345 A    
C22   N10   1.434576 S    
O1    C1    1.284835 A    
C18   C20   1.414723 A    
C7    C11   1.396350 A    
C28   C29   1.380152 A    
C40   H11   1.076894 S    
H20   C48   1.113809 S    
C42   C46   1.565988 S    
C14   C36   1.391884 A    
H25   C52   1.105273 S    
H18   C45   1.110261 S    
C28   H4    1.083355 S    
H24   C51   1.105488 S    
C53   H28   1.108635 S    
C41   C43   1.539751 S    
C33   C36   1.409312 A    
N1    C6    1.360277 A    
N2    C32   1.428521 S    
C55   H34   1.108593 S    
C27   O10   1.348577 S    
C47   C48   1.544325 S    
C8    H7    1.083834 S    
C53   N3    1.488318 S    
C57   H38   1.109954 S    
C43   C47   1.552662 S    
C49   N3    1.498525 S    
O3    C2    1.286904 A    
C26   N2    1.363261 A    
C9    C16   1.399394 A    
O8    C4    1.299629 A    
C45   C46   1.550909 S    
C50   H23   1.115188 S    
C1    C46   1.459460 S    
N7    O20   1.300769 A    
C37   N5    1.432420 S    
N9    O24   1.301233 A    
C52   N4    1.490545 S    
O19   C57   1.412468 S    
Zn1   O5    2.011088 S    
C25   C39   1.395453 A    
C31   C32   1.411902 A    
C10   H2    1.082847 S    
C20   C24   1.416778 A    
C41   C46   1.564187 S    
Zn2   O6    2.011701 S    
O2    Zn2   2.011822 S    
C35   C40   1.409348 A    
N9    O25   1.301094 A    
C15   C37   1.409072 A    
N8    O23   1.300159 A    
O4    Zn2   1.998251 S    
C54   N4    1.491385 S    
N10   O26   1.301067 A    
C7    H8    1.082973 S    
C19   C35   1.416502 A    
C45   C48   1.532168 S    
C42   O19   1.420492 S    
C56   H37   1.109389 S    
O2    C1    1.282688 A    
C24   C25   1.410126 A    
C36   H6    1.077155 S    
C5    O9    1.348871 S    
C51   C52   1.572574 S    
C55   H33   1.111022 S    
C54   H27   1.112980 S    
C38   H9    1.077771 S    
C53   C54   1.580235 S    
C18   C33   1.419027 A    
C57   H39   1.112658 S    
C41   O18   1.420933 S    
C30   O15   1.383134 S    
C19   C38   1.412783 A    
C33   C34   1.416057 A    
C17   C30   1.413140 A    
N7    O21   1.300075 A    
C41   H12   1.119441 S    
C44   H17   1.113484 S    
C10   C11   1.401203 A    
C28   C32   1.391133 A    
H21   C48   1.113759 S    
C14   N9    1.432012 S    
C54   H29   1.111417 S    
C50   N4    1.499454 S    
