data_mof_unit_pretest_910.cif
_audit_creation_date              2013-03-05T15:48:49-0500
_audit_creation_method            fapswitch 2.2
_symmetry_space_group_name_H-M    P1
_symmetry_Int_Tables_number       1
_space_group_crystal_system       triclinic
_cell_length_a                    10.14432
_cell_length_b                    10.800676
_cell_length_c                    27.649425
_cell_angle_alpha                 89.211219
_cell_angle_beta                  81.195754
_cell_angle_gamma                 94.859983
_cell_volume                      2981.86494678

loop_
_atom_site_label
_atom_site_type_symbol
_atom_site_description
_atom_site_fract_x
_atom_site_fract_y
_atom_site_fract_z
_atom_type_partial_charge
O1    O     O_R   0.431060 0.692470 0.504020 -0.579832
O2    O     O_R   0.568940 0.307530 0.495980 -0.631294
O3    O     O_R   0.651120 0.659650 0.491200 -0.630301
O4    O     O_R   0.348880 0.340350 0.508800 -0.593618
C1    C     C_R   0.555843 0.732677 0.495161 0.976453
C2    C     C_R   0.444113 0.267545 0.501260 0.978194
O5    O     O_R   0.389980 0.516390 0.577660 -0.545956
O6    O     O_R   0.610020 0.483610 0.422340 -0.598996
O7    O     O_R   0.610040 0.483570 0.564830 -0.628378
O8    O     O_R   0.389960 0.516430 0.435170 -0.556947
C3    C     C_R   0.500060 0.496242 0.593981 0.947879
C4    C     C_R   0.500929 0.503747 0.405492 0.921737
Zn1   Zn    Zn3+2 0.353060 0.521910 0.508560 1.091671
Zn2   Zn    Zn3+2 0.646940 0.478090 0.491440 1.021833
C5    C     C_R   0.651400 0.531448 0.810239 0.604019
C6    C     C_R   0.475704 0.410056 0.177243 0.580449
O9    O     O_2   0.721673 0.618800 0.778924 -0.502940
O10   O     O_2   0.416701 0.314656 0.207141 -0.518377
N1    N     N_R   0.564298 0.444411 0.793884 -0.347338
N2    N     N_R   0.535802 0.512676 0.196023 -0.338706
C7    C     C_R   0.497878 0.350036 0.823911 0.603943
C8    C     C_R   0.597039 0.609628 0.166070 0.596311
C9    C     C_R   0.590042 0.363265 0.710413 -0.072046
C10   C     C_R   0.646731 0.537437 0.269798 -0.086587
C11   C     C_R   0.566278 0.373547 0.661658 -0.160333
C12   C     C_R   0.635211 0.545308 0.321258 -0.184030
C13   C     C_R   0.455171 0.564201 0.680949 0.323506
C14   C     C_R   0.392060 0.494551 0.328395 0.356753
C15   C     C_R   0.474451 0.549423 0.729434 -0.137543
C16   C     C_R   0.404600 0.505300 0.277696 -0.132720
C17   C     C_R   0.543174 0.452191 0.743977 0.152156
C18   C     C_R   0.529627 0.519796 0.248271 0.147298
C19   C     C_R   0.593896 0.437641 0.891504 -0.104634
C20   C     C_R   0.552887 0.493512 0.095240 -0.093714
C21   C     C_R   0.665119 0.531751 0.859677 -0.016156
C22   C     C_R   0.475048 0.403221 0.127032 -0.003839
C23   C     C_R   0.748849 0.622863 0.877898 -0.078301
C24   C     C_R   0.394873 0.310329 0.108253 -0.094491
C25   C     C_R   0.523477 0.337026 0.872281 -0.157661
C26   C     C_R   0.619576 0.596931 0.114737 -0.173171
C27   C     C_R   0.501993 0.476358 0.646520 -0.235887
C28   C     C_R   0.507886 0.516113 0.351343 -0.250488
H1    H     H_    0.438525 0.615437 0.756400 0.195722
H2    H     H_    0.316156 0.494544 0.260117 0.207322
H3    H     H_    0.812794 0.690508 0.853762 0.207178
H4    H     H_    0.324910 0.246821 0.132216 0.202678
C29   C     C_R   0.638742 0.571665 0.012151 -0.069303
C30   C     C_R   0.519096 0.351128 0.974114 -0.074658
C31   C     C_R   0.496634 0.373813 0.025239 0.115728
C32   C     C_R   0.658190 0.551231 0.961113 0.108227
C33   C     C_R   0.564881 0.478685 0.044035 0.085728
C34   C     C_R   0.591119 0.445977 0.942456 0.086727
C35   C     C_R   0.685145 0.684897 0.032353 -0.169861
C36   C     C_R   0.480162 0.235263 0.953165 -0.199961
C37   C     C_R   0.698169 0.686800 0.082294 0.401807
C38   C     C_R   0.484854 0.227803 0.901630 0.404688
O11   O     O_2   0.629891 0.718921 0.186032 -0.456296
O12   O     O_2   0.403291 0.273357 0.807574 -0.450455
C39   C     C_R   0.748758 0.629749 0.927906 -0.138818
C40   C     C_R   0.399822 0.300935 0.058186 -0.160659
H5    H     H_    0.819073 0.698660 0.940095 0.168755
H6    H     H_    0.324832 0.237144 0.046056 0.159938
H7    H     H_    0.614848 0.106869 0.471012 0.204669
H8    H     H_    0.384924 0.894639 0.484330 0.211356
C41   C     C_2   0.587391 0.864703 0.487534 -0.304925
C42   C     C_2   0.412364 0.136028 0.496980 -0.280736
C43   C     C_2   0.487695 0.934454 0.482951 -0.079698
C44   C     C_2   0.512040 0.066837 0.481267 -0.183267
H9    H     H_    0.309907 0.095529 0.507441 0.191796
H10   H     H_    0.689863 0.904952 0.486287 0.163644
H11   H     H_    0.112265 0.424736 0.470690 0.247396
H12   H     H_    0.894179 0.597016 0.519422 0.174062
N3    N     N_2   0.842700 0.448890 0.480020 -0.174626
N4    N     N_2   0.157300 0.551110 0.519980 -0.196692
C45   C     C_2   0.928912 0.516035 0.500427 -0.097443
C46   C     C_2   0.072972 0.491550 0.496422 -0.045234
S1    S     S_3+6 0.377005 0.696185 0.664846 0.100223
O13   O     O_2   0.236142 0.654840 0.658002 -0.207107
O14   O     O_2   0.372678 0.789872 0.704654 -0.229250
O15   O     O_3   0.459312 0.763881 0.612456 -0.513727
H13   H     H_    0.552501 0.782787 0.618572 0.343384
S2    S     S_3+6 0.230332 0.444437 0.360009 0.054995
O16   O     O_2   0.173810 0.551341 0.387863 -0.277262
O17   O     O_2   0.137410 0.401532 0.324948 -0.220174
O18   O     O_3   0.240514 0.325659 0.398874 -0.557261
H14   H     H_    0.288169 0.263726 0.378468 0.357840
C47   C     C_2   0.113908 0.633898 0.557658 1.059074
O19   O     O_2   0.179129 0.733230 0.560391 -0.547170
O20   O     O_R   0.002477 0.598957 0.593133 -0.784842
H15   H     H_    0.983448 0.665511 0.618125 0.373275
C48   C     C_2   0.872882 0.333415 0.458382 1.098669
O21   O     O_2   0.930118 0.258443 0.479355 -0.628980
O22   O     O_R   0.826388 0.302114 0.414763 -0.736479
H16   H     H_    0.850197 0.216891 0.403344 0.349492
C49   C     C_2   0.756531 0.585266 0.343143 1.056066
O23   O     O_2   0.853633 0.524185 0.337266 -0.516847
O24   O     O_R   0.757659 0.691614 0.371390 -0.783266
H17   H     H_    0.844393 0.708376 0.385112 0.355782
C50   C     C_2   0.610136 0.277395 0.626336 1.016189
O25   O     O_2   0.728906 0.260718 0.616475 -0.563507
O26   O     O_R   0.514889 0.205468 0.604907 -0.773864
H18   H     H_    0.556345 0.140229 0.582894 0.354815
C51   C     C_2   0.780064 0.544347 0.238245 1.035699
O27   O     O_2   0.865776 0.628127 0.242918 -0.527037
O28   O     O_R   0.806394 0.455426 0.202572 -0.770409
H19   H     H_    0.899687 0.470264 0.183072 0.369910
C52   C     C_2   0.664454 0.261225 0.726727 1.031621
O29   O     O_2   0.638841 0.154300 0.714793 -0.525064
O30   O     O_R   0.763063 0.287589 0.756239 -0.771135
H20   H     H_    0.805599 0.210684 0.765343 0.378129
S3    S     S_3+6 0.830649 0.785171 0.100718 0.119355
O31   O     O_2   0.779642 0.907234 0.116567 -0.196396
O32   O     O_2   0.884229 0.725448 0.142197 -0.235859
O33   O     O_3   0.957381 0.809937 0.053756 -0.495180
H21   H     H_    0.021884 0.872018 0.065568 0.401826
S4    S     S_3+6 0.469076 0.079829 0.873203 0.116539
O34   O     O_2   0.546753 0.085603 0.822261 -0.238042
O35   O     O_2   0.521832 0.980438 0.901623 -0.243172
O36   O     O_3   0.306280 0.040996 0.870687 -0.455639
H22   H     H_    0.304182 0.960554 0.853917 0.400242
C53   C     C_2   0.680101 0.805945 0.006098 0.932636
O37   O     O_2   0.592103 0.816810 0.981011 -0.563895
O38   O     O_R   0.773145 0.906995 0.009761 -0.690164
H23   H     H_    0.760541 0.981211 0.988641 0.381281
C54   C     C_2   0.449880 0.119370 0.983845 1.003403
O39   O     O_2   0.347648 0.052097 0.981880 -0.534262
O40   O     O_R   0.536034 0.090045 0.016394 -0.774717
H24   H     H_    0.501555 0.012423 0.037052 0.367548

loop_
_geom_bond_atom_site_label_1
_geom_bond_atom_site_label_2
_geom_bond_distance
_ccdc_geom_bond_type
C42   C44   1.331212 D    
C47   O19   1.221360 D    
O26   H18   1.013651 S    
C13   C15   1.393025 A    
C49   O23   1.223108 D    
C52   O30   1.398420 S    
S3    O31   1.503302 D    
O7    Zn2   2.008928 S    
N1    C17   1.430884 S    
C8    O11   1.347865 S    
O33   H21   0.990723 S    
O38   H23   1.013514 S    
O18   H14   0.990545 S    
C19   C34   1.409038 A    
C30   C36   1.436586 A    
C20   C33   1.414822 A    
O22   H16   1.013711 S    
C31   C40   1.410437 A    
N4    C46   1.287933 D    
O1    C1    1.288389 A    
C32   C39   1.412312 A    
N1    C7    1.367981 A    
C10   C12   1.414032 A    
C30   C34   1.414984 A    
H11   C46   1.077910 S    
C42   H9    1.087529 S    
C41   H10   1.087564 S    
S4    O34   1.502722 D    
C40   H6    1.077732 S    
C14   C28   1.422442 A    
O4    Zn1   1.957732 S    
C13   S1    1.772356 S    
C4    C28   1.491605 S    
C5    N1    1.364635 A    
C11   C50   1.484406 S    
C25   C38   1.414792 A    
C31   C33   1.423313 A    
C32   C34   1.419124 A    
C52   O29   1.223108 D    
N4    C47   1.424978 S    
O6    C4    1.298003 A    
C29   C35   1.425154 A    
C37   S3    1.782423 S    
C35   C37   1.407376 A    
C8    C26   1.413117 A    
C15   H1    1.082865 S    
N3    C45   1.289973 D    
C16   H2    1.082632 S    
O2    C2    1.288531 A    
H12   C45   1.083147 S    
C5    C21   1.395037 A    
O24   H17   1.013889 S    
C29   C32   1.417642 A    
S1    O14   1.503571 D    
C36   C54   1.485462 S    
C36   C38   1.422052 A    
C39   H5    1.080222 S    
C24   H4    1.083625 S    
H8    C43   1.088429 S    
C14   S2    1.773740 S    
C43   C44   1.429114 S    
Zn2   N3    2.014866 S    
N3    C48   1.427017 S    
C1    C41   1.440151 S    
C11   C27   1.423714 A    
C48   O21   1.224278 D    
C29   C33   1.411740 A    
C41   C43   1.331216 D    
S1    O13   1.501375 D    
C9    C17   1.405924 A    
O5    C3    1.300272 A    
C45   C46   1.494858 S    
C10   C18   1.408195 A    
C48   O22   1.396304 S    
C13   C27   1.412354 A    
C50   O25   1.223109 D    
C7    C25   1.408249 A    
C2    C42   1.440228 S    
C6    N2    1.366756 A    
C26   C37   1.417199 A    
C9    C52   1.489772 S    
C38   S4    1.796517 S    
S3    O32   1.502226 D    
C19   C25   1.405106 A    
O7    C3    1.291014 A    
C53   O37   1.223467 D    
C23   C39   1.385596 A    
O3    Zn2   1.957732 S    
O8    C4    1.306055 A    
C24   C40   1.382976 A    
O4    C2    1.290996 A    
C30   C31   1.424978 A    
C50   O26   1.396028 S    
N2    C8    1.369939 A    
S2    O17   1.503719 D    
C47   O20   1.400141 S    
C54   O39   1.223549 D    
C51   O28   1.398383 S    
C20   C26   1.412842 A    
O1    Zn1   1.936920 S    
C23   H3    1.083366 S    
O40   H24   1.013619 S    
C12   C28   1.433368 A    
N2    C18   1.439782 S    
S1    O15   1.681429 S    
C12   C49   1.487354 S    
C5    O9    1.350022 S    
H7    C44   1.088444 S    
O6    Zn2   2.003452 S    
C21   C23   1.395237 A    
O15   H13   0.990523 S    
O3    C1    1.291280 A    
O8    Zn1   2.008925 S    
O36   H22   0.990589 S    
C49   O24   1.398079 S    
S2    O18   1.682162 S    
O28   H19   1.013786 S    
S4    O36   1.681268 S    
C10   C51   1.488635 S    
C14   C16   1.390378 A    
C7    O12   1.348673 S    
C15   C17   1.396003 A    
C35   C53   1.495149 S    
O30   H20   1.013757 S    
C6    C22   1.392288 A    
C16   C18   1.393559 A    
C22   C24   1.393939 A    
C19   C21   1.409218 A    
S4    O35   1.503032 D    
C3    C27   1.468902 S    
S3    O33   1.682729 S    
C20   C22   1.407372 A    
C9    C11   1.409801 A    
O2    Zn2   1.936918 S    
C53   O38   1.396458 S    
O5    Zn1   2.003454 S    
Zn1   N4    2.014867 S    
C6    O10   1.350499 S    
S2    O16   1.502184 D    
C51   O27   1.223031 D    
C54   O40   1.397819 S    
O20   H15   1.013817 S    
