data_mof_unit_pretest_831.cif
_audit_creation_date              2012-12-10T16:33:52-0500
_audit_creation_method            fapswitch 2.2
_symmetry_space_group_name_H-M    P1
_symmetry_Int_Tables_number       1
_space_group_crystal_system       triclinic
_cell_length_a                    28.367882
_cell_length_b                    18.466143
_cell_length_c                    16.995211
_cell_angle_alpha                 89.866968
_cell_angle_beta                  60.876647
_cell_angle_gamma                 89.694367
_cell_volume                      7777.19753578

loop_
_atom_site_label
_atom_site_type_symbol
_atom_type_description
_atom_site_fract_x
_atom_site_fract_y
_atom_site_fract_z
_atom_type_partial_charge
C1    C     C_R   0.701357 0.267746 0.676370 0.867948
C2    C     C_R   0.298014 0.731032 0.324014 0.870591
C3    C     C_R   0.297862 0.269172 0.324340 0.869529
C4    C     C_R   0.702007 0.731244 0.675874 0.890925
C5    C     C_R   0.201978 0.768797 0.675774 0.873379
C6    C     C_R   0.798093 0.231318 0.324076 0.863392
C7    C     C_R   0.798501 0.767832 0.323984 0.855992
C8    C     C_R   0.202343 0.230467 0.675705 0.881788
C9    C     C_R   0.015047 0.384447 0.606700 0.417359
C10   C     C_R   0.950861 0.633373 0.494165 0.470569
C11   C     C_R   0.934991 0.375997 0.544962 0.395493
C12   C     C_R   0.050961 0.630914 0.512244 0.418106
C13   C     C_R   0.553822 0.870885 0.494210 0.384930
C14   C     C_R   0.446681 0.132874 0.503233 0.382434
C15   C     C_R   0.445608 0.872822 0.504025 0.392915
C16   C     C_R   0.543285 0.131079 0.533294 0.439977
C17   C     C_R   0.715909 0.262799 0.959466 0.031897
C18   C     C_R   0.282220 0.734210 0.041556 0.028230
C19   C     C_R   0.277211 0.271024 0.048372 0.045145
C20   C     C_R   0.721573 0.731302 0.954276 0.017841
C21   C     C_R   0.223544 0.770202 0.950313 0.034973
C22   C     C_R   0.775622 0.226884 0.049340 0.031442
C23   C     C_R   0.782768 0.758957 0.043370 0.012487
C24   C     C_R   0.218701 0.233688 0.957486 0.020649
C25   C     C_R   0.728341 0.190510 0.968009 -0.257030
C26   C     C_R   0.272533 0.806728 0.028700 -0.272056
C27   C     C_R   0.268435 0.198516 0.035679 -0.249680
C28   C     C_R   0.762196 0.683048 0.946297 -0.248950
C29   C     C_R   0.233948 0.697910 0.961802 -0.255572
C30   C     C_R   0.762780 0.299072 0.041711 -0.289767
C31   C     C_R   0.741859 0.806851 0.051851 -0.257054
C32   C     C_R   0.227196 0.306447 0.970808 -0.266488
C33   C     C_R   0.757361 0.171519 0.012821 0.206569
C34   C     C_R   0.245433 0.825596 0.980527 0.185055
C35   C     C_R   0.238500 0.178946 0.993010 0.197589
C36   C     C_R   0.793146 0.696105 0.989532 0.195515
C37   C     C_R   0.264037 0.678969 0.004580 0.200068
C38   C     C_R   0.733669 0.318397 0.997118 0.181272
C39   C     C_R   0.711057 0.793814 0.008512 0.202504
C40   C     C_R   0.254272 0.325889 0.018677 0.193971
C41   C     C_R   0.637350 0.319266 0.951706 -0.189275
C42   C     C_R   0.360797 0.678555 0.049603 -0.208954
C43   C     C_R   0.356245 0.328229 0.053440 -0.210996
C44   C     C_R   0.645161 0.669989 0.945804 -0.222334
C45   C     C_R   0.143798 0.827301 0.946456 -0.204679
C46   C     C_R   0.855555 0.171079 0.054119 -0.218478
C47   C     C_R   0.858014 0.824102 0.051790 -0.185800
C48   C     C_R   0.140534 0.176538 0.949540 -0.202275
C49   C     C_R   0.613398 0.343677 0.900735 -0.074091
C50   C     C_R   0.385907 0.655889 0.099523 -0.076893
C51   C     C_R   0.383210 0.347995 0.101572 -0.062511
C52   C     C_R   0.617591 0.651210 0.898107 -0.065209
C53   C     C_R   0.116928 0.847882 0.898339 -0.068021
C54   C     C_R   0.883610 0.153094 0.101059 -0.069641
C55   C     C_R   0.883629 0.846974 0.101201 -0.073962
C56   C     C_R   0.115721 0.153527 0.899331 -0.081625
C57   C     C_R   0.632240 0.321578 0.813422 -0.273828
C58   C     C_R   0.367648 0.679158 0.186183 -0.266789
C59   C     C_R   0.365857 0.323549 0.187438 -0.260454
C60   C     C_R   0.633934 0.677507 0.813273 -0.270183
C61   C     C_R   0.134493 0.824232 0.812187 -0.270614
C62   C     C_R   0.867476 0.179921 0.185566 -0.280539
C63   C     C_R   0.866143 0.823214 0.187427 -0.282206
C64   C     C_R   0.134799 0.175516 0.812185 -0.256838
C65   C     C_R   0.677242 0.278345 0.773046 -0.063700
C66   C     C_R   0.320867 0.718977 0.228151 -0.049982
C67   C     C_R   0.319799 0.282938 0.229335 -0.046229
C68   C     C_R   0.679946 0.718247 0.771369 -0.053470
C69   C     C_R   0.180030 0.782271 0.770684 -0.044255
C70   C     C_R   0.820175 0.218381 0.228764 -0.042566
C71   C     C_R   0.821875 0.779227 0.227985 -0.042980
C72   C     C_R   0.180242 0.217188 0.771128 -0.041685
C73   C     C_R   0.702301 0.253431 0.822936 -0.246138
C74   C     C_R   0.293322 0.740004 0.180670 -0.221299
C75   C     C_R   0.291465 0.263187 0.183273 -0.224721
C76   C     C_R   0.707883 0.739053 0.818070 -0.197916
C77   C     C_R   0.208019 0.761116 0.816978 -0.220559
C78   C     C_R   0.790908 0.236834 0.183554 -0.221467
C79   C     C_R   0.796523 0.753707 0.179316 -0.242383
C80   C     C_R   0.207279 0.238933 0.818850 -0.227157
C81   C     C_R   0.684386 0.277713 0.911414 0.102310
C82   C     C_R   0.312874 0.718497 0.090754 0.078115
C83   C     C_R   0.309004 0.287191 0.095128 0.096244
C84   C     C_R   0.690580 0.714602 0.906091 0.075147
C85   C     C_R   0.191008 0.785727 0.904608 0.096477
C86   C     C_R   0.807987 0.211908 0.095833 0.072411
C87   C     C_R   0.813905 0.777062 0.090882 0.073233
C88   C     C_R   0.188080 0.217089 0.908543 0.081364
C89   C     C_R   0.692450 0.128943 0.531891 0.917894
C90   C     C_R   0.304631 0.872310 0.478646 0.951766
C91   C     C_R   0.308653 0.129594 0.465419 0.918940
C92   C     C_R   0.698601 0.871501 0.511475 0.957557
C93   C     C_R   0.191443 0.629311 0.535697 0.916434
C94   C     C_R   0.804185 0.372298 0.480343 0.961235
C95   C     C_R   0.808800 0.629246 0.465718 0.919266
C96   C     C_R   0.190484 0.370087 0.538478 0.945410
C97   C     C_R   0.073544 0.100233 0.934373 0.914474
C98   C     C_R   0.925654 0.900672 0.066339 0.899876
C99   C     C_R   0.926294 0.100187 0.065683 0.909768
C100  C     C_R   0.073985 0.900236 0.934084 0.916413
C101  C     C_R   0.574571 0.599022 0.933486 0.910127
C102  C     C_R   0.426056 0.400255 0.065980 0.909314
C103  C     C_R   0.427220 0.601169 0.064902 0.911982
C104  C     C_R   0.572648 0.398844 0.935157 0.906102
C105  C     C_R   0.545160 0.000903 0.514634 -0.082063
C106  C     C_R   0.450606 0.002774 0.500532 -0.085782
C107  C     C_R   0.036840 0.503053 0.543546 -0.081195
C108  C     C_R   0.947852 0.503607 0.511338 -0.080525
C109  C     C_R   0.519295 0.068131 0.519826 -0.114501
C110  C     C_R   0.473965 0.935597 0.503132 -0.068502
C111  C     C_R   0.472685 0.069031 0.508660 -0.108101
C112  C     C_R   0.523645 0.934623 0.503980 -0.067464
C113  C     C_R   0.020572 0.568535 0.519337 -0.116827
C114  C     C_R   0.963571 0.439480 0.538102 -0.083472
C115  C     C_R   0.973951 0.569442 0.507683 -0.124210
C116  C     C_R   0.006579 0.440306 0.558146 -0.075341
C117  C     C_R   0.626685 0.937481 0.492848 -0.137444
C118  C     C_R   0.389423 0.067066 0.460436 -0.170239
C119  C     C_R   0.373918 0.939772 0.503046 -0.122775
C120  C     C_R   0.611108 0.062084 0.545837 -0.182978
C121  C     C_R   0.102321 0.434677 0.571973 -0.105523
C122  C     C_R   0.890766 0.565381 0.459060 -0.174080
C123  C     C_R   0.872426 0.439453 0.509036 -0.140113
C124  C     C_R   0.106555 0.566704 0.560242 -0.194779
C125  C     C_R   0.673950 0.937060 0.501681 -0.201730
C126  C     C_R   0.342810 0.065670 0.448715 -0.208752
C127  C     C_R   0.333060 0.938256 0.476454 -0.206460
C128  C     C_R   0.664207 0.062808 0.535943 -0.192119
C129  C     C_R   0.154428 0.434445 0.566744 -0.195749
C130  C     C_R   0.843418 0.564771 0.448978 -0.226859
C131  C     C_R   0.832699 0.437954 0.479127 -0.184327
C132  C     C_R   0.156273 0.565286 0.561894 -0.216137
C133  C     C_R   0.695894 0.000806 0.509730 0.351459
C134  C     C_R   0.321933 0.000201 0.441238 0.387804
C135  C     C_R   0.176247 0.499914 0.575400 0.398046
C136  C     C_R   0.822388 0.499416 0.441978 0.363651
C137  C     C_R   0.594244 0.000051 0.518293 -0.081864
C138  C     C_R   0.404667 0.003173 0.487311 -0.089739
C139  C     C_R   0.082489 0.501280 0.557495 -0.078626
C140  C     C_R   0.904178 0.502376 0.491674 -0.074716
C141  C     C_R   0.066248 0.374437 0.600132 0.376007
C142  C     C_R   0.922182 0.628264 0.447394 0.425386
C143  C     C_R   0.883947 0.380878 0.552358 0.413704
C144  C     C_R   0.079698 0.631383 0.558589 0.442104
C145  C     C_R   0.609030 0.877606 0.462909 0.408212
C146  C     C_R   0.419276 0.130482 0.454379 0.436496
C147  C     C_R   0.390030 0.879835 0.536945 0.423853
C148  C     C_R   0.576029 0.122890 0.572589 0.430803
H1    H     H_    0.713887 0.147977 0.941386 0.155227
H2    H     H_    0.288351 0.849006 0.053383 0.144688
H3    H     H_    0.284757 0.156401 0.060215 0.152045
H4    H     H_    0.769802 0.634555 0.905999 0.156262
H5    H     H_    0.218468 0.655458 0.936832 0.155052
H6    H     H_    0.776924 0.341154 0.069425 0.154838
H7    H     H_    0.733725 0.854970 0.093008 0.145683
H8    H     H_    0.210396 0.348415 0.946930 0.147407
H9    H     H_    0.620454 0.334691 0.021706 0.138929
H10   H     H_    0.376766 0.661695 0.980321 0.161781
H11   H     H_    0.370742 0.346809 0.984981 0.139188
H12   H     H_    0.632305 0.648627 0.012621 0.154826
H13   H     H_    0.129249 0.845670 0.014975 0.141823
H14   H     H_    0.869724 0.151561 0.986320 0.164726
H15   H     H_    0.871146 0.844374 0.984415 0.152535
H16   H     H_    0.124505 0.159911 0.018916 0.162632
H17   H     H_    0.613756 0.342021 0.774923 0.183545
H18   H     H_    0.387881 0.661728 0.223198 0.177255
H19   H     H_    0.386390 0.340370 0.223868 0.176157
H20   H     H_    0.612725 0.661963 0.777351 0.172718
H21   H     H_    0.114335 0.842238 0.775422 0.180645
H22   H     H_    0.889978 0.166793 0.220091 0.165329
H23   H     H_    0.884975 0.843168 0.225272 0.178694
H24   H     H_    0.116246 0.155975 0.774087 0.175080
H25   H     H_    0.737534 0.219246 0.791740 0.156661
H26   H     H_    0.255670 0.769917 0.214337 0.161231
H27   H     H_    0.254502 0.232251 0.216948 0.159683
H28   H     H_    0.744218 0.771301 0.785083 0.159096
H29   H     H_    0.244365 0.728737 0.783842 0.152820
H30   H     H_    0.753604 0.267441 0.217745 0.165406
H31   H     H_    0.762122 0.718366 0.211322 0.165365
H32   H     H_    0.244179 0.269991 0.785578 0.152625
O1    O     O_R   0.746490 0.236330 0.638080 -0.620887
O2    O     O_R   0.253510 0.763670 0.361920 -0.645909
O3    O     O_R   0.253510 0.236330 0.361920 -0.655848
O4    O     O_R   0.746490 0.763670 0.638080 -0.637050
O5    O     O_R   0.246490 0.736330 0.638080 -0.634960
O6    O     O_R   0.753510 0.263670 0.361920 -0.648647
O7    O     O_R   0.753510 0.736330 0.361920 -0.626634
O8    O     O_R   0.246490 0.263670 0.638080 -0.649907
O9    O     O_R   0.674170 0.186160 0.516270 -0.591915
O10   O     O_R   0.325830 0.813840 0.483730 -0.606205
O11   O     O_R   0.325830 0.186160 0.483730 -0.581293
O12   O     O_R   0.674170 0.813840 0.516270 -0.612053
O13   O     O_R   0.174170 0.686160 0.516270 -0.585809
O14   O     O_R   0.825830 0.313840 0.483730 -0.588253
O15   O     O_R   0.825830 0.686160 0.483730 -0.579815
O16   O     O_R   0.174170 0.313840 0.516270 -0.638561
O17   O     O_R   0.739960 0.127620 0.525000 -0.588225
O18   O     O_R   0.260040 0.872380 0.475000 -0.583322
O19   O     O_R   0.260040 0.127620 0.475000 -0.584325
O20   O     O_R   0.739960 0.872380 0.525000 -0.589240
O21   O     O_R   0.239960 0.627620 0.525000 -0.579626
O22   O     O_R   0.760040 0.372380 0.475000 -0.579258
O23   O     O_R   0.760040 0.627620 0.475000 -0.582168
O24   O     O_R   0.239960 0.372380 0.525000 -0.581326
O25   O     O_R   0.680700 0.294870 0.629350 -0.618780
O26   O     O_R   0.319300 0.705130 0.370650 -0.644087
O27   O     O_R   0.319300 0.294870 0.370650 -0.620193
O28   O     O_R   0.680700 0.705130 0.629350 -0.640918
O29   O     O_R   0.180700 0.794870 0.629350 -0.626713
O30   O     O_R   0.819300 0.205130 0.370650 -0.645662
O31   O     O_R   0.819300 0.794870 0.370650 -0.646146
O32   O     O_R   0.180700 0.205130 0.629350 -0.639764
O33   O     O_R   0.062020 0.072840 0.007170 -0.624608
O34   O     O_R   0.937980 0.927160 0.992830 -0.626768
O35   O     O_R   0.937980 0.072840 0.992830 -0.627751
O36   O     O_R   0.062020 0.927160 0.007170 -0.627915
O37   O     O_R   0.562020 0.572840 0.007170 -0.628378
O38   O     O_R   0.437980 0.427160 0.992830 -0.629620
O39   O     O_R   0.437980 0.572840 0.992830 -0.626946
O40   O     O_R   0.562020 0.427160 0.007170 -0.630895
O41   O     O_R   0.947860 0.073950 0.109290 -0.626400
O42   O     O_R   0.052140 0.926050 0.890710 -0.620273
O43   O     O_R   0.052140 0.073950 0.890710 -0.625549
O44   O     O_R   0.947860 0.926050 0.109290 -0.628593
O45   O     O_R   0.447860 0.573950 0.109290 -0.621484
O46   O     O_R   0.552140 0.426050 0.890710 -0.622576
O47   O     O_R   0.552140 0.573950 0.890710 -0.623624
O48   O     O_R   0.447860 0.426050 0.109290 -0.622694
Zn1   Zn    Zn3+2 0.792340 0.208750 0.507670 0.962464
Zn2   Zn    Zn3+2 0.207660 0.791250 0.492330 1.005842
Zn3   Zn    Zn3+2 0.207660 0.208750 0.492330 0.921446
Zn4   Zn    Zn3+2 0.792340 0.791250 0.507670 0.975028
Zn5   Zn    Zn3+2 0.292340 0.708750 0.507670 0.953514
Zn6   Zn    Zn3+2 0.707660 0.291250 0.492330 0.996262
Zn7   Zn    Zn3+2 0.707660 0.708750 0.492330 0.952307
Zn8   Zn    Zn3+2 0.292340 0.291250 0.507670 1.001778
Zn9   Zn    Zn3+2 0.505960 0.500000 0.080520 0.927364
Zn10  Zn    Zn3+2 0.494040 0.500000 0.919480 0.929174
Zn11  Zn    Zn3+2 0.005960 0.000000 0.080520 0.909903
Zn12  Zn    Zn3+2 0.994040 0.000000 0.919480 0.921263
O49   O     O_3   0.747432 0.000944 0.499932 -0.600622
C149  C     C_3   0.786332 0.001022 0.407506 0.150028
H33   H     H_    0.785951 0.054159 0.376700 0.144052
H34   H     H_    0.778972 0.957320 0.369630 0.096761
C150  C     C_3   0.841693 0.988167 0.399751 -0.334160
H35   H     H_    0.847006 0.024604 0.446841 0.222854
H36   H     H_    0.844341 0.931252 0.418720 0.231701
C151  C     C_3   0.886832 0.002150 0.304534 -0.905875
H37   H     H_    0.877147 0.976803 0.255133 0.274390
H38   H     H_    0.925383 0.979395 0.295873 0.251533
H39   H     H_    0.891681 0.061236 0.292132 0.263706
O50   O     O_3   0.286144 0.998202 0.407565 -0.606030
C152  C     C_3   0.315077 0.991374 0.312453 0.080303
H40   H     H_    0.294306 0.949858 0.293233 0.167541
H41   H     H_    0.357645 0.972071 0.285114 0.093821
C153  C     C_3   0.314166 0.063394 0.268221 -0.309266
H42   H     H_    0.271756 0.082124 0.295422 0.239574
H43   H     H_    0.336467 0.104944 0.283937 0.189442
C154  C     C_3   0.340148 0.056113 0.166117 -1.008698
H44   H     H_    0.382719 0.037764 0.137342 0.266112
H45   H     H_    0.339637 0.109498 0.136344 0.270317
H46   H     H_    0.317480 0.016739 0.148070 0.261889
O51   O     O_3   0.220954 0.500059 0.588226 -0.607289
C155  C     C_3   0.204489 0.487721 0.680340 0.113855
H47   H     H_    0.238264 0.459852 0.683726 0.163195
H48   H     H_    0.168911 0.451085 0.714312 0.108512
C156  C     C_3   0.193231 0.559756 0.731195 -0.350280
H49   H     H_    0.229539 0.594651 0.697935 0.242401
H50   H     H_    0.159138 0.588175 0.729538 0.191720
C157  C     C_3   0.178953 0.548166 0.829197 -1.000993
H51   H     H_    0.143111 0.512610 0.863733 0.269399
H52   H     H_    0.169332 0.601153 0.864482 0.268825
H53   H     H_    0.213500 0.523202 0.833028 0.259482
O52   O     O_3   0.785457 0.497323 0.410588 -0.606582
C158  C     C_3   0.812808 0.508208 0.316367 0.105635
H54   H     H_    0.842026 0.463174 0.282131 0.118979
H55   H     H_    0.834760 0.560755 0.298187 0.107715
C159  C     C_3   0.771488 0.509587 0.283181 -0.274581
H56   H     H_    0.750244 0.456729 0.298159 0.218932
H57   H     H_    0.741164 0.552894 0.319284 0.225819
C160  C     C_3   0.798301 0.524007 0.182095 -1.033646
H58   H     H_    0.819035 0.577211 0.166042 0.266037
H59   H     H_    0.767164 0.525056 0.160391 0.262345
H60   H     H_    0.828083 0.480653 0.144250 0.269220
O53   O     O_3   0.074245 0.314497 0.642392 -0.614847
C161  C     C_3   0.070422 0.248601 0.601853 0.249656
H61   H     H_    0.106862 0.215525 0.584414 0.170965
H62   H     H_    0.070131 0.256541 0.537067 0.044337
C162  C     C_3   0.021748 0.202039 0.664905 -0.399016
H63   H     H_    0.983408 0.228451 0.679883 0.270524
H64   H     H_    0.023422 0.150875 0.629349 0.156919
C163  C     C_3   0.021198 0.182036 0.752341 -0.787056
H65   H     H_    0.052442 0.140200 0.737946 0.241336
H66   H     H_    0.981471 0.158460 0.800309 0.230225
H67   H     H_    0.028364 0.230065 0.784174 0.283879
O54   O     O_3   0.924245 0.687233 0.395233 -0.590317
C164  C     C_3   0.944557 0.665766 0.304576 0.078066
H68   H     H_    0.911037 0.644516 0.295170 0.130283
H69   H     H_    0.976844 0.623557 0.283374 0.102346
C165  C     C_3   0.968814 0.731936 0.244179 -0.301834
H70   H     H_    0.938967 0.776917 0.268856 0.237403
H71   H     H_    0.005027 0.749833 0.247928 0.208518
C166  C     C_3   0.984884 0.715529 0.146272 -0.975459
H72   H     H_    0.015674 0.671646 0.119666 0.262825
H73   H     H_    0.002193 0.764846 0.104677 0.269732
H74   H     H_    0.949028 0.698818 0.140780 0.268117
O55   O     O_3   0.847020 0.327143 0.599564 -0.578490
C167  C     C_3   0.833357 0.326536 0.691437 0.171319
H75   H     H_    0.789019 0.327154 0.730869 0.142091
H76   H     H_    0.846372 0.375736 0.713387 0.049133
C168  C     C_3   0.854740 0.258374 0.716266 -0.350013
H77   H     H_    0.896649 0.267885 0.701435 0.266082
H78   H     H_    0.830372 0.248886 0.789971 0.171436
C169  C     C_3   0.854343 0.189846 0.666172 -0.730267
H79   H     H_    0.813046 0.175162 0.681577 0.247386
H80   H     H_    0.871443 0.144068 0.686820 0.200553
H81   H     H_    0.879246 0.197157 0.592409 0.289971
O56   O     O_3   0.076600 0.693799 0.606319 -0.594823
C170  C     C_3   0.057493 0.677269 0.698286 0.084952
H82   H     H_    0.092227 0.662509 0.708340 0.136641
H83   H     H_    0.027747 0.631946 0.722625 0.106950
C171  C     C_3   0.029293 0.744065 0.754978 -0.315643
H84   H     H_    0.056594 0.791377 0.728506 0.236531
H85   H     H_    0.992564 0.756188 0.749544 0.200211
C172  C     C_3   0.013188 0.732598 0.853941 -0.977744
H86   H     H_    0.984755 0.686612 0.882390 0.268785
H87   H     H_    0.993136 0.782223 0.892977 0.272890
H88   H     H_    0.049357 0.721026 0.861119 0.269428
O57   O     O_3   0.644391 0.825470 0.405446 -0.593693
C173  C     C_3   0.649913 0.832387 0.318169 0.110317
H89   H     H_    0.693466 0.828877 0.268013 0.161205
H90   H     H_    0.635885 0.885795 0.305936 0.053664
C174  C     C_3   0.619877 0.771565 0.299872 -0.358922
H91   H     H_    0.577804 0.769141 0.355278 0.285537
H92   H     H_    0.618689 0.783794 0.236804 0.156678
C175  C     C_3   0.645960 0.697309 0.290443 -0.831188
H93   H     H_    0.682027 0.692151 0.222975 0.238178
H94   H     H_    0.617069 0.654507 0.296361 0.232845
H95   H     H_    0.657303 0.688430 0.343735 0.286508
O58   O     O_3   0.423409 0.190571 0.402411 -0.594511
C176  C     C_3   0.446322 0.170406 0.310851 0.078354
H96   H     H_    0.414475 0.147910 0.297914 0.135531
H97   H     H_    0.479390 0.129549 0.290991 0.104235
C177  C     C_3   0.470229 0.237737 0.252641 -0.304424
H98   H     H_    0.439350 0.281443 0.276321 0.236349
H99   H     H_    0.504950 0.256991 0.260009 0.208016
C178  C     C_3   0.489257 0.222316 0.153428 -0.985459
H100  H     H_    0.521038 0.179691 0.127894 0.263705
H101  H     H_    0.506283 0.272419 0.113411 0.267547
H102  H     H_    0.454884 0.204316 0.144377 0.269288
O59   O     O_3   0.353733 0.827955 0.593431 -0.586330
C179  C     C_3   0.365651 0.802957 0.660916 0.134440
H103  H     H_    0.326945 0.797817 0.724480 0.152134
H104  H     H_    0.390201 0.841685 0.676094 0.055670
C180  C     C_3   0.392811 0.728007 0.638409 -0.392377
H105  H     H_    0.433875 0.731540 0.580074 0.279571
H106  H     H_    0.396899 0.708832 0.696855 0.159104
C181  C     C_3   0.361113 0.671864 0.617745 -0.730691
H107  H     H_    0.320097 0.665284 0.676004 0.233044
H108  H     H_    0.382290 0.618821 0.603883 0.205109
H109  H     H_    0.358352 0.687996 0.557225 0.287471
O60   O     O_3   0.578142 0.179401 0.624362 -0.571707
C182  C     C_3   0.565172 0.154633 0.711626 0.104380
H110  H     H_    0.593468 0.180034 0.730993 0.154804
H111  H     H_    0.569770 0.094983 0.716469 0.070127
C183  C     C_3   0.507231 0.176373 0.779799 -0.391895
H112  H     H_    0.479383 0.157958 0.755368 0.210239
H113  H     H_    0.495482 0.149009 0.845042 0.178026
C184  C     C_3   0.501323 0.258098 0.795571 -0.773838
H114  H     H_    0.526306 0.276343 0.825611 0.239006
H115  H     H_    0.458532 0.271766 0.843054 0.232907
H116  H     H_    0.513958 0.287367 0.731279 0.281510
O61   O     O_3   0.970874 0.353136 0.678579 -0.615020
C185  C     C_3   0.946280 0.403798 0.750567 0.117045
H117  H     H_    0.905412 0.417577 0.761559 0.127943
H118  H     H_    0.968191 0.456365 0.738385 0.073001
C186  C     C_3   0.942009 0.371879 0.836867 -0.339584
H119  H     H_    0.982328 0.352455 0.823739 0.239786
H120  H     H_    0.928674 0.415246 0.888711 0.167500
C187  C     C_3   0.901573 0.310081 0.874153 -0.846649
H121  H     H_    0.861559 0.328268 0.884833 0.251856
H122  H     H_    0.897397 0.292556 0.939672 0.250799
H123  H     H_    0.915455 0.263203 0.827637 0.269090
O62   O     O_3   0.954249 0.701409 0.525403 -0.564888
C188  C     C_3   0.932510 0.701479 0.620456 0.151980
H124  H     H_    0.950592 0.748324 0.636815 0.143602
H125  H     H_    0.944066 0.653485 0.647076 0.108427
C189  C     C_3   0.870933 0.712546 0.671155 -0.406830
H126  H     H_    0.859272 0.735063 0.738869 0.185646
H127  H     H_    0.858899 0.752698 0.635299 0.248550
C190  C     C_3   0.839794 0.642047 0.684600 -0.849920
H128  H     H_    0.837715 0.628195 0.623216 0.273112
H129  H     H_    0.797812 0.648755 0.739919 0.249390
H130  H     H_    0.858591 0.596449 0.702220 0.234456
O63   O     O_3   0.957042 0.307930 0.539442 -0.598169
C191  C     C_3   0.996003 0.293602 0.448410 0.120487
H131  H     H_    0.037084 0.299158 0.440323 0.124477
H132  H     H_    0.993741 0.331148 0.398547 0.066592
C192  C     C_3   0.988748 0.216981 0.422096 -0.335058
H133  H     H_    0.946885 0.210762 0.433755 0.216833
H134  H     H_    0.016784 0.208872 0.349009 0.168098
C193  C     C_3   0.000391 0.159022 0.474505 -0.865883
H135  H     H_    0.042912 0.162631 0.460108 0.233559
H136  H     H_    0.993932 0.104602 0.453870 0.239049
H137  H     H_    0.972956 0.165399 0.547860 0.279169
O64   O     O_3   0.053072 0.692339 0.463777 -0.581775
C194  C     C_3   0.078466 0.675909 0.370534 0.114641
H138  H     H_    0.070821 0.722037 0.336106 0.171523
H139  H     H_    0.060882 0.627353 0.355959 0.114240
C195  C     C_3   0.139752 0.666627 0.330406 -0.366027
H140  H     H_    0.157159 0.716728 0.341744 0.244930
H141  H     H_    0.148634 0.620828 0.363744 0.213767
C196  C     C_3   0.166682 0.650752 0.229770 -0.986351
H142  H     H_    0.148437 0.602327 0.216737 0.261219
H143  H     H_    0.210147 0.639516 0.204252 0.274766
H144  H     H_    0.162438 0.697966 0.193032 0.271423
O65   O     O_3   0.530649 0.803009 0.516864 -0.590166
C197  C     C_3   0.532531 0.775579 0.593463 0.119729
H145  H     H_    0.490596 0.766222 0.647941 0.117657
H146  H     H_    0.550757 0.813075 0.622705 0.073167
C198  C     C_3   0.563740 0.703838 0.570617 -0.286692
H147  H     H_    0.605529 0.712257 0.515234 0.255920
H148  H     H_    0.566114 0.684679 0.630649 0.161359
C199  C     C_3   0.536903 0.645473 0.542725 -0.866533
H149  H     H_    0.495269 0.635160 0.597838 0.242926
H150  H     H_    0.560536 0.594398 0.527982 0.233763
H151  H     H_    0.535583 0.662272 0.481130 0.290474
O66   O     O_3   0.446626 0.197411 0.544076 -0.578539
C200  C     C_3   0.410556 0.190868 0.637415 0.124369
H152  H     H_    0.424455 0.147871 0.667684 0.117783
H153  H     H_    0.369158 0.177640 0.649752 0.126730
C201  C     C_3   0.408049 0.262667 0.683765 -0.293881
H154  H     H_    0.449053 0.276738 0.671745 0.247745
H155  H     H_    0.394050 0.306155 0.654555 0.220193
C202  C     C_3   0.369577 0.258386 0.785073 -1.004141
H156  H     H_    0.328145 0.245792 0.798328 0.270646
H157  H     H_    0.368712 0.311158 0.816961 0.265119
H158  H     H_    0.382983 0.215750 0.816129 0.267614
O67   O     O_3   0.471505 0.813347 0.450606 -0.589236
C203  C     C_3   0.477104 0.822103 0.363331 0.109634
H159  H     H_    0.520166 0.831732 0.314080 0.123455
H160  H     H_    0.454466 0.869097 0.356466 0.065196
C204  C     C_3   0.457553 0.753991 0.336906 -0.323726
H161  H     H_    0.415604 0.741820 0.389467 0.250405
H162  H     H_    0.457379 0.764081 0.272536 0.162786
C205  C     C_3   0.493266 0.688339 0.325058 -0.853361
H163  H     H_    0.535126 0.698361 0.270625 0.243699
H164  H     H_    0.477321 0.640498 0.306282 0.237056
H165  H     H_    0.493439 0.676171 0.388863 0.281895
O68   O     O_3   0.542678 0.199149 0.499117 -0.576969
C206  C     C_3   0.566889 0.197001 0.403593 0.143332
H166  H     H_    0.559114 0.250116 0.381155 0.170117
H167  H     H_    0.548264 0.155734 0.379941 0.124054
C207  C     C_3   0.628242 0.184802 0.357228 -0.394941
H168  H     H_    0.647440 0.228931 0.375855 0.250709
H169  H     H_    0.637480 0.132401 0.378974 0.216144
C208  C     C_3   0.652336 0.182378 0.255035 -0.983656
H170  H     H_    0.630665 0.142538 0.235487 0.261008
H171  H     H_    0.695113 0.165020 0.223909 0.273591
H172  H     H_    0.650057 0.236670 0.228766 0.268875
C209  C     C_3   0.723628 0.398794 0.991135 -0.397714
C210  C     C_3   0.754953 0.427889 0.895307 -0.888523
H173  H     H_    0.798483 0.414923 0.866414 0.242421
H174  H     H_    0.739283 0.405055 0.852412 0.263770
H175  H     H_    0.750287 0.487686 0.896130 0.249748
H176  H     H_    0.680174 0.410901 0.019609 0.204342
H177  H     H_    0.736363 0.430805 0.032885 0.195601
C211  C     C_3   0.274954 0.599229 0.009075 -0.427854
C212  C     C_3   0.315410 0.570653 0.915529 -0.880456
H178  H     H_    0.296435 0.568197 0.871805 0.251888
H179  H     H_    0.351386 0.606096 0.882926 0.256367
H180  H     H_    0.329166 0.515488 0.920773 0.245315
H181  H     H_    0.290005 0.587479 0.056882 0.220595
H182  H     H_    0.236462 0.569143 0.034605 0.208743
C213  C     C_3   0.254255 0.404769 0.042575 -0.428180
C214  C     C_3   0.214400 0.418884 0.141811 -0.850887
H183  H     H_    0.172995 0.403405 0.157185 0.253761
H184  H     H_    0.225774 0.387771 0.186011 0.269580
H185  H     H_    0.214376 0.477337 0.156929 0.244033
H186  H     H_    0.295058 0.422218 0.027342 0.211896
H187  H     H_    0.242439 0.439507 0.001501 0.206586
C215  C     C_3   0.667307 0.847532 0.022031 -0.428661
C216  C     C_3   0.691442 0.914712 0.964074 -0.873812
H188  H     H_    0.658679 0.953225 0.974662 0.246364
H189  H     H_    0.719273 0.942002 0.982897 0.264091
H190  H     H_    0.713849 0.899594 0.891683 0.264073
H191  H     H_    0.637445 0.823585 0.005370 0.216382
H192  H     H_    0.644560 0.863663 0.094111 0.186132
C217  C     C_3   0.243728 0.904619 0.958036 -0.416910
C218  C     C_3   0.280860 0.919804 0.858098 -0.868518
H193  H     H_    0.322526 0.900921 0.837397 0.245980
H194  H     H_    0.265930 0.892669 0.816409 0.271252
H195  H     H_    0.281947 0.978879 0.845285 0.243454
H196  H     H_    0.202129 0.921780 0.977195 0.210496
H197  H     H_    0.257025 0.939173 0.996942 0.207173
C219  C     C_3   0.764278 0.091614 0.025362 -0.432072
C220  C     C_3   0.802838 0.055086 0.936010 -0.881936
H198  H     H_    0.785027 0.054406 0.890530 0.256298
H199  H     H_    0.841986 0.083894 0.901797 0.257520
H200  H     H_    0.810398 0.998296 0.948659 0.252637
H201  H     H_    0.778858 0.081967 0.074281 0.215526
H202  H     H_    0.724269 0.064842 0.054378 0.200988
C221  C     C_3   0.836370 0.641720 0.977131 -0.406623
C222  C     C_3   0.883035 0.642354 0.880601 -0.915576
H203  H     H_    0.915237 0.604664 0.874661 0.243489
H204  H     H_    0.869214 0.624266 0.833084 0.262256
H205  H     H_    0.900053 0.697703 0.861804 0.267588
H206  H     H_    0.852960 0.652592 0.023047 0.216932
H207  H     H_    0.818491 0.586660 0.993604 0.206614
C223  C     C_3   0.228355 0.099169 0.988872 -0.427506
C224  C     C_3   0.187844 0.071290 0.082653 -0.876781
H208  H     H_    0.207089 0.067710 0.125934 0.252594
H209  H     H_    0.152247 0.107814 0.115540 0.257451
H210  H     H_    0.173305 0.016821 0.077956 0.244628
H211  H     H_    0.213587 0.087069 0.940859 0.221387
H212  H     H_    0.267049 0.069138 0.963925 0.201076

loop_
_geom_bond_atom_site_label_1
_geom_bond_atom_site_label_2
_ccdc_geom_bond_type
C190  H130  S    
C171  H85   S    
O45   Zn9   S    
C208  H170  S    
O5    Zn5   S    
C134  O50   S    
C214  H184  S    
C166  H73   S    
C61   C69   A    
C174  H91   S    
C165  H70   S    
C160  H60   S    
O26   Zn5   S    
C191  H132  S    
C13   C112  A    
C210  H174  S    
C174  C175  S    
C171  C172  S    
C142  O54   S    
C215  H191  S    
C153  C154  S    
C62   C70   A    
C181  H109  S    
O52   C158  S    
C194  C195  S    
C45   H13   S    
C107  C113  A    
C186  C187  S    
C205  H165  S    
C18   C26   A    
C149  H34   S    
C93   O21   A    
C167  C168  S    
C184  H116  S    
C98   O34   A    
C50   C103  S    
C196  H143  S    
C150  H35   S    
C219  H202  S    
O13   Zn2   S    
C41   C49   A    
C151  H38   S    
C16   C109  A    
C4    O28   A    
C62   H22   S    
C93   O13   A    
C52   C101  S    
C149  C150  S    
O31   Zn4   S    
O58   C176  S    
C121  C129  A    
C1    O1    A    
C20   C28   A    
C27   C35   A    
O11   Zn8   S    
C212  H178  S    
C21   C29   A    
C97   O43   A    
C23   C31   A    
O34   Zn12  S    
C217  H196  S    
C24   C32   A    
C38   C209  S    
C143  O55   S    
O22   Zn6   S    
C9    O61   S    
C180  H105  S    
C223  H212  S    
C179  H103  S    
C96   C129  S    
C213  H187  S    
C79   C87   A    
O54   C164  S    
C105  C112  A    
C63   C71   A    
C120  C148  A    
C212  H179  S    
C208  H172  S    
C79   H31   S    
C61   H21   S    
C218  H193  S    
O38   Zn10  S    
C32   C40   A    
C59   H19   S    
C222  H203  S    
O12   Zn7   S    
C108  C140  A    
C212  H180  S    
C192  H134  S    
C100  O36   A    
C205  H164  S    
C161  C162  S    
C94   O14   A    
C9    C116  A    
C175  H93   S    
C154  H45   S    
C15   O67   S    
C48   H16   S    
C103  O45   A    
C6    O6    A    
C101  O47   A    
C17   C25   A    
C163  H66   S    
C3    O27   A    
C80   C88   A    
C161  H62   S    
C211  H182  S    
C55   C98   S    
C18   C82   S    
O30   Zn1   S    
C217  H197  S    
C204  H162  S    
C164  H68   S    
C30   H6    S    
C216  H190  S    
C147  O59   S    
C126  C134  A    
O24   Zn8   S    
C23   C36   A    
C150  C151  S    
O20   Zn4   S    
C118  C138  A    
C11   C143  A    
C187  H121  S    
C113  C115  A    
C170  H83   S    
C37   C211  S    
C198  H147  S    
C43   C83   A    
C124  C139  A    
C69   C77   A    
O59   C179  S    
C127  C134  A    
C13   C145  A    
C75   C83   A    
C92   C125  S    
C49   C104  S    
C71   C79   A    
C200  H152  S    
C51   C102  S    
C30   C38   A    
C223  C224  S    
O41   Zn11  S    
C108  C115  A    
C7    O7    A    
C74   H26   S    
C43   H11   S    
C109  C111  A    
C40   C213  S    
C152  H40   S    
C156  C157  S    
O60   C182  S    
C95   O23   A    
C192  H133  S    
C66   C74   A    
C179  C180  S    
C49   C57   A    
C124  C132  A    
C25   H1    S    
O49   C149  S    
C153  H43   S    
C172  H87   S    
C185  H117  S    
O19   Zn3   S    
C52   C60   A    
C59   C67   A    
C32   H8    S    
C53   C61   A    
O2    Zn2   S    
C201  C202  S    
C155  H47   S    
C98   O44   A    
C95   C130  S    
C1    C65   S    
C56   C64   A    
C207  H168  S    
C2    O26   A    
C93   C132  S    
C165  C166  S    
C206  C207  S    
C44   C52   A    
C224  H210  S    
C77   C85   A    
C164  H69   S    
C56   C97   S    
C175  H95   S    
C19   C83   S    
C141  O53   S    
C167  H76   S    
C96   O24   A    
C197  H146  S    
C106  C111  A    
C176  H97   S    
C158  C159  S    
C131  C136  A    
C4    C68   S    
O47   Zn10  S    
C173  C174  S    
C77   H29   S    
C220  H199  S    
C185  C186  S    
C47   C87   A    
C145  O57   S    
C197  C198  S    
C216  H188  S    
C182  H110  S    
C207  C208  S    
C102  O48   A    
C162  H63   S    
O10   Zn5   S    
C181  H108  S    
C183  C184  S    
C28   C36   A    
C195  H140  S    
C42   C50   A    
C187  H123  S    
C221  H207  S    
C155  H48   S    
C199  H149  S    
C180  H106  S    
C198  C199  S    
C20   C84   S    
C182  C183  S    
C54   C99   S    
C67   C75   A    
C224  H208  S    
O37   Zn9   S    
O66   C200  S    
C193  H135  S    
C90   O10   A    
C200  C201  S    
C190  H129  S    
C105  C109  A    
C22   C30   A    
C157  H51   S    
C119  C138  A    
C27   H3    S    
C2    C66   S    
C35   C223  S    
C114  C116  A    
C156  H49   S    
C120  C137  A    
O17   Zn1   S    
C160  H59   S    
O14   Zn1   S    
C121  C139  A    
C168  H78   S    
C122  C140  A    
C72   C80   A    
C178  H102  S    
C210  H175  S    
C3    C67   S    
C189  C190  S    
C215  H192  S    
O15   Zn4   S    
C17   C38   A    
C194  H139  S    
C107  C139  A    
C58   H18   S    
C110  C112  A    
C107  C116  A    
C186  H120  S    
C19   C40   A    
C102  O38   A    
C105  C137  A    
C206  H166  S    
C211  C212  S    
C14   O66   S    
C31   C39   A    
C159  H56   S    
O50   C152  S    
C202  H157  S    
C92   O20   A    
C117  C125  A    
C25   C33   A    
C184  H115  S    
C119  C127  A    
C197  H145  S    
C99   O41   A    
C196  H142  S    
O3    Zn3   S    
C158  H54   S    
C157  H53   S    
C5    O5    A    
C76   C84   A    
O51   C155  S    
C221  H206  S    
C8    O8    A    
C173  H90   S    
C47   C55   A    
O25   Zn6   S    
C184  H114  S    
C57   H17   S    
C209  H177  S    
C169  H80   S    
C162  C163  S    
C203  H159  S    
C117  C145  A    
C10   C142  A    
C108  C114  A    
C183  H112  S    
C5    C69   S    
C213  H186  S    
C199  H151  S    
C222  H204  S    
C159  C160  S    
C179  H104  S    
C90   C127  S    
C48   C88   A    
C13   O65   S    
C94   O22   A    
C47   H15   S    
C169  H81   S    
C201  H155  S    
C171  H84   S    
C97   O33   A    
C208  H171  S    
C15   C110  A    
C42   H10   S    
C218  H194  S    
C74   C82   A    
C214  H183  S    
C165  H71   S    
C166  H74   S    
C174  H92   S    
C53   C100  S    
C21   C85   S    
C8    C72   S    
C75   H27   S    
O55   C167  S    
C50   C58   A    
C121  C141  A    
C76   H28   S    
C191  H131  S    
C175  H94   S    
C173  H89   S    
C178  H100  S    
O32   Zn3   S    
C210  H173  S    
C21   C34   A    
C54   C62   A    
C209  C210  S    
C218  H195  S    
C64   H24   S    
O67   C203  S    
O23   Zn7   S    
O53   C161  S    
C152  C153  S    
C63   H23   S    
C177  C178  S    
C26   H2    S    
C221  C222  S    
C41   C81   A    
C46   C54   A    
C149  H33   S    
C24   C88   S    
O28   Zn7   S    
C73   C81   A    
C41   H9    S    
C216  H189  S    
C196  H144  S    
C150  H36   S    
C219  H201  S    
C44   H12   S    
O40   Zn9   S    
C68   C76   A    
C5    O29   A    
C151  H37   S    
C187  H122  S    
C188  H124  S    
C89   O17   A    
C6    C70   S    
C188  H125  S    
C95   O15   A    
C222  H205  S    
C123  C131  A    
C78   H30   S    
C136  O52   S    
C57   C65   A    
C44   C84   A    
C31   H7    S    
O63   C191  S    
C120  C128  A    
C94   C131  S    
C203  C204  S    
C169  H79   S    
O48   Zn9   S    
C15   C147  A    
C156  H50   S    
C43   C51   A    
C91   O11   A    
C223  H211  S    
C10   O62   S    
O42   Zn12  S    
C17   C81   S    
C22   C86   S    
C172  H86   S    
C185  H118  S    
C170  H82   S    
C12   O64   S    
C96   O16   A    
C60   C68   A    
C189  H127  S    
C215  C216  S    
C29   C37   A    
C89   O9    A    
O64   C194  S    
C207  H169  S    
O35   Zn12  S    
C128  C133  A    
C214  H185  S    
C92   O12   A    
C103  O39   A    
C206  H167  S    
C89   C128  S    
C192  C193  S    
C168  H77   S    
C224  H209  S    
C135  O51   S    
C205  H163  S    
O46   Zn10  S    
C91   C126  S    
C70   C78   A    
O57   C173  S    
C146  O58   S    
C42   C82   A    
C191  C192  S    
C154  H46   S    
O62   C188  S    
O65   C197  S    
C190  H128  S    
C176  H96   S    
C60   H20   S    
C99   O35   A    
C80   H32   S    
O39   Zn10  S    
C163  H65   S    
C158  H55   S    
C18   C37   A    
O43   Zn12  S    
C155  C156  S    
C7    C71   S    
C161  H61   S    
C106  C138  A    
C211  H181  S    
C65   C73   A    
C220  H198  S    
C2    O2    A    
C11   C114  A    
C104  O40   A    
C204  C205  S    
C177  H98   S    
C133  O49   S    
O21   Zn5   S    
C58   C66   A    
C166  H72   S    
O1    Zn1   S    
C194  H138  S    
C100  O42   A    
C1    O25   A    
C217  C218  S    
C7    O31   A    
O8    Zn8   S    
C151  H39   S    
O29   Zn2   S    
C202  H158  S    
C91   O19   A    
C78   C86   A    
C199  H150  S    
O68   C206  S    
C170  C171  S    
C198  H148  S    
C33   C219  S    
C129  C135  A    
C182  H111  S    
C130  C136  A    
C26   C34   A    
O27   Zn8   S    
C193  H136  S    
C200  H153  S    
C14   C111  A    
C24   C35   A    
C16   O68   S    
C118  C146  A    
O4    Zn4   S    
C195  C196  S    
C213  C214  S    
C152  H41   S    
C36   C221  S    
C9    C141  A    
C189  H126  S    
C160  H58   S    
C34   C217  S    
C123  C140  A    
C12   C144  A    
C55   C63   A    
C172  H88   S    
C45   C85   A    
O56   C170  S    
C178  H101  S    
C193  H137  S    
O16   Zn3   S    
C153  H42   S    
C4    O4    A    
O9    Zn6   S    
C186  H119  S    
C144  O56   S    
C177  H99   S    
C28   H4    S    
C148  O60   S    
C164  C165  S    
C159  H57   S    
C51   C59   A    
C122  C142  A    
C154  H44   S    
C19   C27   A    
C167  H75   S    
C29   H5    S    
C12   C113  A    
C106  C110  A    
C176  C177  S    
C125  C133  A    
C48   C56   A    
C22   C33   A    
C11   O63   S    
C201  H154  S    
C39   C215  S    
O36   Zn11  S    
C195  H141  S    
C163  H67   S    
C117  C137  A    
O33   Zn11  S    
O18   Zn2   S    
C104  O46   A    
C6    O30   A    
C90   O18   A    
C14   C146  A    
C16   C148  A    
C220  H200  S    
C188  C189  S    
C20   C39   A    
C119  C147  A    
C204  H161  S    
C8    O32   A    
O61   C185  S    
C3    O3    A    
C209  H176  S    
C132  C135  A    
C219  C220  S    
C162  H64   S    
C203  H160  S    
C157  H52   S    
C64   C72   A    
C73   H25   S    
C181  H107  S    
O44   Zn11  S    
C183  H113  S    
C45   C53   A    
C202  H156  S    
C101  O37   A    
C180  C181  S    
C46   H14   S    
C168  C169  S    
C123  C143  A    
C124  C144  A    
C23   C87   S    
C118  C126  A    
O6    Zn6   S    
C122  C130  A    
O7    Zn7   S    
C10   C115  A    
C46   C86   A    
