data_mof_unit_pretest_458.cif
_audit_creation_date              2013-03-05T16:25:01-0500
_audit_creation_method            fapswitch 2.2
_symmetry_space_group_name_H-M    P1
_symmetry_Int_Tables_number       1
_space_group_crystal_system       triclinic
_cell_length_a                    15.125554
_cell_length_b                    13.852943
_cell_length_c                    9.099596
_cell_angle_alpha                 90.186474
_cell_angle_beta                  91.081919
_cell_angle_gamma                 90.141009
_cell_volume                      1906.31354531

loop_
_atom_site_label
_atom_site_type_symbol
_atom_site_description
_atom_site_fract_x
_atom_site_fract_y
_atom_site_fract_z
_atom_type_partial_charge
O1    O     O_R   0.371460 0.581430 0.500010 -0.597483
O2    O     O_R   0.628540 0.418570 0.499990 -0.579107
O3    O     O_R   0.628540 0.581430 0.499990 -0.597707
O4    O     O_R   0.371460 0.418570 0.500010 -0.583166
C1    C     C_R   0.329784 0.499872 0.497082 0.849198
C2    C     C_R   0.669858 0.500131 0.501457 0.840636
O5    O     O_R   0.500000 0.581420 0.288390 -0.566681
O6    O     O_R   0.500000 0.418580 0.711610 -0.584670
O7    O     O_R   0.500000 0.581420 0.711610 -0.566718
O8    O     O_R   0.500000 0.418580 0.288390 -0.586285
C3    C     C_R   0.549244 0.107695 0.606976 0.332896
C4    C     C_R   0.420795 0.893139 0.508584 0.354613
C5    C     C_R   0.452447 0.107311 0.390377 0.333832
C6    C     C_R   0.579876 0.892842 0.487973 0.363542
C7    C     C_R   0.500004 0.499883 0.220463 0.845542
C8    C     C_R   0.500181 0.500074 0.779540 0.848689
Cu1   Cu    Cu3+1 0.500000 0.596430 0.500000 0.939585
Cu2   Cu    Cu3+1 0.500000 0.403570 0.500000 0.932751
H1    H     H_    0.590015 0.251607 0.677740 0.151339
H2    H     H_    0.360301 0.753108 0.507773 0.153330
H3    H     H_    0.411199 0.250370 0.320259 0.151694
H4    H     H_    0.639802 0.752911 0.491283 0.158401
N1    N     N_R   0.500000 0.258690 0.500000 -0.208306
N2    N     N_R   0.500000 0.741310 0.500000 -0.213299
C9    C     C_R   0.500700 0.055242 0.498604 -0.021890
C10   C     C_R   0.500485 0.945982 0.498376 -0.019488
C11   C     C_1   0.500137 0.499776 0.065464 -0.195288
C12   C     C_1   0.500198 0.500038 0.934544 -0.195086
C13   C     C_R   0.095014 0.585979 0.459626 0.449656
C14   C     C_R   0.900036 0.436376 0.400635 0.458417
C15   C     C_R   0.907273 0.565898 0.585993 0.493609
C16   C     C_R   0.094654 0.412511 0.507698 0.456182
C17   C     C_R   0.187017 0.585574 0.466417 -0.290693
C18   C     C_R   0.808902 0.432548 0.414421 -0.287617
C19   C     C_R   0.813825 0.568048 0.582623 -0.364219
C20   C     C_R   0.186677 0.412946 0.506383 -0.290252
H5    H     H_    0.222000 0.653237 0.453413 0.171924
H6    H     H_    0.771211 0.379405 0.351838 0.170081
H7    H     H_    0.776814 0.619586 0.645929 0.151687
H8    H     H_    0.221638 0.345463 0.521124 0.177515
C21   C     C_R   0.233179 0.499490 0.490005 -0.169875
C22   C     C_R   0.765778 0.500246 0.499978 -0.147959
C23   C     C_R   0.047752 0.499536 0.484532 -0.059304
C24   C     C_R   0.950136 0.500794 0.490002 -0.070845
C25   C     C_R   0.549979 0.210123 0.600935 -0.072707
C26   C     C_R   0.422347 0.791336 0.505192 -0.058750
C27   C     C_R   0.450866 0.209566 0.397745 -0.076273
C28   C     C_R   0.577864 0.791190 0.494330 -0.072784
O9    O     O_3   0.052301 0.673633 0.447295 -0.580473
C29   C     C_3   0.036394 0.695005 0.297997 0.022789
H9    H     H_    0.983105 0.647260 0.252922 0.131622
H10   H     H_    0.097345 0.686368 0.231934 0.135436
C30   C     C_3   0.005896 0.799891 0.287382 -0.292810
H11   H     H_    0.946418 0.810172 0.355611 0.224039
H12   H     H_    0.059237 0.848184 0.330633 0.224644
C31   C     C_3   0.983325 0.827851 0.129466 -0.949431
H13   H     H_    0.041424 0.816735 0.058682 0.252703
H14   H     H_    0.964129 0.905129 0.125040 0.268645
H15   H     H_    0.927081 0.783470 0.087599 0.247828
O10   O     O_3   0.939524 0.371106 0.307110 -0.565492
C32   C     C_3   0.951954 0.413574 0.167815 0.070584
H16   H     H_    0.995410 0.364313 0.105533 0.182820
H17   H     H_    0.987840 0.483624 0.176587 0.091989
C33   C     C_3   0.864080 0.425772 0.081748 -0.395705
H18   H     H_    0.820016 0.363260 0.102349 0.234215
H19   H     H_    0.830650 0.492610 0.119162 0.200110
C34   C     C_3   0.878328 0.432346 0.917050 -0.921018
H20   H     H_    0.931482 0.484999 0.893108 0.263569
H21   H     H_    0.816074 0.455100 0.860772 0.260629
H22   H     H_    0.896807 0.360366 0.874575 0.249239
O11   O     O_3   0.961050 0.623685 0.677818 -0.565515
C35   C     C_3   0.917023 0.681896 0.781262 0.062748
H23   H     H_    0.964683 0.696538 0.872767 0.164976
H24   H     H_    0.861603 0.643942 0.835045 0.087614
C36   C     C_3   0.888035 0.778704 0.713846 -0.337095
H25   H     H_    0.855214 0.766913 0.605039 0.217925
H26   H     H_    0.839325 0.813340 0.786949 0.182331
C37   C     C_3   0.965965 0.847719 0.695464 -0.776167
H27   H     H_    0.994388 0.868459 0.804392 0.237174
H28   H     H_    0.943005 0.914158 0.638640 0.232968
H29   H     H_    0.018317 0.813765 0.629280 0.300173
O12   O     O_3   0.051125 0.325596 0.526026 -0.564857
C38   C     C_3   0.037715 0.308127 0.676986 0.065514
H30   H     H_    0.968091 0.284243 0.688063 0.167121
H31   H     H_    0.047099 0.373033 0.749104 0.123968
C39   C     C_3   0.097867 0.226214 0.730136 -0.354576
H32   H     H_    0.083296 0.159919 0.664799 0.235148
H33   H     H_    0.168005 0.246326 0.713726 0.208125
C40   C     C_3   0.084520 0.204950 0.892683 -0.922849
H34   H     H_    0.103304 0.268896 0.960349 0.255090
H35   H     H_    0.126980 0.143470 0.926875 0.257456
H36   H     H_    0.014418 0.185786 0.912739 0.261499
O13   O     O_3   0.599952 0.056967 0.709829 -0.569794
C41   C     C_3   0.592881 0.094767 0.854048 0.027761
H37   H     H_    0.576774 0.033837 0.927891 0.144481
H38   H     H_    0.538639 0.148125 0.867375 0.124888
C42   C     C_3   0.681527 0.138225 0.904929 -0.318176
H39   H     H_    0.732280 0.080482 0.909582 0.230003
H40   H     H_    0.703917 0.193285 0.825363 0.215675
C43   C     C_3   0.674503 0.185260 0.056148 -0.943983
H41   H     H_    0.630013 0.248895 0.050222 0.261822
H42   H     H_    0.740965 0.209329 0.095006 0.260239
H43   H     H_    0.648183 0.133120 0.136623 0.242199
O14   O     O_3   0.340377 0.940180 0.513730 -0.570621
C44   C     C_3   0.317858 0.958011 0.661622 0.049367
H44   H     H_    0.287068 0.030690 0.665959 0.175103
H45   H     H_    0.375872 0.960023 0.739634 0.116552
C45   C     C_3   0.250067 0.883373 0.712126 -0.345937
H46   H     H_    0.193114 0.881390 0.633076 0.235080
H47   H     H_    0.280769 0.810680 0.715235 0.209463
C46   C     C_3   0.216458 0.907316 0.864896 -0.909604
H48   H     H_    0.272252 0.908970 0.946053 0.262660
H49   H     H_    0.168531 0.851177 0.898607 0.255568
H50   H     H_    0.182657 0.978369 0.864157 0.253989
O15   O     O_3   0.403363 0.056719 0.284615 -0.566104
C47   C     C_3   0.418958 0.090698 0.140566 0.028310
H51   H     H_    0.436061 0.027420 0.071499 0.147850
H52   H     H_    0.475914 0.141719 0.132970 0.120489
C48   C     C_3   0.334603 0.136207 0.076099 -0.317196
H53   H     H_    0.283105 0.079517 0.061222 0.226370
H54   H     H_    0.308592 0.191290 0.152739 0.219122
C49   C     C_3   0.351661 0.184017 0.928455 -0.947589
H55   H     H_    0.401040 0.243051 0.941939 0.264666
H56   H     H_    0.289324 0.215399 0.884304 0.264775
H57   H     H_    0.376252 0.130224 0.848511 0.239974
O16   O     O_3   0.660539 0.939093 0.475859 -0.575856
C50   C     C_3   0.676030 0.960048 0.326329 0.059604
H58   H     H_    0.720177 0.024191 0.323542 0.180285
H59   H     H_    0.614625 0.979908 0.263470 0.116324
C51   C     C_3   0.722741 0.875595 0.251059 -0.374328
H60   H     H_    0.783622 0.856544 0.314702 0.227280
H61   H     H_    0.678523 0.811554 0.247006 0.210457
C52   C     C_3   0.747289 0.900855 0.094083 -0.903439
H62   H     H_    0.687231 0.920525 0.029084 0.260865
H63   H     H_    0.777984 0.837302 0.041204 0.248062
H64   H     H_    0.795065 0.961855 0.093900 0.259970

loop_
_geom_bond_atom_site_label_1
_geom_bond_atom_site_label_2
_geom_bond_distance
_ccdc_geom_bond_type
C8    C12   1.410463 S    
H4    C28   1.078405 S    
O13   C41   1.417374 S    
N1    C25   1.359414 A    
O2    Cu2   1.954803 S    
C30   H12   1.112211 S    
C19   H7    1.080016 S    
C46   H48   1.111013 S    
C18   C22   1.388717 A    
C36   H25   1.110592 S    
O3    C2    1.289346 A    
C14   C24   1.414405 A    
C42   H39   1.110391 S    
C13   O9    1.380734 S    
C30   H11   1.111868 S    
C45   H46   1.112036 S    
C44   H45   1.118450 S    
O16   C50   1.415926 S    
O1    C1    1.292378 A    
C16   C20   1.392168 A    
O7    C8    1.287029 A    
C4    O14   1.382835 S    
O8    C7    1.286515 A    
C37   H28   1.110379 S    
C48   C49   1.525869 S    
C3    C9    1.415965 A    
O15   C47   1.417924 S    
C13   C17   1.391835 A    
C31   H13   1.110065 S    
C32   H17   1.112633 S    
C19   C22   1.395455 A    
C45   H47   1.110190 S    
O5    Cu1   1.936088 S    
C14   O10   1.383978 S    
C52   H64   1.110552 S    
C29   H10   1.116519 S    
O3    Cu1   1.955820 S    
C40   H35   1.109722 S    
C32   H16   1.110258 S    
O4    Cu2   1.955823 S    
C3    O13   1.392078 S    
O5    C7    1.285819 A    
O6    C8    1.285295 A    
C13   C23   1.414222 A    
C5    C9    1.415249 A    
C20   C21   1.398296 A    
O2    C2    1.289743 A    
C35   C36   1.537912 S    
O14   C44   1.415504 S    
C42   H40   1.110074 S    
C29   H9    1.112873 S    
C48   H54   1.109863 S    
C44   C45   1.532088 S    
C29   C30   1.528342 S    
N1    C27   1.359585 A    
C15   C24   1.419795 A    
C14   C18   1.387411 A    
Cu2   N1    2.007013 S    
N2    C28   1.365906 A    
C33   C34   1.521111 S    
C20   H8    1.082652 S    
C35   H24   1.110694 S    
C5    C27   1.418185 A    
C37   H27   1.109642 S    
O4    C1    1.292131 A    
C6    C28   1.409834 A    
C41   C42   1.531446 S    
C9    C10   1.513561 S    
C43   H43   1.108811 S    
C17   H5    1.083158 S    
C34   H20   1.109349 S    
C4    C10   1.413399 A    
O10   C32   1.414704 S    
C34   H21   1.110206 S    
C33   H19   1.111599 S    
C32   C33   1.539860 S    
C51   H61   1.109810 S    
C23   C24   1.478425 S    
C50   H59   1.117018 S    
C7    C11   1.410463 S    
C38   H30   1.109574 S    
C43   H42   1.109483 S    
Cu1   Cu2   2.671680 S    
C46   H49   1.109778 S    
C45   C46   1.524938 S    
C6    C10   1.414590 A    
C40   H36   1.111005 S    
C41   H38   1.113708 S    
C36   H26   1.110731 S    
C5    O15   1.390915 S    
C47   H52   1.116280 S    
C4    C26   1.410778 A    
C38   H31   1.118603 S    
O12   C38   1.413908 S    
C52   H62   1.109625 S    
C15   C19   1.413603 A    
C3    C25   1.420195 A    
C51   C52   1.524254 S    
C49   H56   1.108277 S    
C50   H58   1.110831 S    
C42   C43   1.526216 S    
C39   H32   1.111746 S    
C30   C31   1.522247 S    
O7    Cu1   1.937432 S    
C1    C21   1.461414 S    
C47   C48   1.532198 S    
C18   H6    1.083617 S    
C35   H23   1.108899 S    
C39   C40   1.526146 S    
C48   H53   1.110896 S    
H1    C25   1.079401 S    
C16   O12   1.382950 S    
C44   H44   1.111245 S    
O1    Cu1   1.954806 S    
C6    O16   1.383095 S    
C31   H15   1.109283 S    
C34   H22   1.106677 S    
N2    C26   1.366725 A    
C33   H18   1.110045 S    
C49   H57   1.109466 S    
Cu1   N2    2.007013 S    
C40   H34   1.110481 S    
C50   C51   1.534327 S    
C17   C21   1.398489 A    
O11   C35   1.414615 S    
C37   H29   1.108584 S    
O8    Cu2   1.937433 S    
C15   O11   1.402643 S    
C43   H41   1.111176 S    
C16   C23   1.414666 A    
C31   H14   1.110543 S    
C47   H51   1.110850 S    
C51   H60   1.111329 S    
C46   H50   1.110257 S    
C39   H33   1.109130 S    
C41   H37   1.110030 S    
C36   C37   1.527869 S    
O6    Cu2   1.936086 S    
C38   C39   1.530160 S    
O9    C29   1.407776 S    
C2    C22   1.451152 S    
C11   C12   1.191362 T    
C52   H63   1.108997 S    
C49   H55   1.111107 S    
H2    C26   1.077128 S    
H3    C27   1.079323 S    
