data_mof_unit_pretest_1687.cif
_audit_creation_date              2012-12-10T16:58:19-0500
_audit_creation_method            fapswitch 2.2
_symmetry_space_group_name_H-M    P1
_symmetry_Int_Tables_number       1
_space_group_crystal_system       triclinic
_cell_length_a                    31.111662
_cell_length_b                    30.721943
_cell_length_c                    25.230317
_cell_angle_alpha                 90.133816
_cell_angle_beta                  130.026319
_cell_angle_gamma                 89.996559
_cell_volume                      18466.2680885

loop_
_atom_site_label
_atom_site_type_symbol
_atom_type_description
_atom_site_fract_x
_atom_site_fract_y
_atom_site_fract_z
_atom_type_partial_charge
C1    C     C_R   0.808761 0.809334 0.498949 0.928495
C2    C     C_R   0.535288 0.738079 0.069562 0.294813
C3    C     C_R   0.913879 0.293127 0.820938 0.170210
C4    C     C_R   0.574719 0.744096 0.144604 0.056459
C5    C     C_R   0.433401 0.736984 0.856054 0.032324
C6    C     C_R   0.073081 0.252827 0.144539 0.058870
C7    C     C_R   0.929940 0.252270 0.854861 0.033294
C8    C     C_R   0.604192 0.707798 0.185660 -0.214111
C9    C     C_R   0.380887 0.717392 0.814637 -0.212948
C10   C     C_R   0.127141 0.235735 0.184101 -0.215666
C11   C     C_R   0.907106 0.213654 0.817321 -0.202588
C12   C     C_R   0.639863 0.711255 0.256849 -0.234828
C13   C     C_R   0.968476 0.249002 0.929986 0.291265
C14   C     C_R   0.345025 0.722550 0.743844 -0.227018
C15   C     C_R   0.161818 0.235967 0.255507 -0.253468
C16   C     C_R   0.869663 0.214391 0.745890 -0.240295
C17   C     C_3   0.596125 0.822838 0.276058 -0.418092
C18   C     C_3   0.555424 0.807051 0.286621 -0.800078
C19   C     C_3   0.430314 0.800640 0.722451 -0.397120
C20   C     C_3   0.454304 0.775382 0.694382 -0.829483
C21   C     C_3   0.056210 0.266879 0.280379 -0.415867
C22   C     C_3   0.056946 0.223298 0.310189 -0.848800
C23   C     C_3   0.854606 0.337122 0.708371 -0.406364
C24   C     C_R   0.037157 0.249532 0.069288 0.297634
C25   C     C_3   0.895116 0.355948 0.699393 -0.825473
C26   C     C_3   0.842405 0.743824 0.847043 -0.887919
C27   C     C_3   0.155587 0.739335 0.150986 -0.886227
C28   C     C_3   0.342705 0.247524 0.847412 -0.886700
C29   C     C_3   0.655526 0.238673 0.151091 -0.886666
C30   C     C_3   0.015743 0.745285 0.863543 -0.887011
C31   C     C_3   0.983795 0.749654 0.132915 -0.896201
C32   C     C_3   0.515736 0.242554 0.863459 -0.888477
C33   C     C_3   0.483800 0.250797 0.132987 -0.895048
C34   C     C_3   0.941562 0.759345 0.714264 -0.877797
C35   C     C_2   0.855698 0.894350 0.441382 0.115229
C36   C     C_3   0.058948 0.762676 0.285809 -0.889027
C37   C     C_3   0.441935 0.256863 0.714207 -0.878026
C38   C     C_3   0.559107 0.263384 0.285990 -0.889503
C39   C     C_3   0.681480 0.572452 0.607390 -0.835882
C40   C     C_3   0.318124 0.568460 0.397782 -0.841979
C41   C     C_3   0.177500 0.083052 0.619638 -0.836342
C42   C     C_3   0.818165 0.068838 0.397170 -0.845478
C43   C     C_3   0.700894 0.673750 0.614827 -0.912039
C44   C     C_3   0.295140 0.669537 0.383889 -0.914810
C45   C     C_3   0.188700 0.183854 0.608823 -0.897519
C46   C     C_2   0.152746 0.903402 0.560069 0.098063
C47   C     C_3   0.795701 0.170061 0.383848 -0.916363
C48   C     C_3   0.623883 0.625739 0.427278 -0.465156
C49   C     C_3   0.630200 0.636509 0.373265 -0.854406
C50   C     C_3   0.379072 0.628036 0.575970 -0.479741
C51   C     C_3   0.373338 0.640062 0.630189 -0.836404
C52   C     C_3   0.133302 0.119385 0.438978 -0.478680
C53   C     C_3   0.153393 0.118949 0.397193 -0.821732
C54   C     C_3   0.878377 0.127558 0.575117 -0.463046
C55   C     C_3   0.873306 0.139928 0.629764 -0.864657
C56   C     C_3   0.567864 0.827130 0.134254 -0.435394
C57   C     C_2   0.365634 0.386068 0.445718 0.126457
C58   C     C_3   0.597843 0.830205 0.104425 -0.864269
C59   C     C_3   0.509141 0.784300 0.874526 -0.428384
C60   C     C_3   0.507810 0.828267 0.901884 -0.876590
C61   C     C_3   0.003516 0.302934 0.136782 -0.438888
C62   C     C_3   0.011844 0.340961 0.104950 -0.849767
C63   C     C_3   0.934669 0.334956 0.863820 -0.432698
C64   C     C_3   0.899874 0.345851 0.885316 -0.870073
C65   C     C_3   0.857424 0.882262 0.383822 -0.404575
C66   C     C_3   0.826498 0.840132 0.344601 -0.895867
C67   C     C_3   0.163379 0.900057 0.628134 -0.381762
C68   C     C_2   0.604429 0.371781 0.527341 0.159766
C69   C     C_3   0.212241 0.870715 0.683073 -0.872377
C70   C     C_3   0.377189 0.368809 0.398959 -0.421238
C71   C     C_3   0.376516 0.319036 0.395594 -0.890131
C72   C     C_3   0.563437 0.350946 0.533925 -0.436614
C73   C     C_3   0.532865 0.312420 0.484410 -0.880630
C74   C     C_3   0.893738 0.930827 0.553933 -0.907501
C75   C     C_3   0.096599 0.923187 0.434785 -0.916839
C76   C     C_3   0.385199 0.433592 0.541270 -0.913877
C77   C     C_3   0.642588 0.436138 0.505445 -0.931575
C78   C     C_3   0.753976 0.879473 0.391495 -0.379335
C79   C     C_2   0.895150 0.920280 0.496009 -0.047682
C80   C     C_3   0.734132 0.911542 0.418024 -0.857244
C81   C     C_3   0.239842 0.900400 0.568150 -0.351771
C82   C     C_3   0.295184 0.879578 0.629304 -0.824753
C83   C     C_3   0.262159 0.362744 0.376854 -0.386114
C84   C     C_3   0.227273 0.396419 0.378969 -0.847476
C85   C     C_3   0.689237 0.321898 0.613864 -0.381611
C86   C     C_3   0.718989 0.354822 0.673169 -0.912439
C87   C     C_2   0.105434 0.921723 0.501741 -0.064134
C88   C     C_2   0.397304 0.417240 0.495046 -0.023045
C89   C     C_R   0.192997 0.809389 0.504494 0.936492
C90   C     C_2   0.599621 0.413421 0.506226 -0.001208
C91   C     C_2   0.816553 0.871228 0.445151 0.235199
C92   C     C_2   0.188739 0.878735 0.551993 0.231261
C93   C     C_2   0.322822 0.363691 0.443261 0.213023
C94   C     C_2   0.650464 0.344674 0.543979 0.202730
C95   C     C_2   0.840118 0.840733 0.494388 -0.382320
C96   C     C_2   0.167455 0.840063 0.520324 -0.409498
C97   C     C_2   0.342578 0.340745 0.499843 -0.354634
C98   C     C_2   0.654904 0.340873 0.494748 -0.370584
C99   C     C_R   0.835587 0.747508 0.743680 -0.267228
C100  C     C_R   0.309549 0.309257 0.500649 0.928363
C101  C     C_R   0.164482 0.746156 0.256564 -0.251068
C102  C     C_R   0.335815 0.249366 0.743915 -0.268128
C103  C     C_R   0.664438 0.245902 0.256617 -0.251033
C104  C     C_R   0.870340 0.745233 0.815467 0.184723
C105  C     C_R   0.129681 0.743886 0.184749 0.181913
C106  C     C_R   0.370555 0.247174 0.815695 0.183805
C107  C     C_R   0.629630 0.243681 0.184811 0.182128
C108  C     C_R   0.929166 0.744908 0.854968 0.030618
C109  C     C_R   0.071057 0.745072 0.145279 0.014016
C110  C     C_R   0.429306 0.245280 0.855063 0.030884
C111  C     C_R   0.690322 0.309254 0.499022 0.903951
C112  C     C_R   0.571016 0.245297 0.145333 0.013648
C113  C     C_R   0.952664 0.747409 0.822008 0.165540
C114  C     C_R   0.047287 0.748913 0.177680 0.168988
C115  C     C_R   0.452785 0.246285 0.822011 0.165627
C116  C     C_R   0.547279 0.249506 0.177747 0.168541
C117  C     C_R   0.681922 0.750298 0.364956 0.849972
C118  C     C_R   0.318673 0.750019 0.635307 0.850878
C119  C     C_R   0.181250 0.249522 0.365040 0.861822
C120  C     C_R   0.816794 0.251448 0.634624 0.849748
C121  C     C_R   0.916680 0.751807 0.749155 0.180252
C122  C     C_R   0.642493 0.749789 0.288655 -0.088448
C123  C     C_R   0.083258 0.752937 0.250765 0.190918
C124  C     C_R   0.416896 0.250694 0.749165 0.181083
C125  C     C_R   0.583293 0.253398 0.250854 0.190470
C126  C     C_R   0.857875 0.750354 0.710338 -0.119303
C127  C     C_R   0.142081 0.750134 0.289709 -0.124997
C128  C     C_R   0.358064 0.250578 0.710414 -0.120300
C129  C     C_R   0.642074 0.250192 0.289758 -0.122455
C130  C     C_R   0.034637 0.744503 0.069762 0.308210
C131  C     C_R   0.966005 0.744604 0.930457 0.292305
C132  C     C_R   0.534620 0.244757 0.069816 0.308401
C133  C     C_R   0.359886 0.748434 0.712041 -0.116029
C134  C     C_R   0.466178 0.244916 0.930534 0.292414
C135  C     C_2   0.641353 0.605916 0.553404 0.203824
C136  C     C_2   0.357682 0.603684 0.448479 0.205832
C137  C     C_2   0.137342 0.111767 0.557315 0.206590
C138  C     C_2   0.857806 0.103951 0.448086 0.207745
C139  C     C_2   0.585907 0.599469 0.504953 -0.381746
C140  C     C_2   0.413466 0.598789 0.495349 -0.380455
C141  C     C_2   0.083751 0.101108 0.504327 -0.392545
C142  C     C_2   0.913566 0.098913 0.495192 -0.379925
C143  C     C_2   0.664340 0.646081 0.549783 0.140842
C144  C     C_R   0.141632 0.249783 0.288868 -0.073188
C145  C     C_2   0.334074 0.643981 0.450642 0.144164
C146  C     C_2   0.159611 0.151044 0.550073 0.142556
C147  C     C_2   0.834264 0.144244 0.450368 0.140453
C148  C     C_2   0.656120 0.655647 0.491359 -0.025370
C149  C     C_2   0.344340 0.655748 0.509727 -0.024431
C150  C     C_2   0.158040 0.154967 0.495181 -0.027511
C151  C     C_2   0.844166 0.155693 0.509325 -0.023936
C152  C     C_R   0.440990 0.560255 0.498974 0.953912
C153  C     C_R   0.558937 0.560427 0.501168 0.949016
C154  C     C_R   0.941012 0.060285 0.498950 0.954072
C155  C     C_R   0.854545 0.253759 0.710321 -0.096059
C156  C     C_R   0.058352 0.061024 0.501140 0.949785
C157  C     C_R   0.938063 0.942373 0.498903 0.918085
C158  C     C_R   0.062653 0.943156 0.500834 0.925004
C159  C     C_R   0.439135 0.441303 0.498895 0.900570
C160  C     C_R   0.560694 0.441673 0.501074 0.920057
C161  C     C_R   0.688774 0.690455 0.495293 0.975923
C162  C     C_R   0.311348 0.690514 0.505011 0.973885
C163  C     C_R   0.189126 0.190202 0.496137 0.949806
C164  C     C_R   0.811234 0.190488 0.504754 0.980963
C165  C     C_R   0.818401 0.750414 0.634657 0.890806
C166  C     C_R   0.466638 0.733535 0.930511 0.294146
C167  C     C_R   0.181570 0.750345 0.365366 0.894022
C168  C     C_R   0.318480 0.250488 0.634683 0.889157
C169  C     C_R   0.681574 0.250353 0.365382 0.888688
C170  C     C_R   0.609164 0.786303 0.247100 0.106165
C171  C     C_R   0.413302 0.770173 0.753965 0.136892
C172  C     C_R   0.084955 0.264197 0.248953 0.125096
C173  C     C_R   0.875639 0.293970 0.747193 0.132720
C174  C     C_R   0.582585 0.785207 0.175590 0.165687
C175  C     C_R   0.450994 0.763235 0.826981 0.164387
C176  C     C_R   0.053738 0.271837 0.177099 0.147124
H1    H     H_    0.558812 0.624712 0.467749 0.120962
H2    H     H_    0.304783 0.706170 0.713858 0.178732
H3    H     H_    0.811750 0.203797 0.392110 0.245864
H4    H     H_    0.618004 0.670788 0.355831 0.243948
H5    H     H_    0.673884 0.630755 0.394371 0.274830
H6    H     H_    0.602161 0.614998 0.327450 0.249158
H7    H     H_    0.637589 0.591488 0.443769 0.232796
H8    H     H_    0.578342 0.627923 0.399465 0.220127
H9    H     H_    0.384740 0.674706 0.645845 0.241276
H10   H     H_    0.329985 0.633868 0.610051 0.276221
H11   H     H_    0.402289 0.619638 0.676945 0.250009
H12   H     H_    0.367096 0.593204 0.562307 0.234453
H13   H     H_    0.204441 0.224308 0.284754 0.174250
H14   H     H_    0.424247 0.631593 0.602351 0.220322
H15   H     H_    0.146023 0.150730 0.371856 0.252178
H16   H     H_    0.198568 0.110314 0.430869 0.274739
H17   H     H_    0.129626 0.093787 0.355958 0.241336
H18   H     H_    0.143233 0.086611 0.462824 0.233033
H19   H     H_    0.087036 0.123257 0.401041 0.216765
H20   H     H_    0.885253 0.174538 0.645356 0.248184
H21   H     H_    0.829992 0.134179 0.610030 0.275108
H22   H     H_    0.902165 0.119407 0.676426 0.249010
H23   H     H_    0.865500 0.092902 0.560928 0.232250
H24   H     H_    0.853079 0.183778 0.718119 0.168968
H25   H     H_    0.923594 0.130390 0.601414 0.220917
H26   H     H_    0.643746 0.825554 0.146093 0.259412
H27   H     H_    0.581871 0.805844 0.063062 0.271809
H28   H     H_    0.590692 0.862914 0.081368 0.248148
H29   H     H_    0.521852 0.830145 0.092459 0.226645
H30   H     H_    0.581841 0.856643 0.166573 0.200872
H31   H     H_    0.477802 0.850732 0.858650 0.254023
H32   H     H_    0.495159 0.824086 0.933857 0.276351
H33   H     H_    0.550271 0.843206 0.934635 0.252570
H34   H     H_    0.540069 0.763114 0.919023 0.221318
H35   H     H_    0.884938 0.834341 0.526505 0.132127
H36   H     H_    0.527270 0.787977 0.848736 0.209395
H37   H     H_    0.053359 0.356571 0.144566 0.259681
H38   H     H_    0.008611 0.330403 0.060499 0.269688
H39   H     H_    0.978643 0.365698 0.085382 0.246419
H40   H     H_    0.964241 0.285146 0.096074 0.225804
H41   H     H_    0.997040 0.318930 0.170430 0.201765
H42   H     H_    0.855010 0.349880 0.838909 0.255142
H43   H     H_    0.903520 0.319776 0.918350 0.274476
H44   H     H_    0.915261 0.376739 0.915306 0.252912
H45   H     H_    0.979457 0.332264 0.910608 0.219709
H46   H     H_    0.129425 0.828473 0.509644 0.145291
H47   H     H_    0.933772 0.363244 0.836187 0.216891
H48   H     H_    0.841893 0.812606 0.381262 0.269901
H49   H     H_    0.780523 0.843654 0.313255 0.252745
H50   H     H_    0.834526 0.832300 0.308653 0.255407
H51   H     H_    0.839535 0.909417 0.346092 0.225225
H52   H     H_    0.901745 0.877202 0.406678 0.214774
H53   H     H_    0.207417 0.837579 0.662141 0.266254
H54   H     H_    0.252617 0.885196 0.702511 0.266292
H55   H     H_    0.213114 0.867732 0.727614 0.247969
H56   H     H_    0.171978 0.933089 0.651077 0.225278
H57   H     H_    0.387576 0.339029 0.542696 0.123064
H58   H     H_    0.125243 0.886536 0.617242 0.215345
H59   H     H_    0.405624 0.305208 0.448595 0.264232
H60   H     H_    0.333571 0.306196 0.368561 0.261679
H61   H     H_    0.390184 0.308260 0.366424 0.255035
H62   H     H_    0.345058 0.381877 0.345918 0.212348
H63   H     H_    0.419038 0.378818 0.417301 0.222466
H64   H     H_    0.508296 0.323463 0.430048 0.263803
H65   H     H_    0.563101 0.286974 0.495717 0.266620
H66   H     H_    0.503678 0.297801 0.490542 0.255223
H67   H     H_    0.586641 0.339657 0.587863 0.215305
H68   H     H_    0.625515 0.356826 0.445011 0.132742
H69   H     H_    0.530944 0.373793 0.522807 0.196198
H70   H     H_    0.921523 0.958661 0.586184 0.252676
H71   H     H_    0.850797 0.940318 0.532254 0.250631
H72   H     H_    0.907875 0.902473 0.588715 0.247467
H73   H     H_    0.060852 0.944045 0.394508 0.263348
H74   H     H_    0.134309 0.936945 0.444978 0.236384
H75   H     H_    0.088194 0.890051 0.412425 0.247082
H76   H     H_    0.406241 0.465263 0.565843 0.246906
H77   H     H_    0.339508 0.439022 0.510574 0.251384
H78   H     H_    0.400725 0.410165 0.583517 0.248037
H79   H     H_    0.790414 0.746876 0.713294 0.174534
H80   H     H_    0.639815 0.472090 0.507541 0.226585
H81   H     H_    0.685977 0.426754 0.551070 0.258540
H82   H     H_    0.634864 0.428766 0.456929 0.247554
H83   H     H_    0.746186 0.900613 0.467858 0.280516
H84   H     H_    0.752688 0.944168 0.425406 0.249078
H85   H     H_    0.687721 0.914434 0.379441 0.238964
H86   H     H_    0.743894 0.893792 0.344257 0.201651
H87   H     H_    0.730286 0.848433 0.375530 0.191905
H88   H     H_    0.290665 0.844079 0.632346 0.262539
H89   H     H_    0.327446 0.885014 0.623841 0.235796
H90   H     H_    0.209618 0.744348 0.287254 0.167067
H91   H     H_    0.310650 0.894904 0.678626 0.233224
H92   H     H_    0.236158 0.899878 0.521363 0.210660
H93   H     H_    0.240932 0.935349 0.580546 0.186812
H94   H     H_    0.228383 0.390327 0.423157 0.277454
H95   H     H_    0.243605 0.429664 0.383966 0.250564
H96   H     H_    0.182994 0.394636 0.330263 0.246368
H97   H     H_    0.259807 0.370302 0.332020 0.203097
H98   H     H_    0.243562 0.329832 0.367249 0.196174
H99   H     H_    0.742813 0.378604 0.667726 0.257640
H100  H     H_    0.688178 0.372583 0.673698 0.269454
H101  H     H_    0.290673 0.249985 0.713691 0.174660
H102  H     H_    0.748814 0.337588 0.723256 0.253504
H103  H     H_    0.664581 0.298978 0.619081 0.210839
H104  H     H_    0.722127 0.302377 0.619925 0.201462
H105  H     H_    0.440277 0.625009 0.530609 0.119364
H106  H     H_    0.709555 0.243811 0.287308 0.166936
H107  H     H_    0.550180 0.832808 0.313004 0.237191
H108  H     H_    0.513782 0.800104 0.235601 0.245567
H109  H     H_    0.570300 0.776982 0.318097 0.269107
H110  H     H_    0.634981 0.836405 0.324413 0.225049
H111  H     H_    0.575036 0.851123 0.241519 0.190362
H112  H     H_    0.493401 0.758355 0.737199 0.241279
H113  H     H_    0.424031 0.750809 0.655396 0.270056
H114  H     H_    0.464343 0.798303 0.669722 0.242122
H115  H     H_    0.395336 0.821988 0.682669 0.222292
H116  H     H_    0.057206 0.123136 0.460896 0.126478
H117  H     H_    0.461646 0.825156 0.759799 0.202009
H118  H     H_    0.029260 0.225132 0.323587 0.245331
H119  H     H_    0.041438 0.196799 0.271634 0.256700
H120  H     H_    0.099499 0.215206 0.358009 0.255076
H121  H     H_    0.075010 0.292990 0.319999 0.229700
H122  H     H_    0.011070 0.274542 0.241328 0.196751
H123  H     H_    0.878646 0.387515 0.671761 0.242446
H124  H     H_    0.937370 0.361503 0.750051 0.239931
H125  H     H_    0.899697 0.333608 0.668739 0.277630
H126  H     H_    0.812502 0.333637 0.656745 0.215575
H127  H     H_    0.940419 0.125099 0.530515 0.119652
H128  H     H_    0.847618 0.361096 0.735056 0.205407
H129  H     H_    0.872331 0.744365 0.904350 0.248715
H130  H     H_    0.814467 0.772492 0.829419 0.239647
H131  H     H_    0.816638 0.713781 0.829744 0.242016
H132  H     H_    0.139874 0.709201 0.119137 0.242881
H133  H     H_    0.144428 0.767867 0.117404 0.251055
H134  H     H_    0.202099 0.737383 0.189827 0.235889
H135  H     H_    0.372716 0.248020 0.904720 0.248770
H136  H     H_    0.315942 0.276936 0.829897 0.240421
H137  H     H_    0.315756 0.218190 0.830114 0.241447
H138  H     H_    0.599915 0.676606 0.162512 0.162565
H139  H     H_    0.639334 0.208632 0.118996 0.242332
H140  H     H_    0.644910 0.267232 0.117776 0.251646
H141  H     H_    0.701997 0.236246 0.189963 0.235589
H142  H     H_    0.039446 0.735688 0.918217 0.244249
H143  H     H_    0.025722 0.720514 0.840795 0.243768
H144  H     H_    0.031633 0.777516 0.863145 0.244876
H145  H     H_    0.965741 0.719441 0.101398 0.248935
H146  H     H_    0.968662 0.751305 0.162297 0.246908
H147  H     H_    0.966559 0.778166 0.097770 0.243116
H148  H     H_    0.539046 0.232788 0.917986 0.244128
H149  H     H_    0.367431 0.697955 0.837473 0.155611
H150  H     H_    0.524706 0.217214 0.840318 0.243881
H151  H     H_    0.532894 0.274244 0.863538 0.244963
H152  H     H_    0.465353 0.220547 0.101644 0.249107
H153  H     H_    0.468683 0.253026 0.162344 0.246741
H154  H     H_    0.466924 0.279216 0.097691 0.243098
H155  H     H_    0.910441 0.770815 0.660185 0.236199
H156  H     H_    0.973958 0.785300 0.741748 0.236198
H157  H     H_    0.960882 0.728833 0.714692 0.245686
H158  H     H_    0.090887 0.771553 0.341142 0.239960
H159  H     H_    0.030619 0.791262 0.260936 0.236068
H160  H     H_    0.142795 0.222433 0.159553 0.162190
H161  H     H_    0.035283 0.733966 0.281707 0.246303
H162  H     H_    0.411356 0.269273 0.660614 0.235171
H163  H     H_    0.475846 0.281645 0.742358 0.236115
H164  H     H_    0.459326 0.225558 0.713418 0.245747
H165  H     H_    0.591152 0.271889 0.341462 0.239017
H166  H     H_    0.531296 0.292273 0.261514 0.236047
H167  H     H_    0.534917 0.234927 0.281440 0.246443
H168  H     H_    0.725765 0.582364 0.635757 0.236557
H169  H     H_    0.675182 0.569012 0.645762 0.252879
H170  H     H_    0.675017 0.540563 0.582373 0.223876
H171  H     H_    0.918700 0.182624 0.843663 0.156894
H172  H     H_    0.273770 0.577327 0.370751 0.237081
H173  H     H_    0.322697 0.563891 0.357985 0.253020
H174  H     H_    0.326889 0.537359 0.425509 0.226226
H175  H     H_    0.221102 0.095778 0.651877 0.233618
H176  H     H_    0.165414 0.082000 0.652514 0.250980
H177  H     H_    0.177678 0.049663 0.602785 0.227883
H178  H     H_    0.773819 0.077826 0.369986 0.237198
H179  H     H_    0.822886 0.064270 0.357504 0.252432
H180  H     H_    0.826697 0.037706 0.424729 0.225195
H181  H     H_    0.702394 0.660216 0.656780 0.250581
H182  H     H_    0.663583 0.682743 0.287194 0.173830
H183  H     H_    0.744475 0.675067 0.633835 0.231842
H184  H     H_    0.683651 0.707210 0.603994 0.248590
H185  H     H_    0.292605 0.654649 0.341784 0.252452
H186  H     H_    0.252150 0.670319 0.366800 0.234200
H187  H     H_    0.310999 0.703298 0.391696 0.245446
H188  H     H_    0.187029 0.173643 0.649675 0.245775
H189  H     H_    0.233503 0.187080 0.632881 0.228210
H190  H     H_    0.167606 0.215937 0.589355 0.254213
H191  H     H_    0.793364 0.155340 0.341798 0.252581
H192  H     H_    0.752607 0.170885 0.366432 0.233491
N1    N     N_R   0.549163 0.712978 0.038263 -0.181955
N2    N     N_R   0.005085 0.708250 0.033386 -0.175794
N3    N     N_R   0.497152 0.280630 0.967126 -0.164518
N4    N     N_R   0.503833 0.208936 0.033274 -0.176390
N5    N     N_R   0.029527 0.780721 0.035584 -0.171650
N6    N     N_R   0.971252 0.708276 0.964617 -0.170277
N7    N     N_R   0.530853 0.280563 0.035806 -0.171300
N8    N     N_R   0.470078 0.208994 0.964516 -0.170860
N9    N     N_R   0.515300 0.710768 0.969615 -0.185566
N10   N     N_R   0.057117 0.260462 0.036596 -0.182618
N11   N     N_R   0.023199 0.260266 0.967863 -0.184585
N12   N     N_R   0.451454 0.756800 0.961728 -0.172586
N13   N     N_R   0.485209 0.758892 0.030257 -0.182259
N14   N     N_R   0.949093 0.236376 0.962618 -0.174711
N15   N     N_R   0.982960 0.236664 0.031275 -0.180452
N16   N     N_R   0.995736 0.780759 0.966895 -0.165094
O1    O     O_R   0.820760 0.769680 0.499980 -0.625468
O2    O     O_R   0.073990 0.954760 0.557490 -0.652794
O3    O     O_R   0.426010 0.454760 0.442510 -0.642018
O4    O     O_R   0.573990 0.454760 0.557490 -0.630517
O5    O     O_R   0.983520 0.954760 0.557520 -0.610232
O6    O     O_R   0.016480 0.954760 0.442480 -0.612254
O7    O     O_R   0.483520 0.454760 0.557520 -0.614821
O8    O     O_R   0.516480 0.454760 0.442480 -0.622235
O9    O     O_R   0.769670 0.820760 0.499990 -0.610756
O10   O     O_R   0.230330 0.820760 0.500010 -0.607742
O11   O     O_R   0.269670 0.320760 0.499990 -0.610279
O12   O     O_R   0.179240 0.769680 0.500020 -0.626691
O13   O     O_R   0.730330 0.320760 0.500010 -0.612878
O14   O     O_R   0.724610 0.724460 0.398130 -0.622985
O15   O     O_R   0.275390 0.724460 0.601870 -0.625584
O16   O     O_R   0.224610 0.224460 0.398130 -0.629169
O17   O     O_R   0.775390 0.224460 0.601870 -0.626666
O18   O     O_R   0.673520 0.775530 0.398150 -0.621608
O19   O     O_R   0.326480 0.775530 0.601850 -0.626804
O20   O     O_R   0.173520 0.275530 0.398150 -0.620291
O21   O     O_R   0.826480 0.275530 0.601850 -0.618271
O22   O     O_R   0.730310 0.679220 0.500010 -0.618992
O23   O     O_R   0.320760 0.269680 0.499980 -0.626714
O24   O     O_R   0.269690 0.679220 0.499990 -0.618020
O25   O     O_R   0.230310 0.179220 0.500010 -0.612841
O26   O     O_R   0.769690 0.179220 0.499990 -0.619503
O27   O     O_R   0.679220 0.730290 0.500020 -0.634636
O28   O     O_R   0.320780 0.730290 0.499980 -0.635766
O29   O     O_R   0.179220 0.230290 0.500020 -0.634199
O30   O     O_R   0.820780 0.230290 0.499980 -0.632790
O31   O     O_R   0.826460 0.724450 0.601850 -0.611533
O32   O     O_R   0.173540 0.724450 0.398150 -0.610615
O33   O     O_R   0.326460 0.224450 0.601850 -0.611332
O34   O     O_R   0.679240 0.269680 0.500020 -0.625072
O35   O     O_R   0.673540 0.224450 0.398150 -0.612002
O36   O     O_R   0.775370 0.775520 0.601870 -0.618655
O37   O     O_R   0.224630 0.775520 0.398130 -0.616669
O38   O     O_R   0.275370 0.275520 0.601870 -0.618915
O39   O     O_R   0.724630 0.275520 0.398130 -0.617635
O40   O     O_R   0.425990 0.545230 0.442510 -0.611862
O41   O     O_R   0.574010 0.545230 0.557490 -0.613104
O42   O     O_R   0.925990 0.045230 0.442510 -0.613669
O43   O     O_R   0.074010 0.045230 0.557490 -0.615539
O44   O     O_R   0.483490 0.545220 0.557520 -0.629047
O45   O     O_R   0.516510 0.545220 0.442480 -0.626543
O46   O     O_R   0.983490 0.045220 0.557520 -0.629760
O47   O     O_R   0.016510 0.045220 0.442480 -0.629412
O48   O     O_R   0.926010 0.954760 0.442510 -0.646087
Zn1   Zn    Zn3+2 0.784100 0.715890 0.499990 0.945355
Zn2   Zn    Zn3+2 0.538410 0.499990 0.576790 0.945127
Zn3   Zn    Zn3+2 0.961590 0.999990 0.423210 0.935485
Zn4   Zn    Zn3+2 0.038410 0.999990 0.576790 0.933112
Zn5   Zn    Zn3+2 0.215900 0.715890 0.500010 0.945183
Zn6   Zn    Zn3+2 0.284100 0.215890 0.499990 0.940099
Zn7   Zn    Zn3+2 0.715900 0.215890 0.500010 0.941701
Zn8   Zn    Zn3+2 0.715880 0.784090 0.500010 0.936715
Zn9   Zn    Zn3+2 0.284120 0.784090 0.499990 0.932780
Zn10  Zn    Zn3+2 0.215880 0.284090 0.500010 0.937254
Zn11  Zn    Zn3+2 0.784120 0.284090 0.499990 0.944815
Zn12  Zn    Zn3+2 0.461590 0.499990 0.423210 0.942373

loop_
_geom_bond_atom_site_label_1
_geom_bond_atom_site_label_2
_ccdc_geom_bond_type
C142  H127  S    
C107  C112  A    
C19   C20   S    
C29   H140  S    
C136  C140  D    
C89   O12   A    
C24   N10   A    
O45   Zn12  S    
C135  C139  D    
C150  C163  S    
C130  N2    A    
O15   Zn5   S    
C61   H41   S    
C17   H111  S    
C41   H177  S    
C166  N9    A    
C25   H123  S    
C83   C93   S    
C20   H112  S    
C108  C131  S    
C119  O16   A    
C26   C104  S    
C146  C150  D    
C43   C143  S    
C56   H29   S    
C28   C106  S    
C122  C170  A    
C36   H159  S    
C81   H92   S    
C68   C90   D    
C82   H91   S    
C61   H40   S    
C44   H186  S    
O11   Zn10  S    
C140  C152  S    
C31   C114  S    
C98   H68   S    
C59   H34   S    
C58   H28   S    
C59   C60   S    
C21   C22   S    
C62   H38   S    
C72   H67   S    
C77   H80   S    
O31   Zn1   S    
C22   H119  S    
C43   H183  S    
C137  C146  S    
C12   C122  A    
C48   H8    S    
C84   H96   S    
O47   Zn3   S    
C77   H81   S    
C120  C155  S    
C21   H122  S    
C111  O13   A    
C56   C174  S    
C108  C113  A    
C6    C10   A    
C30   H144  S    
C68   C72   S    
O39   Zn11  S    
C16   C155  A    
C66   H49   S    
C27   H134  S    
C60   H31   S    
C28   H137  S    
N2    N6    A    
O21   Zn11  S    
C74   C79   S    
C13   N11   A    
C2    N1    A    
O43   Zn4   S    
C76   H76   S    
O41   Zn2   S    
C170  C174  A    
O17   Zn7   S    
C131  N16   A    
C33   C116  S    
C33   H152  S    
C17   C170  S    
O10   Zn9   S    
C72   C73   S    
C157  O5    A    
C141  C156  S    
C84   H94   S    
C21   C172  S    
C20   H114  S    
C86   H99   S    
C89   C96   S    
C55   H21   S    
O1    Zn1   S    
C39   H168  S    
C25   H124  S    
C152  O40   A    
C28   H135  S    
C82   H89   S    
C161  O22   A    
C100  O23   A    
C53   H16   S    
C68   C94   S    
C125  C129  A    
C7    C13   S    
C58   H26   S    
C35   C65   S    
C103  C107  A    
C149  C162  S    
N10   N11   A    
N12   N13   A    
C30   C113  S    
C101  H90   S    
C43   H181  S    
C2    C4    S    
C164  O30   A    
C126  C165  S    
C50   H12   S    
O9    Zn8   S    
C85   C86   S    
O19   Zn9   S    
C21   H121  S    
C13   N14   A    
C102  C128  A    
C30   H142  S    
C78   C80   S    
C37   H162  S    
O14   Zn1   S    
C92   C96   D    
C27   H132  S    
C65   H51   S    
C159  O7    A    
O33   Zn6   S    
C160  O8    A    
C81   C92   S    
O48   Zn3   S    
C166  N12   A    
C73   H66   S    
C85   H103  S    
C71   H59   S    
O6    Zn3   S    
C75   H74   S    
C76   H78   S    
C156  O43   A    
C16   H24   S    
C8    C12   A    
C38   H167  S    
O3    Zn12  S    
C135  C143  S    
C55   H20   S    
C15   H13   S    
C36   H158  S    
C42   H179  S    
C78   H86   S    
C41   H175  S    
C44   C145  S    
C99   C126  A    
C169  O35   A    
C143  C148  D    
C47   C147  S    
C63   H47   S    
O29   Zn10  S    
C153  O41   A    
O27   Zn8   S    
O37   Zn9   S    
C54   H23   S    
C31   H146  S    
C147  C151  D    
C117  C122  S    
C132  N7    A    
C5    C9    A    
C139  H1    S    
C69   H53   S    
C74   H72   S    
C123  C127  A    
C83   C84   S    
C1    C95   S    
C6    C24   S    
C27   H133  S    
C17   C18   S    
C73   H65   S    
C168  O33   A    
C80   H83   S    
C5    C166  S    
C142  C154  S    
C14   H2    S    
C109  C114  A    
C49   H5    S    
C114  C123  A    
C75   C87   S    
C1    O1    A    
C116  C125  A    
C26   H130  S    
C82   H88   S    
C45   H189  S    
C110  C134  S    
C102  H101  S    
C47   H192  S    
C83   H98   S    
C93   C97   D    
C112  C116  A    
C97   C100  S    
C52   C53   S    
O23   Zn6   S    
C46   C87   D    
C64   H42   S    
C105  C109  A    
C54   C55   S    
C19   H117  S    
C84   H95   S    
C29   H139  S    
C24   N15   A    
C37   H164  S    
C14   C133  A    
C54   H25   S    
C39   H170  S    
O12   Zn5   S    
C45   H188  S    
C34   H155  S    
C32   H148  S    
C95   H35   S    
O34   Zn7   S    
C51   H10   S    
C17   H110  S    
C50   C149  S    
C35   C79   D    
C101  C127  A    
C56   C58   S    
C99   C104  A    
C86   H102  S    
C61   C62   S    
C38   H165  S    
C91   C95   D    
C63   C64   S    
C56   H30   S    
O25   Zn6   S    
C52   C150  S    
C151  C164  S    
C10   H160  S    
C29   C107  S    
C19   H115  S    
C70   H62   S    
O24   Zn5   S    
C83   H97   S    
C132  N4    A    
C172  C176  A    
C117  O18   A    
C158  O6    A    
C67   H58   S    
C12   H182  S    
N14   N15   A    
C42   C138  S    
C53   H17   S    
C62   H39   S    
C63   H45   S    
C168  O38   A    
C22   H120  S    
O30   Zn11  S    
C39   C135  S    
O28   Zn9   S    
C40   H172  S    
C40   C136  S    
C33   H153  S    
C3    C7    A    
C69   H55   S    
C74   H70   S    
C46   C92   S    
C139  C153  S    
O20   Zn10  S    
C23   H128  S    
C163  O29   A    
C70   C71   S    
O13   Zn11  S    
C57   C70   S    
C60   H33   S    
C36   H161  S    
C103  H106  S    
C41   C137  S    
C64   H43   S    
C124  C128  A    
C117  O14   A    
C4    C174  A    
O8    Zn12  S    
C119  C144  S    
C5    C175  A    
C52   H19   S    
C165  O36   A    
C75   H75   S    
O16   Zn6   S    
C77   C90   S    
O35   Zn7   S    
C11   H171  S    
C160  O4    A    
C36   C123  S    
C73   H64   S    
C138  C142  D    
C60   H32   S    
N4    N8    A    
C86   H100  S    
C72   H69   S    
C9    C14   A    
C156  O47   A    
C11   C16   A    
C33   H154  S    
C40   H173  S    
O26   Zn7   S    
C66   H50   S    
C81   H93   S    
C50   C51   S    
C28   H136  S    
C44   H185  S    
C112  C132  S    
C31   H147  S    
C53   H15   S    
C120  O21   A    
O22   Zn1   S    
C169  O39   A    
C48   C49   S    
C67   H56   S    
N3    N7    A    
C78   C91   S    
C62   H37   S    
C148  C161  S    
C22   H118  S    
C153  O45   A    
O32   Zn5   S    
C104  C108  A    
C15   C144  A    
C154  O42   A    
C141  H116  S    
C137  C141  D    
C43   H184  S    
C115  C124  A    
O38   Zn10  S    
C79   C157  S    
C48   H7    S    
C57   C88   D    
C54   C151  S    
C23   C173  S    
C3    C63   S    
C144  C172  A    
O18   Zn8   S    
O42   Zn3   S    
C133  C171  A    
C23   H126  S    
C30   H143  S    
C18   H107  S    
C32   H151  S    
C32   C115  S    
C90   C160  S    
C50   H14   S    
N5    N16   A    
C51   H11   S    
C121  C126  A    
N1    N9    A    
C118  O15   A    
C75   H73   S    
C110  C115  A    
C145  C149  D    
O4    Zn2   S    
O40   Zn12  S    
C100  O11   A    
C42   H180  S    
C78   H87   S    
C140  H105  S    
C4    C8    A    
C81   C82   S    
C18   H109  S    
C7    C11   A    
O36   Zn8   S    
C20   H113  S    
C71   H61   S    
C129  C169  S    
C19   C171  S    
C59   C175  S    
C10   C15   A    
C134  N3    A    
C88   C159  S    
C55   H22   S    
C27   C105  S    
C25   H125  S    
C1    O9    A    
C44   H187  S    
C31   H145  S    
C162  O24   A    
C47   H3    S    
C158  O2    A    
C3    C173  A    
C167  O37   A    
C99   H79   S    
C80   H84   S    
C76   C88   S    
C136  C145  S    
C49   H4    S    
C155  C173  A    
C57   C93   S    
C26   H131  S    
C165  O31   A    
C47   H191  S    
C101  C105  A    
C64   H44   S    
C157  O48   A    
C45   C146  S    
C2    N13   A    
C52   H18   S    
C66   H48   S    
C89   O10   A    
C37   H163  S    
C171  C175  A    
C39   H169  S    
C163  O25   A    
C65   H52   S    
C34   H156  S    
C67   C69   S    
C161  O27   A    
C51   H9    S    
C162  O28   A    
C37   C124  S    
C103  C129  A    
C85   C94   S    
C138  C147  S    
C97   H57   S    
C18   H108  S    
C85   H104  S    
C113  C121  A    
C71   H60   S    
C76   H77   S    
C118  C133  S    
O2    Zn4   S    
C38   H166  S    
C134  N8    A    
C130  N5    A    
C9    H149  S    
C34   C121  S    
C77   H82   S    
C42   H178  S    
C34   H157  S    
C152  O44   A    
C41   H176  S    
C70   H63   S    
O46   Zn4   S    
C38   C125  S    
C59   H36   S    
C106  C110  A    
O44   Zn2   S    
C118  O19   A    
C98   C111  S    
C8    H138  S    
C40   H174  S    
C80   H85   S    
O7    Zn2   S    
C58   H27   S    
C32   H150  S    
O5    Zn4   S    
C61   C176  S    
C131  N6    A    
C167  O32   A    
C96   H46   S    
C87   C158  S    
C119  O20   A    
C164  O26   A    
C46   C67   S    
C69   H54   S    
C74   H71   S    
C111  O34   A    
C6    C176  A    
C48   C148  S    
C102  C106  A    
C94   C98   D    
C23   C25   S    
C29   H141  S    
C154  O46   A    
C49   H6    S    
C127  C167  S    
C65   C66   S    
C26   H129  S    
C109  C130  S    
C128  C168  S    
C45   H190  S    
C159  O3    A    
C120  O17   A    
C35   C91   S    
