data_mof_unit_pretest_1591.cif
_audit_creation_date              2012-12-10T17:06:39-0500
_audit_creation_method            fapswitch 2.2
_symmetry_space_group_name_H-M    P1
_symmetry_Int_Tables_number       1
_space_group_crystal_system       triclinic
_cell_length_a                    14.143519
_cell_length_b                    10.70429
_cell_length_c                    10.07705
_cell_angle_alpha                 90.854772
_cell_angle_beta                  90.021604
_cell_angle_gamma                 90.309557
_cell_volume                      1525.43618123

loop_
_atom_site_label
_atom_site_type_symbol
_atom_type_description
_atom_site_fract_x
_atom_site_fract_y
_atom_site_fract_z
_atom_type_partial_charge
C1    C     C_R   0.495583 0.262926 0.498814 0.777050
C2    C     C_R   0.506736 0.737070 0.500914 0.855256
C3    C     C_R   0.670692 0.499942 0.500002 0.896672
C4    C     C_1   0.227872 0.500374 0.499695 -0.203257
C5    C     C_1   0.142601 0.500477 0.499476 -0.019879
C6    C     C_1   0.042701 0.500335 0.499444 0.021791
C7    C     C_1   0.957417 0.500236 0.499562 0.026134
C8    C     C_1   0.857493 0.500159 0.499796 0.015117
C9    C     C_3   0.330787 0.119905 0.590470 0.098882
C10   C     C_3   0.306434 0.168454 0.729790 -0.302629
C11   C     C_3   0.203455 0.209423 0.738291 -0.946477
C12   C     C_1   0.772205 0.500074 0.499978 -0.164614
C13   C     C_3   0.364568 0.394904 0.109023 0.233903
C14   C     C_3   0.326372 0.278054 0.177128 -0.361318
C15   C     C_3   0.218500 0.276462 0.179472 -0.972691
C16   C     C_2   0.514677 0.932717 0.393879 -0.185838
C17   C     C_2   0.532276 0.866353 0.502250 0.118771
C18   C     C_2   0.522918 0.066042 0.397935 -0.259901
C19   C     C_2   0.479321 0.131178 0.493763 0.360979
C20   C     C_2   0.574963 0.507350 0.927557 0.012722
C21   C     C_2   0.568724 0.542809 0.072778 0.287250
C22   C     C_R   0.329331 0.500017 0.499956 0.875821
H1    H     H_    0.485363 0.890727 0.303912 0.176931
H2    H     H_    0.155527 0.128831 0.718036 0.271875
H3    H     H_    0.336762 0.391845 0.005991 0.137650
H4    H     H_    0.335998 0.481210 0.156634 0.155882
H5    H     H_    0.352021 0.193222 0.123624 0.228598
H6    H     H_    0.351422 0.274623 0.280717 0.236132
H7    H     H_    0.191489 0.359591 0.234410 0.274493
H8    H     H_    0.193199 0.191111 0.230056 0.272552
H9    H     H_    0.189864 0.276134 0.076980 0.270011
H10   H     H_    0.562157 0.111129 0.319014 0.172820
H11   H     H_    0.643933 0.489221 0.884730 0.124143
H12   H     H_    0.282417 0.041065 0.564683 0.166694
H13   H     H_    0.316908 0.194660 0.516885 0.078675
H14   H     H_    0.318832 0.093652 0.803049 0.243192
H15   H     H_    0.352793 0.249209 0.755950 0.245561
H16   H     H_    0.189228 0.283793 0.665560 0.271203
H17   H     H_    0.188520 0.246891 0.839250 0.264754
I1    I     I_    0.612012 0.934302 0.669901 -0.247385
I2    I     I_    0.394903 0.631876 0.898932 -0.292427
I3    I     I_    0.668182 0.675345 0.144720 -0.318603
N1    N     N_2   0.500930 0.501330 0.852150 -0.038257
N2    N     N_2   0.500950 0.501360 0.147810 0.058941
O1    O     O_R   0.499990 0.319060 0.613040 -0.581871
O2    O     O_3   0.464457 0.391672 0.101277 -0.568271
O3    O     O_R   0.500010 0.319100 0.386900 -0.622110
O4    O     O_R   0.373700 0.499980 0.613090 -0.571306
O5    O     O_R   0.373730 0.500020 0.386960 -0.617653
O6    O     O_R   0.499990 0.680900 0.613100 -0.557589
O7    O     O_R   0.500010 0.680940 0.386960 -0.619147
O8    O     O_R   0.626270 0.499980 0.613040 -0.603612
O9    O     O_R   0.626300 0.500020 0.386910 -0.572726
O10   O     O_3   0.424328 0.073081 0.589642 -0.612299
Zn1   Zn    Zn3+2 0.499980 0.499970 0.650990 1.013389
Zn2   Zn    Zn3+2 0.500020 0.500030 0.349010 0.996014

loop_
_geom_bond_atom_site_label_1
_geom_bond_atom_site_label_2
_ccdc_geom_bond_type
O4    Zn1   S    
C22   O4    A    
C3    O8    A    
C15   H9    S    
C6    C7    T    
C9    O10   S    
C14   H5    S    
C11   H16   S    
O5    Zn2   S    
I2    N1    S    
C9    C10   S    
N2    Zn2   S    
O6    Zn1   S    
O8    Zn1   S    
C8    C12   T    
C13   H3    S    
C7    C8    S    
C13   C14   S    
C2    C17   S    
C11   H17   S    
C3    O9    A    
C1    O1    A    
C5    C6    S    
C10   H15   S    
C20   H11   S    
C19   O10   S    
N1    Zn1   S    
O3    Zn2   S    
N2    O2    S    
C15   H7    S    
C16   H1    S    
C22   O5    A    
C9    H12   S    
C13   H4    S    
C1    C19   S    
C18   H10   S    
C10   C11   S    
C21   I3    S    
C21   N2    D    
C11   H2    S    
C20   N1    D    
C4    C22   S    
C20   C21   S    
O1    Zn1   S    
C15   H8    S    
C16   C18   S    
O7    Zn2   S    
C2    O7    A    
O9    Zn2   S    
C9    H13   S    
C13   O2    S    
C18   C19   D    
C10   H14   S    
C3    C12   S    
C2    O6    A    
C14   H6    S    
C14   C15   S    
C1    O3    A    
C16   C17   D    
C4    C5    T    
C17   I1    S    
