data_mof_unit_pretest_732.cif
_audit_creation_date              2012-12-10T17:13:19-0500
_audit_creation_method            fapswitch 2.2
_symmetry_space_group_name_H-M    P1
_symmetry_Int_Tables_number       1
_space_group_crystal_system       triclinic
_cell_length_a                    18.272832
_cell_length_b                    18.245123
_cell_length_c                    18.326913
_cell_angle_alpha                 119.637852
_cell_angle_beta                  90.445193
_cell_angle_gamma                 120.098434
_cell_volume                      4320.64712699

loop_
_atom_site_label
_atom_site_type_symbol
_atom_type_description
_atom_site_fract_x
_atom_site_fract_y
_atom_site_fract_z
_atom_type_partial_charge
C1    C     C_R   0.640252 0.779866 0.638587 0.491662
C2    C     C_R   0.310966 0.891759 0.278643 -0.088778
C3    C     C_R   0.282977 0.945085 0.265177 0.012277
C4    C     C_R   0.361993 0.220175 0.360302 0.492249
C5    C     C_R   0.337459 0.054779 0.320717 0.021429
C6    C     C_R   0.311188 0.107946 0.304444 0.029502
C7    C     C_R   0.235289 0.053453 0.232256 -0.151316
C8    C     C_R   0.181932 0.946450 0.178347 -0.154350
C9    C     C_R   0.203570 0.891957 0.195563 0.026549
C10   C     C_R   0.825044 0.544333 0.412807 0.043293
C11   C     C_R   0.862364 0.493851 0.413680 -0.125473
C12   C     C_3   0.802984 0.597118 0.829165 0.053325
C13   C     C_R   0.870099 0.430246 0.335741 -0.136879
C14   C     C_R   0.851467 0.426360 0.258797 0.030006
C15   C     C_R   0.812652 0.477849 0.258813 0.021643
C16   C     C_R   0.364298 0.504500 0.644273 0.493947
C17   C     C_R   0.780790 0.513841 0.329008 0.010513
C18   C     C_R   0.702313 0.508878 0.308735 -0.008692
C19   C     C_R   0.675642 0.498621 0.230858 -0.145537
C20   C     C_R   0.726998 0.497387 0.174956 -0.017547
C21   C     C_R   0.798490 0.489883 0.190629 0.031712
C22   C     C_R   0.772840 0.893545 0.579081 -0.106309
C23   C     C_3   0.698935 0.527856 0.793931 0.024393
C24   C     C_R   0.836837 0.948665 0.552142 -0.128109
C25   C     C_R   0.890115 0.056445 0.605719 -0.125424
C26   C     C_R   0.879812 0.109860 0.686641 -0.101584
C27   C     C_R   0.816475 0.055745 0.716232 0.027754
C28   C     C_R   0.641573 0.501769 0.360992 0.502314
C29   C     C_R   0.762162 0.945968 0.661613 0.027691
C30   C     C_R   0.697031 0.892038 0.690214 0.028109
C31   C     C_R   0.684735 0.945628 0.769656 -0.158967
C32   C     C_R   0.736888 0.052632 0.822415 -0.154231
C33   C     C_R   0.803692 0.107989 0.797534 0.028648
C34   C     C_3   0.696514 0.432259 0.769278 -0.116732
C35   C     C_R   0.205067 0.502412 0.406977 -0.093539
C36   C     C_R   0.143258 0.522344 0.436655 -0.132079
C37   C     C_R   0.094678 0.532172 0.388115 -0.139930
C38   C     C_R   0.104388 0.517133 0.307508 -0.106916
C39   C     C_R   0.170602 0.502478 0.278140 0.023216
C40   C     C_R   0.355892 0.497015 0.359058 0.495013
C41   C     C_R   0.223495 0.498406 0.330501 0.025254
C42   C     C_R   0.292284 0.488587 0.303708 0.024130
C43   C     C_R   0.303090 0.473211 0.223338 -0.158765
C44   C     C_R   0.249625 0.473067 0.170512 -0.158215
C45   C     C_3   0.697253 0.406521 0.675138 -0.154605
C46   C     C_R   0.185574 0.490274 0.197917 0.022768
C47   C     C_R   0.348733 0.681479 0.749428 -0.084031
C48   C     C_R   0.318540 0.744092 0.766817 0.036293
C49   C     C_R   0.233073 0.710108 0.776482 0.023508
C50   C     C_R   0.186938 0.623878 0.780203 -0.094622
C51   C     C_R   0.223523 0.569610 0.774190 0.005156
C52   C     C_R   0.641984 0.500244 0.641817 0.496595
C53   C     C_R   0.296454 0.588017 0.743089 -0.000665
C54   C     C_R   0.314231 0.511933 0.706624 0.011431
C55   C     C_R   0.274513 0.434332 0.721481 -0.158984
C56   C     C_3   0.699995 0.501957 0.700287 0.046917
C57   C     C_R   0.216344 0.429966 0.769596 -0.161871
C58   C     C_R   0.190044 0.496877 0.796710 0.012507
C59   C     C_R   0.858870 0.498727 0.138952 0.492709
C60   C     C_R   0.136889 0.497426 0.856532 0.498310
C61   C     C_R   0.141696 0.779756 0.139738 0.492073
C62   C     C_R   0.859869 0.220086 0.858562 0.489800
C63   C     C_R   0.137342 0.496523 0.141394 0.490049
C64   C     C_3   0.803795 0.570542 0.735211 0.035512
C65   C     C_R   0.858085 0.500378 0.858953 0.498865
C66   C     C_3   0.801484 0.474954 0.710019 -0.133237
C67   C     C_R   0.418031 0.107854 0.388492 -0.119972
C68   C     C_3   0.800306 0.501419 0.803485 0.041884
C69   C     C_3   0.418063 0.887396 0.361691 -0.278756
C70   C     C_3   0.405037 0.891750 0.445551 -0.424184
C71   C     C_3   0.853995 0.645967 0.498419 -0.245744
C72   C     C_3   0.956254 0.721592 0.543688 -0.465825
C73   C     C_3   0.861247 0.354351 0.176466 -0.269769
C74   C     C_3   0.769872 0.259708 0.104408 -0.426127
C75   C     C_3   0.699832 0.498513 0.097340 -0.257485
C76   C     C_3   0.626762 0.388541 0.017113 -0.409476
C77   C     C_3   0.863410 0.641520 0.708177 -0.261041
C78   C     C_R   0.442908 0.053718 0.402317 -0.111493
C79   C     C_3   0.963138 0.702073 0.756870 -0.457587
C80   C     C_3   0.866027 0.701712 0.919643 -0.262954
C81   C     C_3   0.857407 0.785559 0.931378 -0.446867
C82   C     C_3   0.373863 0.844062 0.772305 -0.280658
C83   C     C_3   0.470663 0.883239 0.775558 -0.452372
C84   C     C_3   0.188807 0.763888 0.784351 -0.292423
C85   C     C_3   0.187804 0.821920 0.879005 -0.431735
C86   C     C_3   0.633433 0.550321 0.833981 -0.265126
C87   C     C_3   0.643359 0.570183 0.925854 -0.452143
C88   C     C_R   0.389669 0.945466 0.347673 0.027000
H1    H     H_    0.889639 0.507796 0.475421 0.102543
H2    H     H_    0.653266 0.328544 0.611213 0.107652
H3    H     H_    0.215964 0.094087 0.218886 0.127101
H4    H     H_    0.463794 0.191419 0.430444 0.133695
H5    H     H_    0.504933 0.096531 0.454890 0.105313
H6    H     H_    0.844464 0.453056 0.676519 0.103985
H7    H     H_    0.447319 0.973116 0.505693 0.147397
H8    H     H_    0.333267 0.857308 0.440176 0.166795
H9    H     H_    0.424920 0.846927 0.453314 0.146739
H10   H     H_    0.378237 0.804666 0.303725 0.141653
H11   H     H_    0.489891 0.921327 0.367432 0.138926
H12   H     H_    0.635835 0.904119 0.791913 0.112089
H13   H     H_    0.273163 0.808303 0.235040 0.130908
H14   H     H_    0.121983 0.905784 0.124168 0.119893
H15   H     H_    0.616553 0.495991 0.215537 0.127492
H16   H     H_    0.982880 0.691666 0.567768 0.137588
H17   H     H_    0.988762 0.734811 0.496361 0.164995
H18   H     H_    0.974001 0.796909 0.602178 0.141944
H19   H     H_    0.832850 0.686264 0.483984 0.170547
H20   H     H_    0.822704 0.631218 0.545425 0.175051
H21   H     H_    0.896097 0.389010 0.337365 0.107642
H22   H     H_    0.779582 0.206760 0.047491 0.127141
H23   H     H_    0.844378 0.907512 0.488888 0.109456
H24   H     H_    0.726699 0.217434 0.131368 0.150137
H25   H     H_    0.735114 0.282360 0.079429 0.167175
H26   H     H_    0.905816 0.394534 0.149223 0.153018
H27   H     H_    0.894440 0.325278 0.193818 0.126947
H28   H     H_    0.609732 0.389657 0.959661 0.123578
H29   H     H_    0.649820 0.337649 0.997038 0.181457
H30   H     H_    0.565028 0.355395 0.033719 0.141601
H31   H     H_    0.673269 0.546148 0.116929 0.121813
H32   H     H_    0.758131 0.535697 0.078356 0.159420
H33   H     H_    0.983350 0.766457 0.826732 0.150780
H34   H     H_    0.355252 0.464539 0.202556 0.134472
H35   H     H_    0.978746 0.650329 0.756241 0.159119
H36   H     H_    0.003126 0.736453 0.723409 0.130162
H37   H     H_    0.849740 0.591562 0.635638 0.141179
H38   H     H_    0.846463 0.696312 0.720843 0.164244
H39   H     H_    0.731331 0.809940 0.533932 0.126440
H40   H     H_    0.938948 0.098899 0.583996 0.110947
H41   H     H_    0.920837 0.193474 0.724564 0.126992
H42   H     H_    0.726688 0.092555 0.884263 0.114947
H43   H     H_    0.047981 0.549588 0.412363 0.120305
H44   H     H_    0.058604 0.516782 0.269905 0.151741
H45   H     H_    0.236816 0.489206 0.444470 0.143999
H46   H     H_    0.869764 0.795628 0.876841 0.154301
H47   H     H_    0.789709 0.766169 0.932712 0.150076
H48   H     H_    0.907833 0.860340 0.995745 0.133431
H49   H     H_    0.851303 0.691748 0.973968 0.129472
H50   H     H_    0.936532 0.727299 0.926416 0.154465
H51   H     H_    0.261041 0.463671 0.109426 0.137716
H52   H     H_    0.288574 0.376807 0.696112 0.143929
H53   H     H_    0.505593 0.959349 0.785200 0.144719
H54   H     H_    0.507310 0.893949 0.832547 0.137772
H55   H     H_    0.471951 0.828546 0.711773 0.180011
H56   H     H_    0.132368 0.529116 0.497048 0.112317
H57   H     H_    0.339235 0.832881 0.713811 0.142315
H58   H     H_    0.377273 0.906633 0.833980 0.148631
H59   H     H_    0.146421 0.767064 0.896355 0.175984
H60   H     H_    0.257405 0.879091 0.927770 0.160028
H61   H     H_    0.158562 0.864118 0.883815 0.131474
H62   H     H_    0.221937 0.819250 0.765993 0.136044
H63   H     H_    0.119058 0.704751 0.736228 0.127044
H64   H     H_    0.639926 0.506708 0.923649 0.148476
H65   H     H_    0.707945 0.644865 0.976038 0.147484
H66   H     H_    0.587948 0.573961 0.947210 0.137103
H67   H     H_    0.414363 0.706990 0.743488 0.145944
H68   H     H_    0.643775 0.617895 0.838320 0.135008
H69   H     H_    0.563713 0.482127 0.788473 0.162953
H70   H     H_    0.653554 0.375568 0.784304 0.121942
H71   H     H_    0.120057 0.597364 0.783119 0.147701
H72   H     H_    0.190538 0.372480 0.784061 0.142871
O1    O     O_3   0.500000 0.500000 0.500000 -0.429182
O2    O     O_R   0.945270 0.268330 0.884560 -0.546033
O3    O     O_R   0.117250 0.560610 0.177960 -0.565594
O4    O     O_R   0.676930 0.731590 0.616180 -0.554608
O5    O     O_R   0.821970 0.439270 0.882700 -0.547206
O6    O     O_R   0.117250 0.439170 0.056520 -0.541719
O7    O     O_R   0.943420 0.560710 0.882700 -0.560381
O8    O     O_R   0.115410 0.731560 0.054670 -0.550997
O9    O     O_R   0.823040 0.268350 0.883790 -0.546049
O10   O     O_R   0.945270 0.560650 0.176870 -0.546303
O11   O     O_R   0.116170 0.439210 0.884560 -0.547076
O12   O     O_R   0.384570 0.439270 0.616180 -0.545898
O13   O     O_R   0.384570 0.268390 0.445310 -0.548138
O14   O     O_R   0.383800 0.560730 0.615410 -0.561720
O15   O     O_R   0.554710 0.439290 0.323100 -0.535882
O16   O     O_R   0.382720 0.560770 0.443450 -0.552851
O17   O     O_R   0.678010 0.560670 0.617270 -0.563890
O18   O     O_R   0.382720 0.439330 0.322010 -0.547991
O19   O     O_R   0.556550 0.439230 0.617270 -0.550913
O20   O     O_R   0.676930 0.560710 0.445310 -0.571559
O21   O     O_R   0.554710 0.731610 0.615410 -0.552443
O22   O     O_R   0.383800 0.268410 0.323100 -0.540299
O23   O     O_3   0.999970 0.499940 0.999970 -0.430451
O24   O     O_R   0.823040 0.439240 0.054670 -0.559037
O25   O     O_R   0.115410 0.560680 0.883790 -0.559963
O26   O     O_R   0.116170 0.731530 0.176870 -0.543366
Zn1   Zn    Zn3+2 0.457160 0.413230 0.543930 0.918825
Zn2   Zn    Zn3+2 0.456070 0.586770 0.542830 0.907876
Zn3   Zn    Zn3+2 0.456070 0.413260 0.369320 0.928857
Zn4   Zn    Zn3+2 0.630700 0.586740 0.543930 0.893299
Zn5   Zn    Zn3+2 0.042810 0.586720 0.956040 0.900772
Zn6   Zn    Zn3+2 0.043900 0.586680 0.130650 0.912132
Zn7   Zn    Zn3+2 0.043900 0.413170 0.957150 0.920738
Zn8   Zn    Zn3+2 0.869280 0.413210 0.956040 0.903940

loop_
_geom_bond_atom_site_label_1
_geom_bond_atom_site_label_2
_ccdc_geom_bond_type
C66   C68   S    
C41   C42   A    
C60   O25   A    
C22   C29   A    
C71   H19   S    
C27   C29   A    
C64   C77   S    
C35   C36   A    
O6    Zn7   S    
C84   H62   S    
O11   Zn7   S    
O23   Zn6   S    
C35   H45   S    
C32   H42   S    
C22   H39   S    
C23   C56   S    
C39   C41   A    
C62   O2    A    
C53   C54   A    
C27   C33   A    
C63   O3    A    
C79   H33   S    
C12   C23   S    
C26   C27   A    
C29   C30   A    
O8    Zn5   S    
C9    C61   S    
C78   H5    S    
C49   C84   S    
C36   C37   A    
C25   H40   S    
C21   C59   S    
O1    Zn2   S    
C74   H24   S    
C30   C31   A    
C12   C64   S    
O24   Zn8   S    
O19   Zn1   S    
O12   Zn1   S    
C58   C60   S    
C80   H49   S    
O10   Zn6   S    
O23   Zn8   S    
C18   C19   A    
C73   C74   S    
C86   H68   S    
C52   O17   A    
C61   O26   A    
C13   H21   S    
O14   Zn2   S    
C19   H15   S    
C63   O6    A    
C47   C48   A    
C45   C56   S    
C8    C9    A    
C23   C86   S    
C85   H60   S    
O25   Zn5   S    
O3    Zn6   S    
O22   Zn3   S    
C59   O10   A    
C70   H9    S    
C5    C67   A    
C47   C53   A    
C10   C71   S    
C23   C34   S    
C40   C42   S    
C87   H65   S    
C13   C14   A    
O5    Zn8   S    
C69   C88   S    
C69   C70   S    
C24   H23   S    
O4    Zn4   S    
C82   H58   S    
O21   Zn2   S    
C44   C46   A    
C81   H47   S    
C85   H61   S    
C77   C79   S    
C72   H17   S    
C38   C39   A    
C78   C88   A    
C14   C73   S    
C7    C8    A    
C18   C28   S    
C84   C85   S    
C1    O4    A    
C4    C6    S    
C34   C68   S    
C83   H53   S    
O18   Zn3   S    
C1    O21   A    
C86   C87   S    
C33   C62   S    
C72   H16   S    
C2    H13   S    
C50   C51   A    
C25   C26   A    
C74   H25   S    
C79   H35   S    
C76   H30   S    
C55   H52   S    
C37   H43   S    
C20   C75   S    
C51   C53   A    
C38   H44   S    
C70   H8    S    
C75   C76   S    
O15   Zn3   S    
C37   C38   A    
C3    C9    A    
C12   C68   S    
C16   O12   A    
C31   C32   A    
C65   C68   S    
C7    H3    S    
C11   H1    S    
C56   C64   S    
C17   C18   A    
C87   H66   S    
C75   H31   S    
C51   C58   A    
C31   H12   S    
C24   C25   A    
C2    C88   A    
C45   H2    S    
C28   O20   A    
C43   H34   S    
C6    C7    A    
C26   H41   S    
C34   C45   S    
C39   C46   A    
C40   O18   A    
C34   H70   S    
O1    Zn3   S    
C48   C49   A    
C57   H72   S    
C72   H18   S    
C82   C83   S    
C44   H51   S    
C87   H64   S    
C55   C57   A    
C43   C44   A    
C22   C24   A    
C42   C43   A    
C69   H11   S    
O23   Zn7   S    
C82   H57   S    
C77   H37   S    
C81   H48   S    
C40   O16   A    
C16   O14   A    
C15   C17   A    
C62   O9    A    
C54   C55   A    
O13   Zn1   S    
O16   Zn2   S    
O17   Zn4   S    
C14   C15   A    
C60   O11   A    
C75   H32   S    
C85   H59   S    
C80   C81   S    
C3    C5    A    
O23   Zn5   S    
C74   H22   S    
C83   H54   S    
C28   O15   A    
O9    Zn8   S    
C50   H71   S    
O7    Zn5   S    
C79   H36   S    
C65   O7    A    
C76   H29   S    
C73   H27   S    
C67   C78   A    
C46   C63   S    
C4    O13   A    
C61   O8    A    
C86   H69   S    
C32   C33   A    
C19   C20   A    
C2    C3    A    
C36   H56   S    
C52   O19   A    
C71   C72   S    
O1    Zn1   S    
O20   Zn4   S    
C69   H10   S    
C83   H55   S    
C11   C13   A    
C57   C58   A    
C5    C6    A    
C47   H67   S    
C80   H50   S    
C12   C80   S    
O2    Zn7   S    
C1    C30   S    
C76   H28   S    
C48   C82   S    
C70   H7    S    
O26   Zn6   S    
C59   O24   A    
C35   C41   A    
O1    Zn4   S    
C16   C54   S    
C10   C11   A    
C73   H26   S    
C84   H63   S    
C15   C21   A    
C65   O5    A    
C20   C21   A    
C49   C50   A    
C45   C66   S    
C66   H6    S    
C10   C17   A    
C4    O22   A    
C67   H4    S    
C71   H20   S    
C8    H14   S    
C77   H38   S    
C52   C56   S    
C64   C66   S    
C81   H46   S    
