data_mof_unit_pretest_1682.cif
_audit_creation_date              2013-03-05T16:58:09-0500
_audit_creation_method            fapswitch 2.2
_symmetry_space_group_name_H-M    P1
_symmetry_Int_Tables_number       1
_space_group_crystal_system       triclinic
_cell_length_a                    17.591474
_cell_length_b                    16.865691
_cell_length_c                    23.413079
_cell_angle_alpha                 89.999951
_cell_angle_beta                  92.223128
_cell_angle_gamma                 90.000055
_cell_volume                      6941.25343062

loop_
_atom_site_label
_atom_site_type_symbol
_atom_site_description
_atom_site_fract_x
_atom_site_fract_y
_atom_site_fract_z
_atom_type_partial_charge
O1    O     O_R   0.389110 0.566570 0.500000 -0.594928
O2    O     O_R   0.610890 0.433430 0.500000 -0.597218
O3    O     O_R   0.610890 0.566570 0.500000 -0.594931
O4    O     O_R   0.389110 0.433430 0.500000 -0.597230
C1    C     C_R   0.353438 0.499964 0.500822 0.896616
C2    C     C_R   0.646562 0.499964 0.499178 0.896617
O5    O     O_R   0.499970 0.566560 0.416150 -0.593974
O6    O     O_R   0.500030 0.433440 0.583850 -0.593763
O7    O     O_R   0.500030 0.566560 0.583850 -0.593969
O8    O     O_R   0.499970 0.433440 0.416150 -0.593757
C3    C     C_R   0.501471 0.499957 0.389248 0.921005
C4    C     C_R   0.498530 0.499957 0.610752 0.921002
Zn1   Zn    Zn3+2 0.500000 0.588860 0.500000 1.054199
Zn2   Zn    Zn3+2 0.500000 0.411140 0.500000 1.053724
C5    C     C_R   0.559689 0.481794 0.879200 0.598311
C6    C     C_R   0.440310 0.481808 0.120800 0.598311
N1    N     N_R   0.490012 0.487026 0.851997 -0.359139
N2    N     N_R   0.509988 0.487030 0.148003 -0.359140
C7    C     C_R   0.424109 0.483270 0.880464 0.517221
C8    C     C_R   0.575890 0.483261 0.119535 0.517220
C9    C     C_R   0.426125 0.475186 0.940293 -0.057492
C10   C     C_R   0.573872 0.475173 0.059706 -0.057491
C11   C     C_R   0.497992 0.474711 0.969858 -0.088031
C12   C     C_R   0.502005 0.474713 0.030142 -0.088032
C13   C     C_R   0.565831 0.475495 0.939105 -0.148999
C14   C     C_R   0.434167 0.475513 0.060895 -0.149003
C15   C     C_R   0.358715 0.468946 0.971130 0.107969
C16   C     C_R   0.641281 0.468914 0.028870 0.107973
C17   C     C_R   0.362730 0.470306 0.031092 0.262473
C18   C     C_R   0.637267 0.470270 0.968908 0.262470
O9    O     O_2   0.622367 0.483534 0.847791 -0.446458
O10   O     O_2   0.377633 0.483553 0.152210 -0.446458
O11   O     O_2   0.357264 0.489831 0.850558 -0.523875
O12   O     O_2   0.642737 0.489814 0.149440 -0.523866
C19   C     C_R   0.536267 0.428244 0.241358 -0.118044
C20   C     C_R   0.463735 0.428242 0.758642 -0.118056
H1    H     H_    0.554350 0.374351 0.220707 0.167575
H2    H     H_    0.445651 0.374348 0.779293 0.167565
C21   C     C_R   0.533433 0.430885 0.300351 -0.145586
C22   C     C_R   0.466570 0.430883 0.699649 -0.145590
H3    H     H_    0.551593 0.379378 0.324826 0.200359
H4    H     H_    0.448410 0.379376 0.675173 0.200348
C23   C     C_R   0.507304 0.499268 0.327325 -0.084942
C24   C     C_R   0.492698 0.499267 0.672675 -0.084936
C25   C     C_R   0.487581 0.566506 0.294846 -0.231445
C26   C     C_R   0.512422 0.566504 0.705154 -0.231449
H5    H     H_    0.469012 0.620176 0.315373 0.210884
H6    H     H_    0.530992 0.620174 0.684628 0.210887
C27   C     C_R   0.490858 0.564553 0.235374 0.250563
C28   C     C_R   0.509146 0.564550 0.764626 0.250560
C29   C     C_R   0.513877 0.494142 0.208746 0.264041
C30   C     C_R   0.486125 0.494139 0.791253 0.264055
C31   C     C_R   0.845967 0.569663 0.480977 -0.115923
C32   C     C_R   0.151188 0.431851 0.488800 -0.134728
C33   C     C_R   0.154031 0.569663 0.519014 -0.115921
C34   C     C_R   0.848813 0.431850 0.511188 -0.134727
H7    H     H_    0.875423 0.623286 0.469114 0.164214
H8    H     H_    0.119511 0.378798 0.477039 0.163340
H9    H     H_    0.124575 0.623285 0.530878 0.164213
H10   H     H_    0.880490 0.378796 0.522946 0.163343
C35   C     C_R   0.767152 0.568775 0.480776 -0.124549
C36   C     C_R   0.229937 0.430853 0.488971 -0.137527
C37   C     C_R   0.232846 0.568774 0.519220 -0.124546
C38   C     C_R   0.770064 0.430852 0.511022 -0.137519
H11   H     H_    0.736245 0.621539 0.467587 0.196736
H12   H     H_    0.258277 0.376578 0.477539 0.212637
H13   H     H_    0.263752 0.621537 0.532412 0.196734
H14   H     H_    0.741725 0.376577 0.522454 0.212644
C39   C     C_R   0.728929 0.499858 0.497011 -0.064345
C40   C     C_R   0.271071 0.499858 0.502986 -0.064341
C41   C     C_R   0.886210 0.501452 0.496811 0.127402
C42   C     C_R   0.113789 0.501453 0.503177 0.127404
C43   C     C_1   0.966253 0.502773 0.498939 -0.017116
C44   C     C_1   0.033747 0.502773 0.501047 -0.017117
C45   C     C_R   0.441559 0.833212 0.471164 0.136252
C46   C     C_R   0.537061 0.166784 0.544514 0.136450
C47   C     C_R   0.558445 0.833214 0.528825 0.136256
C48   C     C_R   0.462940 0.166784 0.455487 0.136430
C49   C     C_R   0.442194 0.748777 0.472096 0.259490
C50   C     C_R   0.535931 0.251210 0.543981 0.256623
C51   C     C_R   0.557808 0.748778 0.527901 0.259475
C52   C     C_R   0.464068 0.251210 0.456019 0.256681
N3    N     N_R   0.500000 0.707230 0.500000 -0.226624
N4    N     N_R   0.500000 0.292770 0.500000 -0.226047
C53   C     C_R   0.500003 0.876113 0.499993 -0.218014
C54   C     C_R   0.500001 0.123884 0.499999 -0.215797
C55   C     C_1   0.500003 0.963693 0.499991 0.240018
C56   C     C_1   0.500003 0.036306 0.499993 0.240300
N5    N     N_2   0.286569 0.459211 0.942003 -0.246401
H15   H     H_    0.242276 0.489591 0.959495 0.272902
C57   C     C_3   0.267435 0.377783 0.928317 -0.585856
H16   H     H_    0.260111 0.343121 0.968068 0.246078
H17   H     H_    0.312702 0.350071 0.903193 0.240492
H18   H     H_    0.213370 0.376063 0.902258 0.247038
N6    N     N_2   0.713423 0.459160 0.057998 -0.246399
H19   H     H_    0.757725 0.489528 0.040507 0.272910
C58   C     C_3   0.732537 0.377726 0.071684 -0.585877
H20   H     H_    0.739853 0.343062 0.031932 0.246074
H21   H     H_    0.687262 0.350027 0.096807 0.240492
H22   H     H_    0.786601 0.375991 0.097743 0.247041
N7    N     N_R   0.379563 0.707332 0.445246 0.259282
O13   O     O_R   0.310821 0.722917 0.460472 -0.356946
O14   O     O_R   0.388677 0.670835 0.397169 -0.355877
N8    N     N_R   0.570532 0.292641 0.591496 0.260501
O15   O     O_R   0.634216 0.330057 0.585424 -0.351494
O16   O     O_R   0.548867 0.277388 0.642844 -0.350053
N9    N     N_R   0.620437 0.707334 0.554754 0.259281
O17   O     O_R   0.689180 0.722916 0.539530 -0.356948
O18   O     O_R   0.611320 0.670840 0.602831 -0.355883
N10   N     N_R   0.429472 0.292643 0.408503 0.260521
O19   O     O_R   0.365787 0.330057 0.414571 -0.351518
O20   O     O_R   0.451147 0.277397 0.357156 -0.349970
N11   N     N_R   0.293487 0.464015 0.061062 0.236996
O21   O     O_R   0.272050 0.395687 0.080567 -0.317481
O22   O     O_R   0.251149 0.526283 0.067874 -0.324642
N12   N     N_R   0.706507 0.463948 0.938937 0.236992
O23   O     O_R   0.727904 0.395615 0.919417 -0.317465
O24   O     O_R   0.748877 0.526194 0.932135 -0.324655
N13   N     N_2   0.467921 0.631888 0.202365 -0.291914
H23   H     H_    0.427915 0.666735 0.221448 0.265753
C59   C     C_3   0.530169 0.678436 0.181682 -0.697690
H24   H     H_    0.507199 0.727862 0.154861 0.255904
H25   H     H_    0.567291 0.641741 0.155048 0.258886
H26   H     H_    0.564415 0.703684 0.218210 0.245952
N14   N     N_2   0.532085 0.631883 0.797636 -0.291924
H27   H     H_    0.572096 0.666726 0.778555 0.265750
C60   C     C_3   0.469839 0.678437 0.818316 -0.697696
H28   H     H_    0.492811 0.727861 0.845138 0.255902
H29   H     H_    0.432712 0.641744 0.844948 0.258895
H30   H     H_    0.435599 0.703687 0.781786 0.245952
N15   N     N_R   0.381819 0.874732 0.439940 0.266403
O25   O     O_R   0.363361 0.854812 0.387531 -0.266271
O26   O     O_R   0.345511 0.932453 0.463719 -0.318414
N16   N     N_R   0.577251 0.125272 0.590069 0.266060
O27   O     O_R   0.544650 0.067723 0.616891 -0.320717
O28   O     O_R   0.646828 0.144838 0.604856 -0.261558
N17   N     N_R   0.618187 0.874736 0.560046 0.266437
O29   O     O_R   0.636644 0.854824 0.612457 -0.266245
O30   O     O_R   0.654497 0.932452 0.536262 -0.318327
N18   N     N_R   0.422776 0.125264 0.409924 0.266010
O31   O     O_R   0.455475 0.067836 0.383030 -0.320677
O32   O     O_R   0.353229 0.144852 0.395085 -0.261550

loop_
_geom_bond_atom_site_label_1
_geom_bond_atom_site_label_2
_geom_bond_distance
_ccdc_geom_bond_type
C2    C39   1.451813 S    
C55   C56   1.224675 T    
C51   N9    1.429666 S    
N7    O13   1.300763 A    
C33   H9    1.083850 S    
C15   C17   1.403117 A    
C43   C44   1.186430 T    
N6    H19   1.030606 S    
Zn2   N4    1.996392 S    
C50   N4    1.378655 A    
O3    C2    1.287256 A    
N8    O16   1.300891 A    
C58   H20   1.110802 S    
C21   H3    1.082072 S    
C18   N12   1.433069 S    
O5    C3    1.288609 A    
N17   O30   1.301239 A    
C50   N8    1.429619 S    
C16   N6    1.426743 S    
O1    C1    1.287256 A    
C38   H14   1.080940 S    
C19   H1    1.083107 S    
C47   N17   1.438631 S    
C54   C56   1.477060 S    
C5    C13   1.406547 A    
N12   O23   1.300813 A    
C36   C40   1.402617 A    
O7    Zn1   1.998868 S    
N10   O19   1.298385 A    
C59   H26   1.111616 S    
O5    Zn1   1.998869 S    
C58   H21   1.111269 S    
C31   C35   1.386370 A    
C45   C53   1.407932 A    
C45   N15   1.438631 S    
C27   C29   1.408003 A    
C33   C37   1.386371 A    
C28   C30   1.408001 A    
C11   C12   1.410480 A    
C34   C38   1.385268 A    
C3    C23   1.457444 S    
C47   C51   1.424267 A    
N5    C57   1.446961 S    
C33   C42   1.393456 A    
O3    Zn1   1.986613 S    
C8    O12   1.349594 S    
C48   C54   1.407826 A    
C26   C28   1.396227 A    
C22   H4    1.082072 S    
C9    C15   1.415983 A    
C47   C53   1.407937 A    
N7    O14   1.298309 A    
C10   C16   1.415981 A    
N9    O18   1.298310 A    
O2    C2    1.286191 A    
O6    Zn2   1.998869 S    
N1    C30   1.426228 S    
N8    O15   1.298385 A    
C51   N3    1.378536 A    
C24   C26   1.401484 A    
N2    C29   1.426230 S    
C26   H6    1.081300 S    
C25   H5    1.081303 S    
C6    C14   1.406548 A    
C37   H13   1.081592 S    
C36   H12   1.080941 S    
C53   C55   1.477089 S    
C20   C22   1.384744 A    
N18   O31   1.301384 A    
C42   C44   1.407188 S    
C7    O11   1.349591 S    
C57   H16   1.110803 S    
C41   C43   1.407189 S    
C46   N16   1.438456 S    
N16   O28   1.301513 A    
C32   C36   1.385266 A    
C34   H10   1.083996 S    
C48   N18   1.438438 S    
C19   C21   1.384745 A    
C60   H29   1.109023 S    
C1    C40   1.451812 S    
C57   H17   1.111268 S    
C48   C52   1.424096 A    
C37   C40   1.402668 A    
C25   C27   1.396227 A    
O6    C4    1.287345 A    
C34   C41   1.393306 A    
C28   N14   1.423239 S    
C38   C39   1.402617 A    
C23   C25   1.401487 A    
C59   H24   1.110333 S    
N13   C59   1.446051 S    
C8    C10   1.406472 A    
C52   N4    1.378653 A    
C9    C11   1.417600 A    
C19   C29   1.396430 A    
N14   H27   1.031852 S    
C10   C12   1.417598 A    
O1    Zn1   1.986612 S    
N9    O17   1.300762 A    
C60   H28   1.110330 S    
C31   C41   1.393457 A    
C52   N10   1.429617 S    
C58   H22   1.110234 S    
N11   O21   1.300814 A    
C32   H8    1.083998 S    
C35   C39   1.402668 A    
C13   C18   1.416276 A    
C5    N1    1.362086 A    
C17   N11   1.433069 S    
C31   H7    1.083849 S    
C7    C9    1.406473 A    
C46   C50   1.424093 A    
C12   C14   1.417542 A    
O4    C1    1.286193 A    
N15   O26   1.301240 A    
C20   C30   1.396427 A    
C21   C23   1.401019 A    
N13   H23   1.031854 S    
N6    C58   1.446961 S    
C5    O9    1.349180 S    
N16   O27   1.301264 A    
N18   O32   1.301396 A    
C6    O10   1.349181 S    
N17   O29   1.301174 A    
Zn1   N3    1.996392 S    
C16   C18   1.403118 A    
C60   H30   1.111615 S    
C4    C24   1.457444 S    
C57   H18   1.110233 S    
C49   N3    1.378541 A    
C27   N13   1.423241 S    
C20   H2    1.083108 S    
N1    C7    1.360975 A    
N12   O24   1.300869 A    
C15   N5    1.426742 S    
N2    C8    1.360976 A    
C11   C13   1.417541 A    
O4    Zn2   1.986613 S    
O2    Zn2   1.986612 S    
O7    C4    1.288609 A    
N10   O20   1.300889 A    
C59   H25   1.109024 S    
O8    C3    1.287348 A    
C35   H11   1.081592 S    
C22   C24   1.401021 A    
C32   C42   1.393306 A    
C14   C17   1.416275 A    
C6    N2    1.362087 A    
C46   C54   1.407855 A    
N14   C60   1.446048 S    
C49   N7    1.429662 S    
N5    H15   1.030607 S    
C45   C49   1.424267 A    
N15   O25   1.301174 A    
O8    Zn2   1.998868 S    
N11   O22   1.300873 A    
