data_mof_unit_pretest_1074.cif
_audit_creation_date              2013-03-05T16:45:51-0500
_audit_creation_method            fapswitch 2.2
_symmetry_space_group_name_H-M    P1
_symmetry_Int_Tables_number       1
_space_group_crystal_system       triclinic
_cell_length_a                    18.347499
_cell_length_b                    18.347829
_cell_length_c                    18.34754
_cell_angle_alpha                 59.973799
_cell_angle_beta                  59.978574
_cell_angle_gamma                 59.975922
_cell_volume                      4365.04728432

loop_
_atom_site_label
_atom_site_type_symbol
_atom_site_description
_atom_site_fract_x
_atom_site_fract_y
_atom_site_fract_z
_atom_type_partial_charge
Zn1   Zn    Zn3+2 0.206620 0.206630 0.380140 0.987062
Zn2   Zn    Zn3+2 0.793380 0.793370 0.619860 0.987062
Zn3   Zn    Zn3+2 0.206630 0.380140 0.206620 0.987066
Zn4   Zn    Zn3+2 0.793370 0.619860 0.793380 0.987065
Zn5   Zn    Zn3+2 0.380140 0.206620 0.206630 0.986908
Zn6   Zn    Zn3+2 0.619860 0.793380 0.793370 0.986907
Zn7   Zn    Zn3+2 0.206620 0.206620 0.206620 0.980404
Zn8   Zn    Zn3+2 0.793380 0.793380 0.793380 0.980405
O1    O     O_3   0.250000 0.250000 0.250000 -0.498803
O2    O     O_3   0.750000 0.750000 0.750000 -0.498804
O3    O     O_R   0.305080 0.134200 0.134200 -0.636588
O4    O     O_R   0.694920 0.865800 0.865800 -0.636587
O5    O     O_R   0.134200 0.134200 0.305080 -0.636339
O6    O     O_R   0.865800 0.865800 0.694920 -0.636339
O7    O     O_R   0.134200 0.305080 0.134200 -0.636457
O8    O     O_R   0.865800 0.694920 0.865800 -0.636455
O9    O     O_R   0.134200 0.305090 0.426530 -0.654147
O10   O     O_R   0.865800 0.694910 0.573470 -0.654147
O11   O     O_R   0.305090 0.426530 0.134200 -0.654126
O12   O     O_R   0.694910 0.573470 0.865800 -0.654126
O13   O     O_R   0.426530 0.134200 0.305090 -0.654279
O14   O     O_R   0.573470 0.865800 0.694910 -0.654280
O15   O     O_R   0.134190 0.426530 0.134200 -0.624837
O16   O     O_R   0.865810 0.573470 0.865800 -0.624838
O17   O     O_R   0.426530 0.134200 0.134190 -0.625053
O18   O     O_R   0.573470 0.865800 0.865810 -0.625054
O19   O     O_R   0.134200 0.134190 0.426530 -0.624893
O20   O     O_R   0.865800 0.865810 0.573470 -0.624892
O21   O     O_R   0.426530 0.305080 0.134210 -0.624936
O22   O     O_R   0.573470 0.694920 0.865790 -0.624935
O23   O     O_R   0.305080 0.134210 0.426530 -0.624922
O24   O     O_R   0.694920 0.865790 0.573470 -0.624922
O25   O     O_R   0.134210 0.426530 0.305080 -0.625000
O26   O     O_R   0.865790 0.573470 0.694920 -0.625000
C1    C     C_R   0.389866 0.110157 0.110155 0.787736
C2    C     C_R   0.610134 0.889843 0.889844 0.787735
C3    C     C_R   0.110164 0.110151 0.389865 0.787793
C4    C     C_R   0.889836 0.889849 0.610135 0.787793
C5    C     C_R   0.110156 0.389865 0.110160 0.787713
C6    C     C_R   0.889844 0.610135 0.889840 0.787713
C7    C     C_R   0.110853 0.390396 0.389767 0.813389
C8    C     C_R   0.889147 0.609604 0.610233 0.813388
C9    C     C_R   0.390394 0.389767 0.110856 0.813434
C10   C     C_R   0.609606 0.610233 0.889144 0.813435
C11   C     C_R   0.389765 0.110856 0.390395 0.813303
C12   C     C_R   0.610235 0.889144 0.609605 0.813304
H1    H     H_    0.810201 0.284921 0.536087 0.144957
H2    H     H_    0.189797 0.715081 0.463915 0.144959
H3    H     H_    0.285253 0.535227 0.809841 0.145042
H4    H     H_    0.714746 0.464775 0.190160 0.145041
H5    H     H_    0.539211 0.811227 0.283850 0.145056
H6    H     H_    0.460783 0.188772 0.716150 0.145055
C13   C     C_R   0.180785 0.926642 0.401418 -0.112998
C14   C     C_R   0.819214 0.073358 0.598584 -0.112995
C15   C     C_R   0.926481 0.401863 0.180972 -0.112758
C16   C     C_R   0.073518 0.598135 0.819028 -0.112758
C17   C     C_R   0.399803 0.180246 0.927191 -0.113793
C18   C     C_R   0.600190 0.819753 0.072809 -0.113788
C19   C     C_R   0.215840 0.837769 0.406359 -0.111015
C20   C     C_R   0.784158 0.162233 0.593643 -0.111013
C21   C     C_R   0.837511 0.407039 0.216129 -0.111069
C22   C     C_R   0.162488 0.592960 0.783872 -0.111070
C23   C     C_R   0.403897 0.215023 0.838612 -0.111450
C24   C     C_R   0.596095 0.784976 0.161388 -0.111450
C25   C     C_R   0.162254 0.784242 0.459827 -0.133771
C26   C     C_R   0.837745 0.215759 0.540174 -0.133767
C27   C     C_R   0.783977 0.460512 0.162543 -0.133675
C28   C     C_R   0.216022 0.539489 0.837458 -0.133675
C29   C     C_R   0.457339 0.161437 0.785095 -0.133497
C30   C     C_R   0.542656 0.838563 0.214905 -0.133501
C31   C     C_R   0.073336 0.819302 0.508645 -0.150504
C32   C     C_R   0.926663 0.180698 0.491355 -0.150502
C33   C     C_R   0.819125 0.509097 0.073524 -0.150715
C34   C     C_R   0.180874 0.490904 0.926477 -0.150717
C35   C     C_R   0.506986 0.072802 0.819867 -0.150723
C36   C     C_R   0.493013 0.927198 0.180132 -0.150724
C37   C     C_R   0.035848 0.909699 0.504157 0.075222
C38   C     C_R   0.964152 0.090301 0.495843 0.075218
C39   C     C_R   0.909607 0.504385 0.035947 0.075034
C40   C     C_R   0.090393 0.495615 0.964053 0.075034
C41   C     C_R   0.503321 0.035566 0.909993 0.075199
C42   C     C_R   0.496679 0.964435 0.090006 0.075201
C43   C     C_R   0.090342 0.964143 0.449765 0.080118
C44   C     C_R   0.909658 0.035857 0.550235 0.080116
C45   C     C_R   0.964057 0.449992 0.090439 0.080095
C46   C     C_R   0.035943 0.550007 0.909561 0.080095
C47   C     C_R   0.448941 0.090057 0.964435 0.080313
C48   C     C_R   0.551057 0.909943 0.035565 0.080313
C49   C     C_R   0.945942 0.945981 0.553976 -0.138581
C50   C     C_R   0.054058 0.054018 0.446024 -0.138581
C51   C     C_R   0.945977 0.553976 0.945944 -0.138542
C52   C     C_R   0.054022 0.446024 0.054056 -0.138543
C53   C     C_R   0.553971 0.945945 0.945980 -0.138785
C54   C     C_R   0.446028 0.054055 0.054019 -0.138786
H7    H     H_    0.285043 0.810221 0.368883 0.147532
H8    H     H_    0.714954 0.189782 0.631120 0.147529
H9    H     H_    0.809900 0.369737 0.285405 0.147308
H10   H     H_    0.190099 0.630262 0.714595 0.147308
H11   H     H_    0.365798 0.284022 0.811276 0.148005
H12   H     H_    0.634190 0.715976 0.188725 0.148004
H13   H     H_    0.215577 0.703156 0.070422 0.153952
H14   H     H_    0.784422 0.296844 0.929578 0.153952
H15   H     H_    0.703103 0.070433 0.215698 0.153930
H16   H     H_    0.296897 0.929567 0.784303 0.153929
H17   H     H_    0.070515 0.215725 0.703166 0.153949
H18   H     H_    0.929485 0.784274 0.296834 0.153950
C55   C     C_R   0.216752 0.630187 0.205202 -0.073692
C56   C     C_R   0.783248 0.369813 0.794797 -0.073693
C57   C     C_R   0.630105 0.205211 0.216859 -0.073579
C58   C     C_R   0.369896 0.794790 0.783141 -0.073577
C59   C     C_R   0.205298 0.216863 0.630147 -0.073827
C60   C     C_R   0.794702 0.783137 0.369852 -0.073825
H19   H     H_    0.281468 0.631202 0.189535 0.201609
H20   H     H_    0.718531 0.368797 0.810464 0.201610
H21   H     H_    0.631082 0.189543 0.281594 0.201551
H22   H     H_    0.368920 0.810458 0.718405 0.201550
H23   H     H_    0.189663 0.281577 0.631148 0.201550
H24   H     H_    0.810336 0.718424 0.368850 0.201550
C61   C     C_R   0.170418 0.588444 0.292686 -0.223039
C62   C     C_R   0.829582 0.411556 0.707314 -0.223039
C63   C     C_R   0.588372 0.292693 0.170503 -0.222981
C64   C     C_R   0.411629 0.707307 0.829497 -0.222979
C65   C     C_R   0.292760 0.170509 0.588389 -0.223393
C66   C     C_R   0.707240 0.829492 0.411610 -0.223394
H25   H     H_    0.199973 0.557862 0.344033 0.150619
H26   H     H_    0.800027 0.442138 0.655966 0.150619
H27   H     H_    0.557757 0.344041 0.200059 0.150635
H28   H     H_    0.442245 0.655960 0.799940 0.150634
H29   H     H_    0.344126 0.200042 0.557781 0.150526
H30   H     H_    0.655874 0.799959 0.442217 0.150527
C67   C     C_R   0.086747 0.585535 0.314166 0.008980
C68   C     C_R   0.913253 0.414464 0.685834 0.008980
C69   C     C_R   0.585517 0.314172 0.086806 0.008977
C70   C     C_R   0.414483 0.685828 0.913195 0.008978
C71   C     C_R   0.314196 0.086838 0.585508 0.009117
C72   C     C_R   0.685804 0.913162 0.414492 0.009116
C73   C     C_R   0.049038 0.625329 0.245945 0.352240
C74   C     C_R   0.950962 0.374671 0.754055 0.352241
C75   C     C_R   0.625352 0.245951 0.049094 0.352220
C76   C     C_R   0.374647 0.754048 0.950906 0.352219
C77   C     C_R   0.245954 0.049152 0.625345 0.352214
C78   C     C_R   0.754046 0.950848 0.374656 0.352215
C79   C     C_R   0.096632 0.668232 0.158312 -0.194283
C80   C     C_R   0.903368 0.331768 0.841688 -0.194283
C81   C     C_R   0.668241 0.158320 0.096712 -0.194360
C82   C     C_R   0.331758 0.841680 0.903289 -0.194360
C83   C     C_R   0.158344 0.096769 0.668257 -0.194367
C84   C     C_R   0.841656 0.903231 0.331744 -0.194367
H31   H     H_    0.070067 0.699073 0.104713 0.187055
H32   H     H_    0.929933 0.300927 0.895287 0.187055
H33   H     H_    0.699110 0.104720 0.070147 0.187059
H34   H     H_    0.300889 0.895279 0.929855 0.187059
H35   H     H_    0.104729 0.070221 0.699129 0.187052
H36   H     H_    0.895271 0.929778 0.300873 0.187052
C85   C     C_R   0.179713 0.670479 0.138248 -0.153037
C86   C     C_R   0.820287 0.329521 0.861751 -0.153038
C87   C     C_R   0.670436 0.138258 0.179817 -0.152985
C88   C     C_R   0.329564 0.861742 0.820183 -0.152983
C89   C     C_R   0.138324 0.179847 0.670477 -0.152934
C90   C     C_R   0.861676 0.820153 0.329523 -0.152934
C91   C     C_R   0.986271 0.591486 0.464156 -0.244632
C92   C     C_R   0.013728 0.408514 0.535844 -0.244631
C93   C     C_R   0.591480 0.464158 0.986294 -0.244514
C94   C     C_R   0.408520 0.535842 0.013706 -0.244516
C95   C     C_R   0.464173 0.986314 0.591474 -0.244900
C96   C     C_R   0.535827 0.013686 0.408526 -0.244899
H37   H     H_    0.977327 0.662115 0.436164 0.166445
H38   H     H_    0.022672 0.337885 0.563836 0.166445
H39   H     H_    0.662105 0.436169 0.977365 0.166433
H40   H     H_    0.337895 0.563831 0.022635 0.166433
H41   H     H_    0.436196 0.977403 0.662093 0.166362
H42   H     H_    0.563804 0.022597 0.337907 0.166362
C97   C     C_R   0.944666 0.552484 0.555050 -0.016405
C98   C     C_R   0.055334 0.447516 0.444950 -0.016405
C99   C     C_R   0.552487 0.555048 0.944660 -0.016451
C100  C     C_R   0.447513 0.444952 0.055340 -0.016450
C101  C     C_R   0.555051 0.944662 0.552485 -0.016272
C102  C     C_R   0.444949 0.055338 0.447515 -0.016272
C103  C     C_R   0.958713 0.459694 0.591442 0.077013
C104  C     C_R   0.041287 0.540306 0.408558 0.077012
C105  C     C_R   0.459703 0.591438 0.958682 0.076985
C106  C     C_R   0.540297 0.408562 0.041318 0.076987
C107  C     C_R   0.591428 0.958665 0.459708 0.077005
C108  C     C_R   0.408572 0.041335 0.540292 0.077004
H43   H     H_    0.225558 0.965153 0.359803 0.128120
H44   H     H_    0.774441 0.034848 0.640199 0.128120
H45   H     H_    0.965014 0.360239 0.225730 0.127865
H46   H     H_    0.034986 0.639758 0.774270 0.127864
H47   H     H_    0.358221 0.225055 0.965655 0.128737
H48   H     H_    0.641768 0.774943 0.034347 0.128733
H49   H     H_    0.034782 0.774573 0.550185 0.128880
H50   H     H_    0.965218 0.225427 0.449815 0.128880
H51   H     H_    0.774406 0.550634 0.034953 0.128761
H52   H     H_    0.225592 0.449368 0.965048 0.128763
H53   H     H_    0.548517 0.034289 0.775107 0.129614
H54   H     H_    0.451483 0.965711 0.224892 0.129615
N1    N     N_R   0.964580 0.622168 0.263226 0.180437
O27   O     O_R   0.932192 0.561574 0.332246 -0.428438
O28   O     O_R   0.922400 0.676240 0.205807 -0.411056
N2    N     N_R   0.035420 0.377832 0.736774 0.180437
O29   O     O_R   0.067809 0.438424 0.667752 -0.428440
O30   O     O_R   0.077598 0.323762 0.794195 -0.411056
N3    N     N_R   0.622242 0.263228 0.964613 0.180448
O31   O     O_R   0.561655 0.332235 0.932198 -0.428219
O32   O     O_R   0.676350 0.205816 0.922439 -0.410853
N4    N     N_R   0.377758 0.736771 0.035388 0.180447
O33   O     O_R   0.438347 0.667766 0.067800 -0.428217
O34   O     O_R   0.323647 0.794182 0.077563 -0.410854
N5    N     N_R   0.263191 0.964691 0.622224 0.180470
O35   O     O_R   0.332168 0.932290 0.561621 -0.428299
O36   O     O_R   0.205772 0.922523 0.676346 -0.410727
N6    N     N_R   0.736809 0.035309 0.377777 0.180471
O37   O     O_R   0.667832 0.067710 0.438379 -0.428299
O38   O     O_R   0.794229 0.077475 0.323657 -0.410727

loop_
_geom_bond_atom_site_label_1
_geom_bond_atom_site_label_2
_geom_bond_distance
_ccdc_geom_bond_type
C95   H41   1.084202 S    
C21   H9    1.082898 S    
N3    O31   1.300745 A    
C34   H52   1.081807 S    
C96   H42   1.084202 S    
C42   C54   1.414795 A    
H3    C28   1.082827 S    
C33   H51   1.081808 S    
Zn2   O10   1.938693 S    
C95   C101  1.397979 A    
C56   C62   1.393378 A    
C28   C34   1.393687 A    
C94   H40   1.084199 S    
O26   C8    1.274578 A    
C10   C99   1.456904 S    
C78   N6    1.443962 S    
C7    C98   1.456946 S    
C83   C89   1.395338 A    
C14   C44   1.417490 A    
C13   C19   1.393459 A    
Zn3   O25   1.938705 S    
C14   C20   1.393474 A    
C38   C50   1.414566 A    
Zn7   O3    1.938412 S    
N3    O32   1.301723 A    
C4    C49   1.455892 S    
C37   C49   1.414563 A    
C19   H7    1.082764 S    
C3    C50   1.455892 S    
C67   C73   1.422989 A    
O19   C3    1.276723 A    
C60   C66   1.393386 A    
C58   H22   1.080797 S    
C46   C51   1.414675 A    
O10   C8    1.284464 A    
C70   C76   1.422983 A    
Zn4   O16   1.938989 S    
C62   H26   1.083566 S    
C15   C45   1.417592 A    
C59   H23   1.080798 S    
C97   C103  1.416393 A    
C68   C74   1.422991 A    
Zn6   O14   1.938551 S    
C47   C54   1.414782 A    
Zn1   O23   1.938568 S    
C41   C53   1.414796 A    
Zn2   O24   1.938570 S    
C84   C90   1.395338 A    
C56   H20   1.080788 S    
N1    O28   1.301723 A    
C59   C89   1.393246 A    
C64   C70   1.403712 A    
C40   C46   1.413068 A    
C94   C105  1.385990 A    
C36   H54   1.081733 S    
O16   C6    1.276713 A    
C22   H10   1.082895 S    
C42   C48   1.413062 A    
Zn3   O15   1.938991 S    
C2    C53   1.455942 S    
C26   C32   1.393509 A    
C16   H46   1.081853 S    
N2    O29   1.300744 A    
C18   H48   1.081775 S    
C79   H31   1.082390 S    
C32   C38   1.417446 A    
Zn3   O11   1.938658 S    
C27   C33   1.393690 A    
H5    C30   1.082801 S    
C15   H45   1.081856 S    
H2    C25   1.082686 S    
O4    C2    1.276903 A    
C60   C90   1.393246 A    
H4    C27   1.082828 S    
H6    C29   1.082806 S    
H1    C26   1.082696 S    
O5    C3    1.276864 A    
C58   C88   1.393247 A    
C99   C105  1.416393 A    
O24   C12   1.274594 A    
Zn7   O7    1.938251 S    
C73   C79   1.408429 A    
C94   C100  1.397992 A    
C20   C26   1.389413 A    
Zn8   O8    1.938253 S    
C34   C40   1.417566 A    
C65   H29   1.083565 S    
C93   C106  1.385990 A    
C64   H28   1.083564 S    
C12   C101  1.456836 S    
O22   C10   1.274583 A    
C84   H36   1.082392 S    
C71   C108  1.480747 S    
C93   H39   1.084199 S    
C96   C102  1.397978 A    
C55   C61   1.393379 A    
O12   C10   1.284483 A    
C45   C52   1.414680 A    
O11   C9    1.284482 A    
C93   C99   1.397992 A    
C17   C23   1.393577 A    
O13   C11   1.284483 A    
H16   C88   1.081564 S    
C18   C24   1.393571 A    
Zn4   O26   1.938703 S    
O9    C7    1.284462 A    
C66   C72   1.403710 A    
C59   C65   1.393387 A    
C23   C29   1.389338 A    
Zn1   O1    1.949007 S    
C36   C42   1.417652 A    
O17   C1    1.276726 A    
C77   C83   1.408417 A    
N4    O33   1.300745 A    
C35   C41   1.417651 A    
C17   H47   1.081778 S    
C25   C31   1.393485 A    
C80   H32   1.082391 S    
C61   C67   1.403705 A    
C37   C43   1.413083 A    
C17   C47   1.417700 A    
C18   C48   1.417688 A    
C80   C86   1.395346 A    
C40   C52   1.414683 A    
C100  C106  1.416394 A    
Zn5   O1    1.949043 S    
Zn3   O1    1.948982 S    
C78   C84   1.408418 A    
O6    C4    1.276866 A    
C91   C97   1.397996 A    
C9    C100  1.456904 S    
C21   C27   1.389443 A    
C16   C46   1.417588 A    
C56   C86   1.393244 A    
C71   C77   1.422984 A    
C14   H44   1.081833 S    
Zn8   O4    1.938413 S    
N5    O35   1.300749 A    
C13   H43   1.081833 S    
C66   H30   1.083563 S    
C91   H37   1.084197 S    
C91   C104  1.386009 A    
O7    C5    1.276857 A    
C92   C103  1.386009 A    
C81   H33   1.082393 S    
C72   C78   1.422984 A    
C11   C102  1.456836 S    
O8    C6    1.276856 A    
C92   H38   1.084197 S    
C20   H8    1.082787 S    
O18   C2    1.276725 A    
O14   C12   1.284482 A    
C73   N1    1.443967 S    
C69   C75   1.422985 A    
C24   C30   1.389336 A    
C30   C36   1.393613 A    
C82   H34   1.082394 S    
C44   C49   1.414574 A    
C70   C105  1.480758 S    
C76   C82   1.408421 A    
Zn2   O2    1.949004 S    
Zn5   O21   1.938627 S    
C77   N5    1.443963 S    
C5    C52   1.455822 S    
C31   C37   1.417442 A    
C61   H25   1.083565 S    
C58   C64   1.393389 A    
C1    C54   1.455944 S    
Zn7   O1    1.949950 S    
C43   C50   1.414567 A    
C48   C53   1.414778 A    
C75   C81   1.408422 A    
Zn8   O6    1.938344 S    
C57   C87   1.393244 A    
Zn6   O22   1.938626 S    
C62   C68   1.403705 A    
C95   C108  1.385960 A    
C39   C51   1.414684 A    
H15   C87   1.081564 S    
C96   C107  1.385960 A    
N6    O38   1.301722 A    
C33   C39   1.417566 A    
C8    C97   1.456948 S    
C76   N4    1.443954 S    
C31   H49   1.081788 S    
Zn5   O17   1.939123 S    
Zn2   O20   1.939070 S    
C67   C104  1.480746 S    
C63   H27   1.083563 S    
Zn6   O18   1.939120 S    
C92   C98   1.397996 A    
C55   C85   1.393245 A    
C23   H11   1.082899 S    
C81   C87   1.395335 A    
C98   C104  1.416392 A    
Zn1   O9    1.938694 S    
C22   C28   1.389442 A    
C79   C85   1.395345 A    
C13   C43   1.417472 A    
O25   C7    1.274577 A    
O3    C1    1.276902 A    
C24   H12   1.082888 S    
C101  C107  1.416376 A    
C19   C25   1.389411 A    
C60   H24   1.080798 S    
C41   C47   1.413066 A    
C57   C63   1.393389 A    
H17   C89   1.081562 S    
C74   C80   1.408428 A    
H18   C90   1.081560 S    
C15   C21   1.393664 A    
C72   C107  1.480746 S    
C82   C88   1.395337 A    
N5    O36   1.301726 A    
C39   C45   1.413068 A    
C29   C35   1.393625 A    
C16   C22   1.393662 A    
C6    C51   1.455822 S    
H14   C86   1.081574 S    
N1    O27   1.300741 A    
C83   H35   1.082392 S    
C102  C108  1.416377 A    
Zn6   O2    1.949044 S    
C57   H21   1.080798 S    
C68   C103  1.480746 S    
Zn4   O12   1.938656 S    
C38   C44   1.413083 A    
C69   C106  1.480757 S    
Zn7   O5    1.938342 S    
Zn5   O13   1.938548 S    
N6    O37   1.300743 A    
Zn8   O2    1.949948 S    
O23   C11   1.274594 A    
C65   C71   1.403708 A    
Zn1   O19   1.939069 S    
H13   C85   1.081574 S    
C55   H19   1.080787 S    
C75   N3    1.443956 S    
C63   C69   1.403711 A    
O20   C4    1.276724 A    
N4    O34   1.301724 A    
Zn4   O2    1.948985 S    
O15   C5    1.276715 A    
C32   H50   1.081790 S    
N2    O30   1.301722 A    
O21   C9    1.274583 A    
C35   H53   1.081734 S    
C74   N2    1.443969 S    
