data_mof_unit_pretest_1943.cif
_audit_creation_date              2012-12-10T21:20:47-0500
_audit_creation_method            fapswitch 2.2
_symmetry_space_group_name_H-M    P1
_symmetry_Int_Tables_number       1
_space_group_crystal_system       triclinic
_cell_length_a                    17.467404
_cell_length_b                    16.922917
_cell_length_c                    19.243538
_cell_angle_alpha                 90.006227
_cell_angle_beta                  91.760089
_cell_angle_gamma                 89.997887
_cell_volume                      5685.69500167

loop_
_atom_site_label
_atom_site_type_symbol
_atom_type_description
_atom_site_fract_x
_atom_site_fract_y
_atom_site_fract_z
_atom_type_partial_charge
C1    C     C_R   0.353917 0.500001 0.500252 0.871256
C2    C     C_R   0.646085 0.499998 0.499734 0.871308
C3    C     C_R   0.727863 0.499992 0.499443 0.010765
C4    C     C_R   0.272147 0.500000 0.500549 0.011005
C5    C     C_R   0.885479 0.499965 0.499572 0.154608
C6    C     C_R   0.114538 0.499967 0.500455 0.154125
C7    C     C_1   0.966040 0.499959 0.499833 -0.079731
C8    C     C_1   0.033977 0.499960 0.500210 -0.079728
C9    C     C_R   0.439286 0.833904 0.470757 -0.299345
C10   C     C_R   0.561206 0.166296 0.529101 -0.299552
C11   C     C_R   0.561192 0.833706 0.529129 -0.299552
C12   C     C_R   0.439261 0.166092 0.470800 -0.299352
C13   C     C_R   0.439535 0.750111 0.470783 0.102366
C14   C     C_R   0.560548 0.250097 0.529331 0.102667
C15   C     C_R   0.560532 0.749905 0.529361 0.102667
C16   C     C_R   0.439512 0.249885 0.470822 0.102371
C17   C     C_R   0.500352 0.876635 0.499854 0.132308
C18   C     C_R   0.500347 0.123364 0.499860 0.132314
C19   C     C_1   0.500449 0.963758 0.499855 -0.038914
C20   C     C_1   0.500447 0.036241 0.499857 -0.038915
C21   C     C_R   0.501990 0.499996 0.365473 0.856999
C22   C     C_R   0.497440 0.500003 0.634451 0.857780
C23   C     C_R   0.506723 0.571549 0.253350 -0.206855
C24   C     C_R   0.481892 0.428420 0.745451 -0.207628
C25   C     C_R   0.481861 0.571597 0.745458 -0.207633
C26   C     C_R   0.506625 0.428432 0.253333 -0.206869
C27   C     C_R   0.502566 0.571666 0.181326 -0.172259
C28   C     C_R   0.475480 0.428337 0.817044 -0.170640
C29   C     C_R   0.475455 0.571685 0.817052 -0.170638
C30   C     C_R   0.502459 0.428320 0.181309 -0.172243
C31   C     C_R   0.498441 0.499997 0.144881 0.091488
C32   C     C_R   0.474104 0.500012 0.853492 0.090938
C33   C     C_R   0.505329 0.499991 0.289845 -0.028519
C34   C     C_R   0.488001 0.500008 0.709477 -0.029871
C35   C     C_R   0.475529 0.500020 0.929293 0.284765
C36   C     C_R   0.489893 0.500006 0.069275 0.284729
C37   C     C_R   0.848449 0.500011 0.562768 -0.196005
C38   C     C_R   0.155759 0.499922 0.563784 -0.164940
C39   C     C_R   0.151549 0.500027 0.437250 -0.195937
C40   C     C_R   0.844273 0.499931 0.436235 -0.164141
C41   C     C_R   0.769121 0.500022 0.562626 -0.163126
C42   C     C_R   0.235170 0.499938 0.563834 -0.228054
C43   C     C_R   0.230879 0.500040 0.437368 -0.162424
C44   C     C_R   0.764860 0.499944 0.436168 -0.227830
H1    H     H_    0.510906 0.627445 0.280166 0.145800
H2    H     H_    0.481793 0.372435 0.718568 0.145948
H3    H     H_    0.481733 0.627578 0.718580 0.145932
H4    H     H_    0.510742 0.372529 0.280134 0.145771
H5    H     H_    0.501836 0.627877 0.154430 0.147573
H6    H     H_    0.472892 0.372125 0.843754 0.147591
H7    H     H_    0.472834 0.627896 0.843768 0.147582
H8    H     H_    0.501653 0.372111 0.154399 0.147567
H9    H     H_    0.880728 0.500036 0.611770 0.128045
H10   H     H_    0.126599 0.499876 0.612686 0.133759
H11   H     H_    0.119253 0.500060 0.388257 0.128034
H12   H     H_    0.873446 0.499895 0.387340 0.133384
H13   H     H_    0.739847 0.500050 0.611459 0.141410
H14   H     H_    0.267682 0.499901 0.612713 0.131224
H15   H     H_    0.260136 0.500077 0.388521 0.141273
H16   H     H_    0.732363 0.499917 0.387282 0.129878
H17   H     H_    0.391128 0.865708 0.447345 0.148996
H18   H     H_    0.609403 0.134643 0.552612 0.148927
H19   H     H_    0.609375 0.865360 0.552665 0.148930
H20   H     H_    0.391088 0.134285 0.447414 0.148988
N1    N     N_R   0.485514 0.430959 0.033725 -0.184857
N2    N     N_R   0.479033 0.569069 0.964906 -0.184721
N3    N     N_R   0.478646 0.430966 0.964903 -0.184725
N4    N     N_R   0.485901 0.569063 0.033726 -0.184857
N5    N     N_R   0.500000 0.707230 0.500000 -0.124772
N6    N     N_R   0.500000 0.292770 0.500000 -0.124772
O1    O     O_R   0.389110 0.566570 0.500000 -0.610700
O2    O     O_R   0.610890 0.433430 0.500000 -0.610478
O3    O     O_R   0.610890 0.566570 0.500000 -0.610490
O4    O     O_R   0.389110 0.433430 0.500000 -0.610660
O5    O     O_R   0.499990 0.566560 0.398140 -0.625556
O6    O     O_R   0.500010 0.433440 0.601860 -0.626628
O7    O     O_R   0.500010 0.566560 0.601860 -0.626620
O8    O     O_R   0.499990 0.433440 0.398140 -0.625586
Zn1   Zn    Zn3+2 0.500000 0.588860 0.500000 0.949526
Zn2   Zn    Zn3+2 0.500000 0.411140 0.500000 0.949525
C45   C     C_R   0.372378 0.712660 0.436889 0.173318
C46   C     C_R   0.374442 0.691597 0.366601 -0.117107
C47   C     C_R   0.307511 0.668555 0.330433 -0.175877
C48   C     C_R   0.237561 0.669078 0.363764 -0.129903
C49   C     C_R   0.234733 0.691360 0.433606 -0.121431
C50   C     C_R   0.301844 0.713301 0.470093 -0.152536
H21   H     H_    0.427164 0.696724 0.339269 0.118588
H22   H     H_    0.309582 0.652275 0.276131 0.139319
H23   H     H_    0.185581 0.652082 0.335564 0.128154
H24   H     H_    0.180514 0.691881 0.459361 0.138555
H25   H     H_    0.298739 0.732430 0.523649 0.123596
C51   C     C_R   0.627064 0.287803 0.564115 0.173177
C52   C     C_R   0.698387 0.286563 0.532275 -0.154082
C53   C     C_R   0.764722 0.308976 0.569720 -0.121227
C54   C     C_R   0.760333 0.332377 0.639164 -0.130697
C55   C     C_R   0.689596 0.333549 0.671143 -0.177805
C56   C     C_R   0.623416 0.310042 0.634049 -0.114373
H26   H     H_    0.702693 0.266618 0.479052 0.123866
H27   H     H_    0.819548 0.307971 0.545010 0.138401
H28   H     H_    0.811714 0.349765 0.668095 0.127926
H29   H     H_    0.686312 0.350762 0.725139 0.138543
H30   H     H_    0.570003 0.305695 0.660450 0.119577
C57   C     C_R   0.627029 0.712201 0.564176 0.173163
C58   C     C_R   0.698372 0.713430 0.532374 -0.154052
C59   C     C_R   0.764686 0.691024 0.569851 -0.121279
C60   C     C_R   0.760255 0.667637 0.639291 -0.130797
C61   C     C_R   0.689496 0.666478 0.671234 -0.177759
C62   C     C_R   0.623338 0.689983 0.634108 -0.114374
H31   H     H_    0.702711 0.733361 0.479154 0.123877
H32   H     H_    0.819528 0.692020 0.545170 0.138415
H33   H     H_    0.811619 0.650251 0.668247 0.127931
H34   H     H_    0.686180 0.649279 0.725227 0.138567
H35   H     H_    0.569910 0.694345 0.660482 0.119572
C63   C     C_R   0.372340 0.287332 0.436951 0.173280
C64   C     C_R   0.374402 0.308454 0.366683 -0.116948
C65   C     C_R   0.307473 0.331528 0.330533 -0.175976
C66   C     C_R   0.237521 0.330972 0.363860 -0.129778
C67   C     C_R   0.234692 0.308629 0.433682 -0.121315
C68   C     C_R   0.301804 0.286658 0.470153 -0.152663
H36   H     H_    0.427126 0.303347 0.339351 0.118576
H37   H     H_    0.309546 0.347859 0.276246 0.139312
H38   H     H_    0.185541 0.347991 0.335672 0.128150
H39   H     H_    0.180471 0.308084 0.459433 0.138518
H40   H     H_    0.298698 0.267484 0.523691 0.123594

loop_
_geom_bond_atom_site_label_1
_geom_bond_atom_site_label_2
_ccdc_geom_bond_type
N2    N4    A    
C59   H32   S    
C52   C53   A    
C23   H1    S    
C5    C37   A    
C40   H12   S    
C61   H34   S    
C54   C55   A    
C22   O6    A    
C42   H14   S    
O1    Zn1   S    
C63   C64   A    
C7    C8    T    
C68   H40   S    
C1    O1    A    
C13   N5    A    
C9    H17   S    
C1    O4    A    
C44   H16   S    
C38   C42   A    
C29   C32   A    
C11   H19   S    
C50   H25   S    
C31   C36   S    
C58   H31   S    
C12   H20   S    
C2    O2    A    
C21   C33   S    
C60   C61   A    
C64   C65   A    
C13   C45   S    
C65   C66   A    
C9    C13   A    
C67   C68   A    
C28   H6    S    
C39   H11   S    
C12   C16   A    
C23   C33   A    
C21   O8    A    
C61   C62   A    
C6    C38   A    
C57   C62   A    
C23   C27   A    
C25   H3    S    
C18   C20   S    
C56   H30   S    
C26   H4    S    
C25   C34   A    
C37   H9    S    
C47   H22   S    
O4    Zn2   S    
C55   H29   S    
C14   N6    A    
C10   H18   S    
C11   C15   A    
C15   N5    A    
C58   C59   A    
C51   C56   A    
C45   C46   A    
C60   H33   S    
O7    Zn1   S    
C25   C29   A    
C22   C34   S    
C64   H36   S    
C3    C44   A    
C65   H37   S    
N6    Zn2   S    
C32   C35   S    
O6    Zn2   S    
C28   C32   A    
C16   N6    A    
C48   C49   A    
C10   C14   A    
C5    C7    S    
C36   N1    A    
C39   C43   A    
C35   N2    A    
N1    N3    A    
C49   C50   A    
C27   C31   A    
C24   C34   A    
C62   H35   S    
C66   H38   S    
C26   C33   A    
C47   C48   A    
C38   H10   S    
C35   N3    A    
C55   C56   A    
O3    Zn1   S    
C45   C50   A    
C14   C51   S    
C2    O3    A    
C9    C17   A    
C26   C30   A    
N5    Zn1   S    
C48   H23   S    
C29   H7    S    
C30   H8    S    
C11   C17   A    
C54   H28   S    
C24   C28   A    
C22   O7    A    
C16   C63   S    
C6    C8    S    
C49   H24   S    
C36   N4    A    
C4    C43   A    
C43   H15   S    
C59   C60   A    
C21   O5    A    
C1    C4    S    
C24   H2    S    
C19   C20   T    
C2    C3    S    
C41   H13   S    
O2    Zn2   S    
C66   C67   A    
C30   C31   A    
C63   C68   A    
C4    C42   A    
C53   H27   S    
C10   C18   A    
C51   C52   A    
C17   C19   S    
O8    Zn2   S    
C67   H39   S    
C37   C41   A    
C53   C54   A    
C3    C41   A    
C27   H5    S    
C40   C44   A    
C46   C47   A    
C5    C40   A    
C12   C18   A    
C57   C58   A    
C6    C39   A    
C15   C57   S    
O5    Zn1   S    
C52   H26   S    
C46   H21   S    
