data_mof_unit_pretest_1605.cif
_audit_creation_date              2012-10-26T21:09:26-0400
_audit_creation_method            fapswitch 2.2
_symmetry_space_group_name_H-M    P1
_symmetry_Int_Tables_number       1
_space_group_crystal_system       triclinic
_cell_length_a                    16.030654
_cell_length_b                    14.769711
_cell_length_c                    11.728879
_cell_angle_alpha                 89.999975
_cell_angle_beta                  89.984319
_cell_angle_gamma                 90.000214
_cell_volume                      2777.02460534

loop_
_atom_site_label
_atom_site_type_symbol
_atom_type_description
_atom_site_fract_x
_atom_site_fract_y
_atom_site_fract_z
_atom_type_partial_charge
C1    C     C_R   0.340966 0.500000 0.499842 0.551435
C2    C     C_R   0.425002 0.047890 0.491554 -0.097542
C3    C     C_R   0.425002 0.952109 0.491553 -0.097543
C4    C     C_R   0.574998 0.047891 0.508447 -0.097543
C5    C     C_1   0.500000 0.802714 0.500000 0.150002
C6    C     C_1   0.500000 0.197286 0.500000 0.150002
C7    C     C_1   0.500007 0.500000 0.162001 0.005700
C8    C     C_1   0.499993 0.500000 0.837999 0.005700
C9    C     C_1   0.500003 0.500000 0.059754 -0.012208
C10   C     C_1   0.499997 0.500000 0.940246 -0.012208
C11   C     C_R   0.956001 0.583304 0.503056 0.032760
C12   C     C_R   0.659034 0.500000 0.500158 0.551435
C13   C     C_R   0.043998 0.416696 0.496947 0.032761
C14   C     C_R   0.043999 0.583302 0.496886 0.032761
C15   C     C_R   0.956000 0.416697 0.503117 0.032759
C16   C     C_R   0.912623 0.500001 0.506194 -0.054140
C17   C     C_R   0.087377 0.499998 0.493808 -0.054140
C18   C     C_1   0.822687 0.500001 0.503837 0.039792
C19   C     C_1   0.177313 0.499999 0.496164 0.039790
C20   C     C_2   0.090987 0.670390 0.499040 0.622485
C21   C     C_2   0.909013 0.329609 0.500965 0.622484
C22   C     C_2   0.909015 0.670391 0.500839 0.622480
C23   C     C_1   0.252155 0.499999 0.498136 0.053030
C24   C     C_2   0.090985 0.329609 0.499164 0.622482
C25   C     C_1   0.747845 0.500001 0.501865 0.053031
C26   C     C_R   0.500000 0.902864 0.499999 0.002491
C27   C     C_R   0.500000 0.097135 0.500000 0.002491
C28   C     C_R   0.500011 0.500000 0.283426 0.549432
C29   C     C_R   0.499989 0.500000 0.716574 0.549433
C30   C     C_R   0.574998 0.952110 0.508446 -0.097542
Cu1   Cu    Cu3+1 0.500000 0.589220 0.500000 1.044138
Cu2   Cu    Cu3+1 0.500000 0.410780 0.500000 1.044138
H1    H     H_    0.633832 0.083557 0.515070 0.133909
H2    H     H_    0.366168 0.916443 0.484930 0.133910
H3    H     H_    0.366167 0.083555 0.484931 0.133916
H4    H     H_    0.633833 0.916445 0.515069 0.133916
H5    H     H_    0.106754 0.792810 0.572254 0.350052
H6    H     H_    0.893247 0.207186 0.427757 0.350051
H7    H     H_    0.893253 0.792781 0.427542 0.350054
H8    H     H_    0.106749 0.207220 0.572463 0.350054
N1    N     N_1   0.500000 0.276710 0.500000 -0.180008
N2    N     N_1   0.500000 0.723290 0.500000 -0.180008
O1    O     O_R   0.380310 0.575320 0.500020 -0.483854
O2    O     O_R   0.070624 0.736755 0.579406 -0.653273
O3    O     O_2   0.852625 0.316135 0.569155 -0.490913
O4    O     O_R   0.929377 0.263241 0.420603 -0.653272
O5    O     O_2   0.852625 0.683897 0.569017 -0.490917
O6    O     O_R   0.929381 0.736722 0.420431 -0.653269
O7    O     O_2   0.147373 0.316102 0.430984 -0.490916
O8    O     O_R   0.070621 0.263279 0.579575 -0.653270
O9    O     O_R   0.619690 0.424680 0.499980 -0.483855
O10   O     O_R   0.619690 0.575320 0.499980 -0.483849
O11   O     O_R   0.380310 0.424680 0.500020 -0.483849
O12   O     O_R   0.500010 0.575340 0.337190 -0.488460
O13   O     O_R   0.499990 0.424660 0.662810 -0.488460
O14   O     O_R   0.499990 0.575340 0.662810 -0.488462
O15   O     O_R   0.500010 0.424660 0.337190 -0.488462
O16   O     O_2   0.147374 0.683866 0.430849 -0.490912

loop_
_geom_bond_atom_site_label_1
_geom_bond_atom_site_label_2
_ccdc_geom_bond_type
C2    H3    S    
C22   O6    S    
Cu2   N1    S    
Cu2   O9    S    
C26   C30   A    
C2    C27   A    
Cu1   N2    S    
C30   H4    S    
Cu1   O14   S    
C9    C10   S    
Cu1   O10   S    
Cu2   O13   S    
C19   C23   T    
C6    C27   S    
C13   C17   A    
C12   C25   S    
C5    N2    T    
C20   O2    S    
C4    C27   A    
H5    O2    S    
C2    C3    A    
Cu1   Cu2   S    
C28   O15   A    
C14   C17   A    
C18   C25   T    
Cu1   O1    S    
Cu2   O15   S    
H8    O8    S    
C8    C29   S    
C8    C10   T    
C12   O10   A    
C1    C23   S    
C21   O3    D    
C13   C15   A    
Cu1   O12   S    
C24   O8    S    
C11   C14   A    
C22   O5    D    
H6    O4    S    
C29   O14   A    
C20   O16   D    
C15   C16   A    
C14   C20   S    
Cu2   O11   S    
C15   C21   S    
C12   O9    A    
C11   C22   S    
C16   C18   S    
C21   O4    S    
C11   C16   A    
C24   O7    D    
C7    C9    T    
C1    O11   A    
C4    H1    S    
C28   O12   A    
C29   O13   A    
C3    H2    S    
C17   C19   S    
C1    O1    A    
C3    C26   A    
C4    C30   A    
C7    C28   S    
C5    C26   S    
C13   C24   S    
H7    O6    S    
C6    N1    T    
