data_mof_unit_pretest_581.cif
_audit_creation_date              2012-12-10T19:22:00-0500
_audit_creation_method            fapswitch 2.2
_symmetry_space_group_name_H-M    P1
_symmetry_Int_Tables_number       1
_space_group_crystal_system       triclinic
_cell_length_a                    8.746679
_cell_length_b                    17.740381
_cell_length_c                    16.565778
_cell_angle_alpha                 89.764853
_cell_angle_beta                  95.827788
_cell_angle_gamma                 94.066519
_cell_volume                      2550.76620941

loop_
_atom_site_label
_atom_site_type_symbol
_atom_type_description
_atom_site_fract_x
_atom_site_fract_y
_atom_site_fract_z
_atom_type_partial_charge
C1    C     C_R   0.496373 0.355266 0.499584 0.802993
C2    C     C_R   0.503624 0.644734 0.500416 0.802965
C3    C     C_1   0.500497 0.966256 0.499004 0.023538
C4    C     C_1   0.499412 0.033743 0.500987 0.023537
C5    C     C_R   0.614938 0.543506 0.834383 0.392998
C6    C     C_R   0.385068 0.456489 0.165619 0.393000
C7    C     C_R   0.607018 0.544645 0.748279 -0.088401
C8    C     C_R   0.392983 0.455354 0.251722 -0.088369
C9    C     C_R   0.396374 0.451141 0.739481 0.228391
C10   C     C_R   0.603627 0.548859 0.260518 0.228385
C11   C     C_R   0.392770 0.453165 0.826331 -0.054882
C12   C     C_R   0.607230 0.546834 0.173667 -0.054864
C13   C     C_R   0.504075 0.499692 0.873812 -0.018101
C14   C     C_R   0.495929 0.500304 0.126188 -0.018121
C15   C     C_1   0.503319 0.500861 0.963166 -0.003894
C16   C     C_1   0.496683 0.499134 0.036834 -0.003935
C17   C     C_R   0.204558 0.496243 0.480802 0.847266
C18   C     C_R   0.795443 0.503754 0.519197 0.847300
C19   C     C_2   0.040903 0.481606 0.474411 -0.104930
C20   C     C_2   0.959098 0.518397 0.525584 -0.104976
C21   C     C_R   0.582251 0.850927 0.563498 -0.233493
C22   C     C_R   0.417650 0.149077 0.436508 -0.233475
C23   C     C_R   0.586172 0.771896 0.567087 0.080447
C24   C     C_R   0.413758 0.228110 0.432920 0.080393
C25   C     C_R   0.507175 0.728018 0.501687 -0.142513
C26   C     C_R   0.492799 0.271982 0.498312 -0.142528
C27   C     C_R   0.428619 0.764157 0.435995 -0.303623
C28   C     C_R   0.571373 0.235839 0.563994 -0.303581
C29   C     C_R   0.428247 0.842946 0.433123 0.526082
C30   C     C_R   0.571720 0.157048 0.566864 0.526085
C31   C     C_R   0.503231 0.885755 0.498056 -0.010821
C32   C     C_R   0.496692 0.114244 0.501940 -0.010813
Cu1   Cu    Cu3+1 0.499990 0.499980 0.580420 0.899889
Cu2   Cu    Cu3+1 0.500010 0.500020 0.419580 0.899879
H1    H     H_    0.639217 0.886813 0.611622 0.159378
H2    H     H_    0.360647 0.113194 0.388391 0.159370
H3    H     H_    0.364422 0.731026 0.387415 0.160330
H4    H     H_    0.635603 0.268967 0.612565 0.160304
H5    H     H_    0.689949 0.580605 0.719186 0.147418
H6    H     H_    0.310044 0.419398 0.280815 0.147431
N1    N     N_R   0.499960 0.499970 0.701210 -0.213008
N2    N     N_R   0.500040 0.500030 0.298790 -0.213018
O1    O     O_R   0.499990 0.391240 0.567930 -0.586492
O2    O     O_R   0.500010 0.608760 0.432070 -0.586496
O3    O     O_R   0.500000 0.391270 0.432120 -0.585963
O4    O     O_R   0.500000 0.608730 0.567880 -0.585933
O5    O     O_R   0.274830 0.499990 0.552240 -0.607935
O6    O     O_R   0.725170 0.500010 0.447760 -0.607934
O7    O     O_R   0.274840 0.500020 0.416420 -0.594191
O8    O     O_R   0.725160 0.499980 0.583580 -0.594187
C33   C     C_3   0.975348 0.416392 0.417834 -0.428691
C34   C     C_3   0.925229 0.346015 0.465686 -0.336904
C35   C     C_3   0.850019 0.283219 0.409287 -0.823479
H7    H     H_    0.745316 0.302495 0.373841 0.261332
H8    H     H_    0.931797 0.266130 0.367047 0.252722
H9    H     H_    0.816170 0.233208 0.445668 0.251406
H10   H     H_    0.027860 0.324974 0.501378 0.205583
H11   H     H_    0.842044 0.359548 0.508797 0.219416
H12   H     H_    0.881082 0.433751 0.373423 0.233834
H13   H     H_    0.064441 0.399679 0.379440 0.180957
C36   C     C_3   0.024649 0.583619 0.582152 -0.428698
C37   C     C_3   0.074829 0.653980 0.534290 -0.336878
C38   C     C_3   0.149857 0.716819 0.590686 -0.823518
H14   H     H_    0.067906 0.733951 0.632808 0.252721
H15   H     H_    0.254450 0.697566 0.626256 0.261296
H16   H     H_    0.183855 0.766795 0.554293 0.251425
H17   H     H_    0.158145 0.640441 0.491254 0.219437
H18   H     H_    0.972250 0.674983 0.498513 0.205603
H19   H     H_    0.935536 0.600351 0.620522 0.180983
H20   H     H_    0.118889 0.566259 0.626578 0.233799
C39   C     C_3   0.671450 0.734149 0.639624 -0.367652
C40   C     C_3   0.774709 0.786815 0.699136 -0.401098
C41   C     C_3   0.855257 0.742218 0.767934 -0.832202
H21   H     H_    0.768790 0.716463 0.806256 0.294477
H22   H     H_    0.919580 0.696976 0.743823 0.245544
H23   H     H_    0.937505 0.780814 0.806378 0.243112
H24   H     H_    0.863156 0.818745 0.666317 0.228932
H25   H     H_    0.704005 0.827246 0.727075 0.223961
H26   H     H_    0.584491 0.703476 0.674392 0.216062
H27   H     H_    0.745753 0.692800 0.616098 0.190553
C42   C     C_3   0.328473 0.265865 0.360391 -0.367643
C43   C     C_3   0.225159 0.213211 0.300891 -0.401061
C44   C     C_3   0.144644 0.257816 0.232090 -0.832187
H28   H     H_    0.080410 0.303095 0.256194 0.245541
H29   H     H_    0.231120 0.283525 0.193745 0.294474
H30   H     H_    0.062322 0.219235 0.193668 0.243098
H31   H     H_    0.295815 0.172757 0.272953 0.223953
H32   H     H_    0.136694 0.181306 0.333722 0.228943
H33   H     H_    0.254208 0.307226 0.383925 0.190557
H34   H     H_    0.415432 0.296524 0.325611 0.216054
O9    O     O_3   0.344574 0.877951 0.370182 -0.579325
C45   C     C_3   0.425534 0.877148 0.300848 -0.345670
H35   H     H_    0.428995 0.818708 0.277448 0.156997
H36   H     H_    0.544391 0.904294 0.313207 0.159762
H37   H     H_    0.364152 0.910198 0.252366 0.191894
O10   O     O_3   0.655412 0.122036 0.629793 -0.579327
C46   C     C_3   0.574538 0.122880 0.699155 -0.345667
H38   H     H_    0.455642 0.095773 0.686835 0.159753
H39   H     H_    0.571189 0.181329 0.722553 0.156984
H40   H     H_    0.635921 0.089816 0.747626 0.191896
O11   O     O_3   0.726285 0.588755 0.880002 -0.590193
C47   C     C_3   0.867581 0.554729 0.882534 -0.371474
H41   H     H_    0.858684 0.496879 0.908836 0.161653
H42   H     H_    0.955207 0.589150 0.922376 0.188594
H43   H     H_    0.909347 0.553058 0.821357 0.158416
O12   O     O_3   0.273716 0.411238 0.120006 -0.590197
C48   C     C_3   0.132467 0.445314 0.117397 -0.371458
H44   H     H_    0.044821 0.410874 0.077589 0.188601
H45   H     H_    0.141456 0.503129 0.091015 0.161666
H46   H     H_    0.090669 0.447081 0.178561 0.158408
C49   C     C_3   0.283161 0.393968 0.691179 -0.342586
C50   C     C_3   0.318389 0.311110 0.706949 -0.397736
C51   C     C_3   0.217297 0.257302 0.648776 -0.849858
H47   H     H_    0.093697 0.262167 0.656538 0.257622
H48   H     H_    0.236690 0.270263 0.584959 0.250762
H49   H     H_    0.245978 0.198206 0.661717 0.246854
H50   H     H_    0.441490 0.304103 0.700228 0.229012
H51   H     H_    0.295767 0.293617 0.768512 0.236548
H52   H     H_    0.162677 0.403596 0.701323 0.144971
H53   H     H_    0.282040 0.400248 0.626708 0.260618
C52   C     C_3   0.716845 0.606029 0.308819 -0.342607
C53   C     C_3   0.681635 0.688890 0.293048 -0.397736
C54   C     C_3   0.782720 0.742693 0.351230 -0.849863
H54   H     H_    0.763290 0.729737 0.415044 0.250773
H55   H     H_    0.906323 0.737816 0.343486 0.257620
H56   H     H_    0.754068 0.801791 0.338282 0.246858
H57   H     H_    0.704279 0.706382 0.231489 0.236550
H58   H     H_    0.558530 0.695901 0.299759 0.229006
H59   H     H_    0.717959 0.599751 0.373290 0.260628
H60   H     H_    0.837328 0.596396 0.298677 0.144975
C55   C     C_3   0.267682 0.408905 0.869970 -0.391708
C56   C     C_3   0.329891 0.342645 0.921392 -0.311872
C57   C     C_3   0.200000 0.285126 0.940090 -0.834708
H61   H     H_    0.114213 0.312915 0.972634 0.266420
H62   H     H_    0.141670 0.259137 0.883211 0.240570
H63   H     H_    0.247968 0.239714 0.979191 0.243870
H64   H     H_    0.416169 0.313818 0.890308 0.195746
H65   H     H_    0.389096 0.363190 0.980136 0.255389
H66   H     H_    0.216624 0.448124 0.910241 0.195098
H67   H     H_    0.168042 0.387593 0.828100 0.195979
C58   C     C_3   0.732316 0.591095 0.130027 -0.391693
C59   C     C_3   0.670106 0.657355 0.078606 -0.311856
C60   C     C_3   0.799997 0.714873 0.059901 -0.834680
H68   H     H_    0.858335 0.740864 0.116778 0.240561
H69   H     H_    0.885782 0.687083 0.027355 0.266418
H70   H     H_    0.752030 0.760284 0.020800 0.243864
H71   H     H_    0.610890 0.636810 0.019863 0.255380
H72   H     H_    0.583834 0.686184 0.109692 0.195741
H73   H     H_    0.831959 0.612407 0.171896 0.195970
H74   H     H_    0.783377 0.551877 0.089755 0.195121

loop_
_geom_bond_atom_site_label_1
_geom_bond_atom_site_label_2
_ccdc_geom_bond_type
C36   H20   S    
C9    C49   S    
C60   H70   S    
C50   H51   S    
C38   H15   S    
O11   C47   S    
C10   N2    A    
C48   H45   S    
C41   H21   S    
C49   C50   S    
Cu2   N2    S    
C52   H60   S    
C10   C52   S    
C39   H26   S    
C46   H38   S    
C58   H73   S    
C54   H54   S    
C35   H7    S    
C2    O4    A    
C21   C31   A    
C40   H24   S    
C22   C32   A    
C37   H17   S    
C8    N2    A    
C50   H50   S    
C54   H55   S    
C27   C29   A    
O12   C48   S    
C56   H65   S    
C15   C16   T    
C53   H57   S    
C12   C58   S    
C47   H43   S    
C49   H52   S    
C20   C36   S    
C50   C51   S    
C40   H25   S    
C55   H67   S    
C17   C19   S    
C1    O1    A    
C19   C20   D    
C2    O2    A    
C56   C57   S    
C57   H63   S    
C30   O10   S    
C48   H44   S    
C5    C13   A    
C51   H49   S    
C42   H33   S    
C23   C25   A    
C38   H16   S    
Cu1   O4    S    
C41   H22   S    
C47   H41   S    
C39   H27   S    
C46   H39   S    
C58   H74   S    
C42   C43   S    
C35   H8    S    
C34   H11   S    
C5    O11   S    
C33   C34   S    
Cu1   O1    S    
C23   C39   S    
Cu2   O2    S    
C17   O7    A    
O9    C45   S    
C5    C7    A    
C54   H56   S    
C6    C8    A    
C56   H64   S    
C45   H37   S    
C3    C4    T    
C18   O6    A    
C49   H53   S    
C47   H42   S    
C24   C42   S    
C37   C38   S    
C59   H72   S    
C6    C14   A    
C44   H28   S    
C28   H4    S    
O10   C46   S    
C45   H36   S    
Cu1   Cu2   S    
C6    O12   S    
Cu2   O3    S    
C3    C31   S    
C9    C11   A    
C52   C53   S    
C4    C32   S    
C10   C12   A    
C42   H34   S    
C44   H29   S    
C12   C14   A    
C13   C15   S    
C1    C26   S    
Cu1   O5    S    
C48   H46   S    
C14   C16   S    
C33   H12   S    
C55   C56   S    
C29   O9    S    
C46   H40   S    
C34   C35   S    
C18   O8    A    
C51   H47   S    
C35   H9    S    
C36   H19   S    
C60   H69   S    
C52   H59   S    
Cu2   O7    S    
C9    N1    A    
C59   H71   S    
C17   O5    A    
C24   C26   A    
C40   C41   S    
C11   C55   S    
C18   C20   S    
C21   H1    S    
C25   C27   A    
C22   H2    S    
C26   C28   A    
C37   H18   S    
Cu1   N1    S    
C21   C23   A    
C60   H68   S    
Cu1   O8    S    
C39   C40   S    
C29   C31   A    
C58   C59   S    
C30   C32   A    
C11   C13   A    
C1    O3    A    
C57   H61   S    
C27   H3    S    
C43   H32   S    
C28   C30   A    
C45   H35   S    
C41   H23   S    
C2    C25   S    
C22   C24   A    
C7    N1    A    
C53   H58   S    
C36   C37   S    
C55   H66   S    
C34   H10   S    
C38   H14   S    
C19   C33   S    
C44   H30   S    
Cu2   O6    S    
C43   C44   S    
C57   H62   S    
C7    H5    S    
C59   C60   S    
C33   H13   S    
C8    H6    S    
C53   C54   S    
C43   H31   S    
C51   H48   S    
