data_mof_unit_pretest_1238.cif
_audit_creation_date              2012-10-26T19:09:28-0400
_audit_creation_method            fapswitch 2.2
_symmetry_space_group_name_H-M    P1
_symmetry_Int_Tables_number       1
_space_group_crystal_system       triclinic
_cell_length_a                    10.829117
_cell_length_b                    9.489558
_cell_length_c                    19.382957
_cell_angle_alpha                 90.551222
_cell_angle_beta                  89.98518
_cell_angle_gamma                 90.076667
_cell_volume                      1991.76713537

loop_
_atom_site_label
_atom_site_type_symbol
_atom_type_description
_atom_site_fract_x
_atom_site_fract_y
_atom_site_fract_z
_atom_type_partial_charge
C1    C     C_R   0.261979 0.499942 0.499886 0.540328
C2    C     C_R   0.064044 0.627487 0.494635 -0.145707
C3    C     C_R   0.871808 0.500087 0.500186 0.018608
C4    C     C_R   0.128192 0.499913 0.499813 0.018603
C5    C     C_R   0.411239 0.073663 0.465157 0.000560
C6    C     C_R   0.588763 0.926337 0.534841 0.000583
C7    C     C_R   0.588616 0.075293 0.534946 0.012455
C8    C     C_R   0.411386 0.924707 0.465052 0.012453
C9    C     C_R   0.445508 0.612535 0.254644 0.098063
C10   C     C_R   0.554437 0.387405 0.745353 0.098081
C11   C     C_R   0.446760 0.614632 0.746806 0.093436
C12   C     C_R   0.738021 0.500058 0.500114 0.540331
C13   C     C_R   0.553344 0.385403 0.253204 0.093422
C14   C     C_R   0.454274 0.617916 0.182098 0.108256
C15   C     C_R   0.545649 0.382004 0.817897 0.108253
C16   C     C_R   0.431746 0.604519 0.818956 0.102082
C17   C     C_R   0.568345 0.395508 0.181053 0.102085
C18   C     C_R   0.513990 0.508476 0.145554 0.029963
C19   C     C_R   0.485999 0.491480 0.854447 0.029987
C20   C     C_R   0.497491 0.497677 0.290559 0.004647
C21   C     C_R   0.502528 0.502314 0.709443 0.004638
C22   C     C_3   0.255259 0.688119 0.308592 -0.299293
C23   C     C_R   0.492530 0.494972 0.930340 0.382303
C24   C     C_3   0.744669 0.311726 0.691424 -0.299307
C25   C     C_3   0.497635 0.848238 0.707248 -0.286324
C26   C     C_3   0.502708 0.151735 0.292779 -0.286247
C27   C     C_3   0.490832 0.840556 0.126114 -0.302047
C28   C     C_3   0.508945 0.159361 0.873847 -0.302108
C29   C     C_3   0.235340 0.687679 0.862454 -0.284347
C30   C     C_3   0.764842 0.312605 0.137568 -0.284324
C31   C     C_R   0.507453 0.504956 0.069659 0.382257
C32   C     C_R   0.498547 0.499123 0.367161 0.583159
C33   C     C_R   0.501462 0.500876 0.632840 0.583127
C34   C     C_R   0.063689 0.372418 0.505112 -0.144514
C35   C     C_R   0.936310 0.627582 0.494887 -0.144516
C36   C     C_R   0.935956 0.372513 0.505364 -0.145704
Cu1   Cu    Cu3+1 0.500000 0.640660 0.500000 0.947735
Cu2   Cu    Cu3+1 0.500000 0.359340 0.500000 0.947724
H1    H     H_    0.111655 0.272759 0.509290 0.123677
H2    H     H_    0.200006 0.673856 0.260744 0.132507
H3    H     H_    0.214622 0.775637 0.339431 0.120614
H4    H     H_    0.250209 0.590474 0.339628 0.155819
H5    H     H_    0.606030 0.178334 0.726945 0.242822
H6    H     H_    0.799902 0.325963 0.739281 0.132522
H7    H     H_    0.749776 0.409366 0.660386 0.155826
H8    H     H_    0.785287 0.224184 0.660593 0.120584
H9    H     H_    0.320616 0.774630 0.726604 0.248338
H10   H     H_    0.519024 0.892027 0.759143 0.107821
H11   H     H_    0.462043 0.934430 0.674445 0.147587
H12   H     H_    0.888345 0.727241 0.490708 0.123671
H13   H     H_    0.584462 0.807536 0.684048 0.157809
H14   H     H_    0.679654 0.225588 0.273429 0.248329
H15   H     H_    0.481396 0.107876 0.240888 0.107787
H16   H     H_    0.415821 0.192329 0.315953 0.157812
H17   H     H_    0.538373 0.065619 0.325605 0.147629
H18   H     H_    0.321664 0.773532 0.164910 0.254304
H19   H     H_    0.531884 0.889731 0.173029 0.119374
H20   H     H_    0.443701 0.923373 0.095821 0.148508
H21   H     H_    0.565595 0.794670 0.093769 0.168204
H22   H     H_    0.678167 0.226291 0.835088 0.254306
H23   H     H_    0.887714 0.272915 0.509761 0.120430
H24   H     H_    0.467900 0.110231 0.826918 0.119393
H25   H     H_    0.434183 0.205284 0.906182 0.168204
H26   H     H_    0.556013 0.076501 0.904142 0.148497
H27   H     H_    0.388618 0.812943 0.843624 0.247812
H28   H     H_    0.189687 0.700407 0.811658 0.116430
H29   H     H_    0.195416 0.765405 0.899332 0.151250
H30   H     H_    0.215391 0.580138 0.881636 0.177209
H31   H     H_    0.611698 0.187133 0.156406 0.247829
H32   H     H_    0.810507 0.299959 0.188365 0.116420
H33   H     H_    0.784677 0.420166 0.118377 0.177186
H34   H     H_    0.112285 0.727085 0.490237 0.120432
H35   H     H_    0.804853 0.234921 0.100697 0.151261
H36   H     H_    0.340257 0.129182 0.437183 0.095970
H37   H     H_    0.659748 0.870818 0.562813 0.095965
H38   H     H_    0.659414 0.132111 0.562975 0.114843
H39   H     H_    0.340590 0.867888 0.437021 0.114848
H40   H     H_    0.393823 0.821583 0.273042 0.242829
N1    N     N_R   0.500000 0.852070 0.500000 -0.217404
N2    N     N_2   0.594384 0.262701 0.288379 -0.486328
N3    N     N_2   0.402621 0.733039 0.145106 -0.498403
N4    N     N_2   0.597222 0.266829 0.854885 -0.498413
N5    N     N_2   0.367174 0.710969 0.856818 -0.502256
N6    N     N_2   0.633032 0.289132 0.143203 -0.502222
N7    N     N_R   0.500000 0.147930 0.500000 -0.217409
N8    N     N_R   0.609808 0.481824 0.030965 -0.226241
N9    N     N_R   0.390174 0.518101 0.969034 -0.226287
N10   N     N_R   0.602531 0.476989 0.962516 -0.204141
N11   N     N_R   0.397451 0.522935 0.037482 -0.204129
N12   N     N_2   0.382213 0.721139 0.291759 -0.501899
N13   N     N_2   0.617693 0.278777 0.708236 -0.501875
N14   N     N_2   0.405841 0.737399 0.711643 -0.486297
O1    O     O_R   0.319640 0.618740 0.500000 -0.509313
O2    O     O_R   0.680360 0.381260 0.500000 -0.509314
O3    O     O_R   0.680360 0.618740 0.500000 -0.519555
O4    O     O_R   0.319640 0.381260 0.500000 -0.519545
O5    O     O_R   0.499980 0.618820 0.400140 -0.468602
O6    O     O_R   0.500020 0.381180 0.599860 -0.468585
O7    O     O_R   0.500020 0.618820 0.599860 -0.476551
O8    O     O_R   0.499980 0.381180 0.400140 -0.476588

loop_
_geom_bond_atom_site_label_1
_geom_bond_atom_site_label_2
_ccdc_geom_bond_type
C2    C35   A    
C26   H15   S    
H9    N14   S    
C14   C18   A    
C19   C23   S    
Cu2   O6    S    
C26   H17   S    
Cu1   O5    S    
C30   H33   S    
C6    H37   S    
C22   H4    S    
H40   N12   S    
C15   C19   A    
Cu1   N1    S    
C24   H7    S    
C29   N5    S    
C10   C15   A    
C1    O4    A    
N8    N10   A    
H27   N5    S    
C22   H3    S    
C21   C33   S    
C32   O5    A    
Cu1   O3    S    
C33   O6    A    
C5    H36   S    
C3    C12   S    
C29   H29   S    
H22   N4    S    
C11   N14   S    
C31   N11   A    
C8    N1    A    
C12   O3    A    
C5    N7    A    
C13   N2    S    
C31   N8    A    
C23   N9    A    
C12   O2    A    
C2    H34   S    
C26   H16   S    
C30   H32   S    
C15   N4    S    
C25   H11   S    
C10   C21   A    
C4    C34   A    
Cu2   N7    S    
C28   N4    S    
C34   H1    S    
C27   N3    S    
Cu2   O8    S    
C27   H19   S    
C30   H35   S    
C11   C21   A    
C16   N5    S    
H5    N13   S    
C32   O8    A    
C33   O7    A    
C2    C4    A    
C9    C14   A    
C25   H13   S    
Cu1   Cu2   S    
C29   H30   S    
C11   C16   A    
C9    C20   A    
C3    C35   A    
C22   H2    S    
Cu2   O2    S    
C35   H12   S    
C17   C18   A    
C22   N12   S    
Cu1   O1    S    
C25   H10   S    
C7    H38   S    
C28   H26   S    
C10   N13   S    
C23   N10   A    
N9    N11   A    
C8    H39   S    
C24   H6    S    
C36   H23   S    
C24   N13   S    
Cu1   O7    S    
C20   C32   S    
C25   N14   S    
C13   C20   A    
C27   H20   S    
C9    N12   S    
C5    C8    A    
C6    C7    A    
C13   C17   A    
C1    C4    S    
C24   H8    S    
C17   N6    S    
H31   N6    S    
C27   H21   S    
C6    N1    A    
C7    N7    A    
C3    C36   A    
C16   C19   A    
H18   N3    S    
C34   C36   A    
C30   N6    S    
C26   N2    S    
C29   H28   S    
C28   H25   S    
C1    O1    A    
Cu2   O4    S    
C18   C31   S    
C14   N3    S    
H14   N2    S    
C28   H24   S    
