data_mof_unit_pretest_1290.cif
_audit_creation_date              2012-12-11T15:36:36-0500
_audit_creation_method            fapswitch 2.2
_symmetry_space_group_name_H-M    P1
_symmetry_Int_Tables_number       1
_space_group_crystal_system       triclinic
_cell_length_a                    15.059297
_cell_length_b                    15.059807
_cell_length_c                    34.755576
_cell_angle_alpha                 91.534044
_cell_angle_beta                  91.539846
_cell_angle_gamma                 60.266322
_cell_volume                      6841.15643177

loop_
_atom_site_label
_atom_site_type_symbol
_atom_type_description
_atom_site_fract_x
_atom_site_fract_y
_atom_site_fract_z
_atom_type_partial_charge
C1    C     C_R   0.610310 0.304032 0.443521 0.545772
C2    C     C_R   0.723735 0.640716 0.173519 0.028333
C3    C     C_R   0.594428 0.146299 0.829193 0.027692
C4    C     C_R   0.698538 0.112397 0.837713 -0.018747
C5    C     C_R   0.738487 0.078788 0.874922 -0.032125
C6    C     C_R   0.554426 0.273319 0.777562 0.227554
C7    C     C_R   0.564333 0.286395 0.738497 -0.044828
C8    C     C_R   0.575520 0.211260 0.711174 -0.033073
C9    C     C_R   0.564655 0.128724 0.722756 -0.124884
C10   C     C_R   0.557312 0.113129 0.761842 0.270206
C11   C     C_R   0.557644 0.182792 0.789514 0.065907
C12   C     C_R   0.534232 0.208993 0.642017 -0.115136
C13   C     C_R   0.818039 0.608853 0.156893 -0.108155
C14   C     C_R   0.540711 0.228003 0.603207 0.273750
C15   C     C_R   0.681371 0.258154 0.620054 -0.200929
C16   C     C_R   0.675013 0.239004 0.658911 0.000451
C17   C     C_R   0.596587 0.219304 0.670323 0.013268
C18   C     C_R   0.613526 0.255457 0.592171 0.029056
C19   C     C_R   0.048413 0.738161 0.047885 0.556480
C20   C     C_R   0.745396 0.744338 0.063067 0.574966
C21   C     C_R   0.749728 0.042455 0.050500 0.539855
C22   C     C_R   0.018847 0.721347 0.940012 0.560817
C23   C     C_R   0.717278 0.729902 0.954957 0.554143
C24   C     C_R   0.822955 0.639281 0.120266 -0.145984
C25   C     C_R   0.721894 0.024016 0.941498 0.566634
C26   C     C_R   0.740048 0.532865 0.230530 0.047130
C27   C     C_R   0.732600 0.525968 0.270672 0.299881
C28   C     C_R   0.710886 0.610834 0.294704 0.093300
C29   C     C_R   0.700828 0.700032 0.279614 -0.087138
C30   C     C_R   0.703937 0.710410 0.240074 -0.020558
C31   C     C_R   0.723234 0.626773 0.215267 -0.068745
C32   C     C_R   0.576916 0.668208 0.344762 -0.013809
C33   C     C_R   0.592716 0.609375 0.449083 0.561744
C34   C     C_R   0.550585 0.674194 0.383177 -0.169744
C35   C     C_R   0.728939 0.574044 0.402154 -0.121590
C36   C     C_R   0.758994 0.570501 0.363587 0.264449
C37   C     C_R   0.681721 0.614601 0.334922 0.090269
C38   C     C_R   0.625313 0.624155 0.411612 -0.019417
C39   C     C_R   0.116813 0.723400 0.082155 -0.045548
C40   C     C_R   0.168926 0.626084 0.100088 0.006521
C41   C     C_R   0.194450 0.620159 0.139620 0.234783
C42   C     C_R   0.172123 0.709310 0.160720 0.032070
C43   C     C_R   0.136753 0.801477 0.141829 -0.081303
C44   C     C_R   0.302984 0.591727 0.442433 0.574966
C45   C     C_R   0.112198 0.809232 0.102373 -0.020894
C46   C     C_R   0.275318 0.674699 0.221360 -0.111133
C47   C     C_R   0.285248 0.661336 0.261126 -0.084715
C48   C     C_R   0.199958 0.682220 0.283038 0.017992
C49   C     C_R   0.103955 0.720175 0.265048 -0.048101
C50   C     C_R   0.094244 0.729874 0.224897 0.320867
C51   C     C_R   0.180484 0.707006 0.203025 0.064014
C52   C     C_R   0.191395 0.592130 0.342405 -0.005959
C53   C     C_R   0.207562 0.576797 0.382777 -0.018622
C54   C     C_R   0.263181 0.703693 0.386406 -0.156410
C55   C     C_R   0.604397 0.301630 0.554089 0.567003
C56   C     C_R   0.243400 0.721624 0.347394 -0.155453
C57   C     C_R   0.211785 0.664095 0.324843 0.030178
C58   C     C_R   0.251519 0.627653 0.404288 0.029871
C59   C     C_R   0.717100 0.110435 0.085447 -0.041393
C60   C     C_R   0.785917 0.138768 0.101799 -0.102193
C61   C     C_R   0.773096 0.178657 0.139026 -0.055685
C62   C     C_R   0.690067 0.193322 0.160678 -0.028286
C63   C     C_R   0.612593 0.177242 0.143628 -0.004158
C64   C     C_R   0.626014 0.135648 0.105568 0.005367
C65   C     C_R   0.629367 0.302707 0.221233 -0.029227
C66   C     C_R   0.588833 0.607894 0.558496 0.575254
C67   C     C_R   0.619936 0.305667 0.261402 -0.020528
C68   C     C_R   0.673802 0.216441 0.283006 -0.004725
C69   C     C_R   0.744457 0.125264 0.264910 -0.087618
C70   C     C_R   0.754204 0.120542 0.224890 0.273065
C71   C     C_R   0.694047 0.208161 0.202798 -0.037048
C72   C     C_R   0.741464 0.196263 0.349551 -0.133188
C73   C     C_R   0.727494 0.215027 0.388970 -0.120031
C74   C     C_R   0.546849 0.273404 0.380354 -0.153042
C75   C     C_R   0.559794 0.254238 0.340585 0.017180
C76   C     C_R   0.657854 0.219776 0.324838 0.050382
C77   C     C_R   0.297734 0.589264 0.551687 0.546473
C78   C     C_R   0.629422 0.257781 0.404522 0.016293
C79   C     C_R   0.692639 0.691254 0.919196 -0.046311
C80   C     C_R   0.764257 0.596540 0.903352 -0.108055
C81   C     C_R   0.755758 0.571916 0.864743 -0.022959
C82   C     C_R   0.675438 0.645450 0.841663 0.045764
C83   C     C_R   0.598750 0.737514 0.857989 0.295326
C84   C     C_R   0.606222 0.757516 0.897340 -0.114163
C85   C     C_R   0.612727 0.602615 0.779953 0.053627
C86   C     C_R   0.610689 0.599687 0.739745 -0.127788
C87   C     C_R   0.669321 0.628941 0.718641 0.020717
C88   C     C_R   0.733387 0.702036 0.099179 0.007424
C89   C     C_R   0.733074 0.659109 0.737544 -0.053648
C90   C     C_R   0.738191 0.661587 0.777849 -0.008148
C91   C     C_R   0.677123 0.633634 0.799317 0.010904
C92   C     C_R   0.738894 0.562415 0.652560 -0.017595
C93   C     C_R   0.722200 0.562481 0.612190 -0.029774
C94   C     C_R   0.548263 0.703113 0.620288 -0.113677
C95   C     C_R   0.564958 0.707948 0.659750 -0.014302
C96   C     C_R   0.658363 0.633406 0.676355 -0.013143
C97   C     C_R   0.622942 0.627527 0.596680 -0.000249
C98   C     C_R   0.075123 0.691615 0.903520 -0.074536
C99   C     C_R   0.636712 0.725806 0.113957 0.018679
C100  C     C_R   0.109522 0.753011 0.886485 0.301248
C101  C     C_R   0.141199 0.734301 0.848069 0.251787
C102  C     C_R   0.136238 0.655544 0.826621 -0.045499
C103  C     C_R   0.119074 0.584346 0.845746 0.221254
C104  C     C_R   0.089186 0.602726 0.884068 -0.161498
C105  C     C_R   0.212230 0.565213 0.765255 -0.104853
C106  C     C_R   0.220399 0.561161 0.725093 0.262740
C107  C     C_R   0.155739 0.649144 0.704025 -0.015644
C108  C     C_R   0.080300 0.736783 0.722364 -0.130240
C109  C     C_R   0.069070 0.739574 0.762279 0.049994
C110  C     C_R   0.631947 0.694321 0.151740 0.014650
C111  C     C_R   0.138835 0.653824 0.784108 -0.024314
C112  C     C_R   0.214490 0.705889 0.649624 -0.108641
C113  C     C_R   0.248710 0.693019 0.612069 -0.122899
C114  C     C_R   0.184128 0.576161 0.598844 -0.091646
C115  C     C_R   0.148869 0.588797 0.636579 0.054826
C116  C     C_R   0.169144 0.650570 0.662517 0.021432
C117  C     C_R   0.238320 0.624096 0.587081 -0.010986
C118  C     C_R   0.674516 0.077991 0.904331 -0.025740
C119  C     C_R   0.568129 0.118689 0.896169 -0.048618
C120  C     C_R   0.528167 0.150681 0.858342 -0.015595
Cr1   Cr    Cr6+3 0.426010 0.422500 0.497000 1.066885
Cr2   Cr    Cr6+3 0.651300 0.426310 0.501970 1.060364
Cr3   Cr    Cr6+3 0.422670 0.651170 0.501050 1.031298
Cr4   Cr    Cr6+3 0.905130 0.911420 0.992650 1.055087
Cr5   Cr    Cr6+3 0.911860 0.682710 0.002320 1.067276
Cr6   Cr    Cr6+3 0.682710 0.906840 0.004710 1.098132
H1    H     H_    0.470399 0.712035 0.390548 0.120249
H2    H     H_    0.888199 0.564868 0.173304 0.123008
H3    H     H_    0.784378 0.537647 0.425131 0.122330
H4    H     H_    0.255558 0.779189 0.334377 0.115101
H5    H     H_    0.359702 0.632908 0.274790 0.185569
H6    H     H_    0.341781 0.658090 0.204790 0.188258
H7    H     H_    0.037282 0.740287 0.282139 0.113021
H8    H     H_    0.897704 0.618247 0.109345 0.144854
H9    H     H_    0.126575 0.867956 0.158303 0.186039
H10   H     H_    0.293380 0.746191 0.402140 0.134513
H11   H     H_    0.854361 0.123242 0.086829 0.190744
H12   H     H_    0.568970 0.377004 0.276020 0.192930
H13   H     H_    0.831873 0.191887 0.151975 0.168156
H14   H     H_    0.789505 0.057027 0.281645 0.128901
H15   H     H_    0.816938 0.169028 0.338015 0.103984
H16   H     H_    0.792596 0.202022 0.406952 0.135253
H17   H     H_    0.470915 0.305574 0.392160 0.115528
H18   H     H_    0.829752 0.544162 0.920547 0.186401
H19   H     H_    0.548416 0.828160 0.910289 0.133415
H20   H     H_    0.561133 0.576916 0.724528 0.103217
H21   H     H_    0.777008 0.682656 0.720604 0.160640
H22   H     H_    0.473814 0.755885 0.608206 0.184944
H23   H     H_    0.071360 0.549755 0.897735 0.182098
H24   H     H_    0.263914 0.499789 0.782017 0.145954
H25   H     H_    0.029502 0.802412 0.705189 0.173663
H26   H     H_    0.229643 0.753770 0.669446 0.155956
H27   H     H_    0.290233 0.730836 0.603620 0.151716
H28   H     H_    0.173897 0.524907 0.579096 0.173557
H29   H     H_    0.568469 0.352766 0.729770 0.153981
H30   H     H_    0.566818 0.073564 0.701628 0.133647
H31   H     H_    0.477534 0.189246 0.650339 0.110237
H32   H     H_    0.683530 0.764248 0.298882 0.167975
H33   H     H_    0.737620 0.278749 0.611736 0.125111
O1    O     O_R   0.324990 0.503440 0.453910 -0.471548
O2    O     O_R   0.639980 0.519500 0.542640 -0.462637
O3    O     O_R   0.500750 0.673190 0.545480 -0.523706
O4    O     O_R   0.336260 0.640450 0.538210 -0.498908
O5    O     O_3   0.499990 0.499990 0.500010 -0.266602
O6    O     O_R   0.834210 0.019400 0.034570 -0.504354
O7    O     O_R   0.002210 0.824620 0.031030 -0.528519
O8    O     O_R   0.024400 0.669340 0.039790 -0.468688
O9    O     O_R   0.830490 0.694950 0.045870 -0.507371
O10   O     O_R   0.675430 0.831160 0.051290 -0.459946
O11   O     O_R   0.698870 0.998880 0.039560 -0.495958
O12   O     O_R   0.522030 0.339050 0.458320 -0.500508
O13   O     O_R   0.811290 0.006780 0.950620 -0.525244
O14   O     O_R   0.980960 0.812920 0.953200 -0.452466
O15   O     O_R   0.001480 0.656720 0.955830 -0.510666
O16   O     O_R   0.809240 0.683250 0.968050 -0.501661
O17   O     O_R   0.652500 0.818540 0.967340 -0.501145
O18   O     O_R   0.677620 0.987170 0.961730 -0.465628
O19   O     O_3   0.833240 0.833660 0.999890 -0.269507
O20   O     O_R   0.676180 0.324490 0.458320 -0.513793
O21   O     O_R   0.643570 0.521510 0.464260 -0.486863
O22   O     O_R   0.504630 0.675350 0.460920 -0.511964
O23   O     O_R   0.339850 0.642450 0.459830 -0.513622
O24   O     O_R   0.321120 0.501280 0.538470 -0.517923
O25   O     O_R   0.518440 0.337050 0.536710 -0.454139
O26   O     O_R   0.672300 0.322330 0.542880 -0.524241
C121  C     C_2   0.541580 0.784708 0.090776 0.327993
H34   H     H_    0.473265 0.844983 0.104204 0.161296
O27   O     O_2   0.537944 0.764372 0.056725 -0.468986
C122  C     C_2   0.197536 0.529362 0.078466 0.269073
H35   H     H_    0.202115 0.464317 0.093018 0.156686
O28   O     O_2   0.220779 0.519903 0.044604 -0.477577
C123  C     C_2   0.083516 0.907159 0.083290 0.269610
H36   H     H_    0.092006 0.909330 0.052527 0.133049
O29   O     O_2   0.053466 0.986455 0.101993 -0.509895
O30   O     O_3   0.233575 0.528451 0.158668 -0.572557
C124  C     C_3   0.341033 0.475330 0.155662 -0.068449
H37   H     H_    0.373415 0.420580 0.179638 0.201398
H38   H     H_    0.375196 0.526108 0.157936 0.135845
H39   H     H_    0.364414 0.431080 0.128174 0.147275
O31   O     O_3   0.999931 0.766919 0.206833 -0.577819
C125  C     C_3   0.967908 0.693788 0.209035 -0.126647
H40   H     H_    0.948614 0.686240 0.238975 0.128401
H41   H     H_    0.026065 0.618113 0.197140 0.173096
H42   H     H_    0.897283 0.720682 0.191358 0.110645
C126  C     C_2   0.154591 0.532042 0.319017 0.187807
H43   H     H_    0.100661 0.512674 0.330924 0.107760
O32   O     O_2   0.186147 0.501185 0.286626 -0.477646
C127  C     C_2   0.179849 0.506842 0.401823 0.218847
H44   H     H_    0.192271 0.436830 0.387469 0.077970
O33   O     O_2   0.139594 0.528740 0.433301 -0.481026
C128  C     C_2   0.548305 0.113755 0.087558 0.327961
H45   H     H_    0.519646 0.140218 0.058708 0.135386
O34   O     O_2   0.519710 0.061936 0.104002 -0.456302
C129  C     C_2   0.468649 0.272659 0.316993 0.242226
H46   H     H_    0.392822 0.317103 0.329029 0.117320
O35   O     O_2   0.476654 0.236017 0.284658 -0.474428
C130  C     C_2   0.571548 0.397772 0.198927 0.217700
H47   H     H_    0.575054 0.395658 0.167764 0.131038
O36   O     O_2   0.520685 0.480283 0.215168 -0.509767
O37   O     O_3   0.860375 0.528251 0.351752 -0.590760
C131  C     C_3   0.934117 0.470216 0.380026 -0.127153
H48   H     H_    0.921695 0.408469 0.390907 0.111085
H49   H     H_    0.935716 0.520418 0.403751 0.163075
H50   H     H_    0.010535 0.432487 0.366638 0.138752
O38   O     O_3   0.823139 0.030211 0.206819 -0.547507
C132  C     C_3   0.782401 0.963794 0.205079 -0.054018
H51   H     H_    0.698552 0.003654 0.198730 0.133022
H52   H     H_    0.799857 0.921187 0.232380 0.173749
H53   H     H_    0.819321 0.908030 0.181194 0.172953
C133  C     C_2   0.520969 0.200545 0.166667 0.237453
H54   H     H_    0.526375 0.196047 0.197792 0.154435
O39   O     O_2   0.437505 0.228511 0.151399 -0.461652
C134  C     C_2   0.482982 0.790260 0.683476 0.221192
H55   H     H_    0.497021 0.801529 0.713495 0.130414
O40   O     O_2   0.398506 0.847380 0.669683 -0.503144
O41   O     O_3   0.730449 0.442658 0.285552 -0.575316
C135  C     C_3   0.830386 0.366864 0.296275 -0.128234
H56   H     H_    0.892617 0.370547 0.280915 0.115000
H57   H     H_    0.838433 0.290770 0.289654 0.124760
H58   H     H_    0.841346 0.371129 0.327782 0.169387
C136  C     C_2   0.543394 0.576194 0.799980 0.270353
H59   H     H_    0.486243 0.567535 0.783295 0.081306
O42   O     O_2   0.548895 0.563226 0.834659 -0.498985
C137  C     C_2   0.833357 0.471792 0.848276 0.242617
H60   H     H_    0.827790 0.452026 0.818410 0.150619
O43   O     O_2   0.904482 0.409613 0.867947 -0.482252
C138  C     C_2   0.803648 0.698500 0.797016 0.139549
H61   H     H_    0.808846 0.702484 0.828111 0.104152
O44   O     O_2   0.852177 0.726439 0.778088 -0.573461
C139  C     C_2   0.840392 0.487802 0.669424 0.192498
H62   H     H_    0.909921 0.466685 0.654002 0.146811
O45   O     O_2   0.847439 0.447048 0.700122 -0.491708
C140  C     C_2   0.807877 0.493137 0.586729 0.250987
H63   H     H_    0.864269 0.417214 0.596103 0.100309
O46   O     O_2   0.817761 0.521611 0.555364 -0.471060
O47   O     O_3   0.517179 0.803959 0.834560 -0.575814
C141  C     C_3   0.488392 0.907416 0.841940 -0.107087
H64   H     H_    0.555563 0.918712 0.846995 0.115339
H65   H     H_    0.435170 0.938378 0.866497 0.124798
H66   H     H_    0.446316 0.952448 0.816324 0.215221
O48   O     O_3   0.104365 0.836940 0.905767 -0.482975
C142  C     C_3   0.190210 0.803032 0.930655 -0.073023
H67   H     H_    0.262742 0.765073 0.914377 0.120979
H68   H     H_    0.191042 0.750796 0.952885 0.111109
H69   H     H_    0.186273 0.870502 0.945914 0.150694
C143  C     C_2   0.761973 0.441966 0.205696 0.266742
H70   H     H_    0.784062 0.369115 0.218681 0.129797
O49   O     O_2   0.754853 0.446366 0.170659 -0.500292
C144  C     C_2   0.094036 0.535377 0.648872 0.228335
H71   H     H_    0.061850 0.548818 0.677404 0.112550
O50   O     O_2   0.083677 0.475869 0.627191 -0.528643
O51   O     O_3   0.297066 0.476457 0.706087 -0.579834
C145  C     C_3   0.296517 0.386441 0.716082 -0.102712
H72   H     H_    0.217657 0.397876 0.717501 0.137199
H73   H     H_    0.338487 0.356208 0.743686 0.144716
H74   H     H_    0.337236 0.327371 0.693528 0.144692
O52   O     O_3   0.166159 0.800804 0.830890 -0.505076
C146  C     C_3   0.272185 0.749310 0.823828 -0.070334
H75   H     H_    0.291448 0.695455 0.798953 0.103172
H76   H     H_    0.318564 0.707989 0.849563 0.124904
H77   H     H_    0.294450 0.806700 0.816381 0.187811
C147  C     C_2   0.982063 0.830544 0.780295 0.357010
H78   H     H_    0.960266 0.827663 0.809478 0.159760
O53   O     O_2   0.932264 0.909435 0.762422 -0.483083
O54   O     O_3   0.136551 0.493983 0.827884 -0.564096
C148  C     C_3   0.043339 0.505350 0.813437 -0.074256
H79   H     H_    0.018138 0.554221 0.787616 0.165746
H80   H     H_    0.982759 0.536059 0.835577 0.126483
H81   H     H_    0.055652 0.429012 0.804252 0.181473
C149  C     C_2   0.533837 0.714376 0.169045 0.248531
H82   H     H_    0.526053 0.717757 0.200054 0.172778
O55   O     O_2   0.462205 0.722541 0.149146 -0.511618
C150  C     C_2   0.497270 0.129261 0.927170 0.234640
H83   H     H_    0.440900 0.105180 0.922054 0.088005
O56   O     O_2   0.499408 0.167932 0.958269 -0.476573
C151  C     C_2   0.849255 0.040667 0.881876 0.348034
H84   H     H_    0.874071 0.078025 0.903214 0.157361
O57   O     O_2   0.913180 0.967528 0.863585 -0.451791
C152  C     C_2   0.753211 0.238720 0.685894 0.252057
H85   H     H_    0.794275 0.277868 0.678271 0.140498
O58   O     O_2   0.776313 0.191303 0.715851 -0.454103
O59   O     O_3   0.562780 0.338423 0.804327 -0.534887
C153  C     C_3   0.465970 0.402902 0.820271 -0.083125
H86   H     H_    0.423364 0.362739 0.827147 0.132392
H87   H     H_    0.419775 0.466376 0.800427 0.100859
H88   H     H_    0.476462 0.436357 0.847640 0.191329
C154  C     C_2   0.416120 0.193456 0.850390 0.209126
H89   H     H_    0.361955 0.223519 0.873664 0.123169
O60   O     O_2   0.382207 0.195772 0.817922 -0.471511
O61   O     O_3   0.547682 0.031222 0.773378 -0.552692
C155  C     C_3   0.640578 0.939916 0.767604 -0.105228
H90   H     H_    0.704484 0.940840 0.784123 0.147389
H91   H     H_    0.659378 0.923706 0.736594 0.135454
H92   H     H_    0.631512 0.876515 0.778400 0.166259
O62   O     O_3   0.478499 0.217145 0.575447 -0.550602
C156  C     C_3   0.374199 0.280720 0.584403 -0.064945
H93   H     H_    0.357586 0.356681 0.596468 0.132330
H94   H     H_    0.348818 0.241916 0.604492 0.128173
H95   H     H_    0.328084 0.294994 0.557502 0.161550
C157  C     C_2   0.765884 0.112272 0.806801 0.349174
H96   H     H_    0.758418 0.088900 0.777674 0.154772
O63   O     O_2   0.826775 0.142343 0.813227 -0.386090
C158  C     C_2   0.681677 0.811112 0.225058 0.197183
H97   H     H_    0.695393 0.819239 0.195236 0.094216
O64   O     O_2   0.645938 0.887249 0.245871 -0.507933
C159  C     C_2   0.491453 0.717949 0.316214 0.224367
H98   H     H_    0.415943 0.774084 0.326032 0.094428
O65   O     O_2   0.502627 0.695797 0.281980 -0.506838

loop_
_geom_bond_atom_site_label_1
_geom_bond_atom_site_label_2
_ccdc_geom_bond_type
C114  C115  A    
C153  H87   S    
C84   H19   S    
C16   C152  S    
C147  H78   S    
Cr2   O2    S    
C66   C97   S    
C21   C59   S    
C106  C107  A    
C139  O45   D    
C21   O11   A    
C145  H74   S    
C108  C109  A    
C67   H12   S    
O61   C155  S    
C9    H30   S    
C34   H1    S    
C159  H98   S    
C12   H31   S    
C59   C60   A    
C33   O21   A    
C102  C111  S    
C19   O8    A    
C73   H16   S    
Cr2   O20   S    
C158  H97   S    
Cr5   O9    S    
C6    C11   A    
C72   C73   A    
C23   O17   A    
C94   C97   A    
C99   C110  A    
C1    O12   A    
C82   C91   S    
C66   O2    A    
C47   H5    S    
C156  H93   S    
C32   C34   A    
C75   C76   A    
C108  H25   S    
Cr3   O4    S    
C153  H86   S    
Cr4   O13   S    
C90   C138  S    
C133  O39   D    
C29   H32   S    
C63   C133  S    
C151  H84   S    
C144  O50   D    
C24   H8    S    
C49   H7    S    
C148  H81   S    
C61   H13   S    
C8    C17   S    
C124  H37   S    
C53   C58   A    
C6    C7    A    
C92   C139  S    
C33   C38   S    
C83   O47   S    
Cr3   O22   S    
C65   C130  S    
C77   O24   A    
Cr6   O19   S    
C25   O18   A    
C69   C70   A    
C88   C99   A    
C3    C11   S    
O30   C124  S    
C41   O30   S    
C141  H65   S    
C121  H34   S    
C114  H28   S    
C123  O29   D    
C26   C143  S    
C15   C18   A    
C148  H80   S    
C74   H17   S    
C22   C98   S    
C7    C8    A    
C85   C86   A    
C137  H60   S    
C29   C30   A    
C156  H95   S    
C81   C137  S    
C36   C37   A    
C109  C111  A    
C46   H6    S    
O48   C142  S    
C129  O35   D    
C115  C116  A    
C92   C96   A    
Cr2   O5    S    
O41   C135  S    
C141  H64   S    
C122  O28   D    
C103  O54   S    
C80   H18   S    
C55   O25   A    
C134  H55   S    
C4    C157  S    
C39   C45   A    
O52   C146  S    
C87   C96   S    
C125  H41   S    
C94   C95   A    
C124  H39   S    
Cr5   O15   S    
O37   C131  S    
O38   C132  S    
C126  O32   D    
C94   H22   S    
C10   O61   S    
C52   C126  S    
C35   C38   A    
C5    C151  S    
C39   C40   A    
C16   C17   A    
C130  H47   S    
C46   C51   A    
Cr1   O1    S    
C158  O64   D    
C157  O63   D    
C150  H83   S    
Cr6   O11   S    
C134  O40   D    
C83   C84   A    
C32   C37   A    
C43   C45   A    
C143  O49   D    
C18   C55   S    
Cr1   O25   S    
C113  C117  A    
C27   O41   S    
C155  H91   S    
C79   C84   A    
C3    C4    A    
C93   C97   A    
C112  C116  A    
C22   O14   A    
C52   C53   A    
C89   H21   S    
Cr1   O12   S    
C115  C144  S    
C142  H67   S    
C68   C76   S    
C147  O53   D    
C5    C118  A    
C141  H66   S    
C28   C37   S    
C100  C101  A    
C145  H73   S    
C120  C154  S    
C137  O43   D    
C62   C71   S    
C102  C103  A    
C107  C116  S    
C114  C117  A    
C10   C11   A    
C63   C64   A    
C4    C5    A    
C100  O48   S    
C49   C50   A    
C135  H58   S    
Cr5   O19   S    
C146  H75   S    
C159  O65   D    
C56   H4    S    
C101  C102  A    
C41   C42   A    
C119  C150  S    
C35   C36   A    
C25   C118  S    
C142  H69   S    
Cr2   O21   S    
C105  H24   S    
C26   C27   A    
C127  H44   S    
C101  O52   S    
C28   C29   A    
Cr5   O8    S    
C131  H50   S    
C54   C58   A    
C30   C31   A    
C93   C140  S    
C23   O16   A    
C53   C127  S    
C21   O6    A    
C66   O3    A    
C156  H94   S    
C149  H82   S    
C6    O59   S    
C40   C122  S    
C44   C58   S    
C68   C69   A    
C65   C67   A    
C146  H77   S    
C12   C17   A    
C112  H26   S    
C70   C71   A    
C69   H14   S    
C151  O57   D    
C20   O10   A    
C105  C111  A    
O62   C156  S    
C144  H71   S    
C1    C78   S    
C86   H20   S    
C153  H88   S    
C138  O44   D    
C72   H15   S    
C67   C68   A    
C48   C57   S    
Cr3   O5    S    
C124  H38   S    
C86   C87   A    
C139  H62   S    
C154  H89   S    
C60   C61   A    
C104  H23   S    
C152  H85   S    
C15   H33   S    
O54   C148  S    
C45   C123  S    
C128  H45   S    
C85   C136  S    
C50   C51   A    
C14   O62   S    
C24   C88   A    
C25   O13   A    
C48   C49   A    
C98   C100  A    
C33   O22   A    
C44   O1    A    
C56   C57   A    
C121  O27   D    
C44   O23   A    
C46   C47   A    
C2    C110  A    
C119  C120  A    
C105  C106  A    
C133  H54   S    
C123  H36   S    
C109  C147  S    
C90   C91   A    
C140  H63   S    
C20   C88   S    
C92   C93   A    
C122  H35   S    
C52   C57   A    
C7    H29   S    
C131  H49   S    
C82   C83   A    
C74   C78   A    
C103  C104  A    
C89   C90   A    
C99   C121  S    
C77   O4    A    
C155  H90   S    
C106  O51   S    
C125  H40   S    
C14   C18   A    
C95   C96   A    
C70   O38   S    
C72   C76   A    
C36   O37   S    
C81   C82   A    
C85   C91   A    
C126  H43   S    
C59   C64   A    
C62   C63   A    
C136  H59   S    
Cr3   O23   S    
C77   C117  S    
C148  H79   S    
C15   C16   A    
Cr6   O18   S    
C2    C13   A    
C118  C119  A    
C13   H2    S    
C8    C9    A    
C73   C78   A    
C64   C128  S    
C19   O7    A    
C35   H3    S    
Cr4   O19   S    
C42   C51   S    
Cr1   O24   S    
C110  C149  S    
C26   C31   A    
C61   C62   A    
C112  C113  A    
C22   O15   A    
C20   O9    A    
C54   C56   A    
C74   C75   A    
C143  H70   S    
C140  O46   D    
Cr3   O3    S    
C50   O31   S    
C129  H46   S    
O31   C125  S    
Cr2   O26   S    
C142  H68   S    
Cr4   O14   S    
C65   C71   A    
Cr1   O5    S    
Cr4   O6    S    
C13   C24   A    
C2    C31   S    
C136  O42   D    
C131  H48   S    
C47   C48   A    
C107  C108  A    
C54   H10   S    
O47   C141  S    
C145  H72   S    
C43   H9    S    
C152  O58   D    
C19   C39   S    
Cr4   O7    S    
C40   C41   A    
C128  O34   D    
C12   C14   A    
C132  H51   S    
C132  H52   S    
C135  H57   S    
C125  H42   S    
C146  H76   S    
O51   C145  S    
Cr5   O16   S    
Cr6   O17   S    
C9    C10   A    
O59   C153  S    
C34   C38   A    
C113  H27   S    
C80   C81   A    
C138  H61   S    
C130  O36   D    
C132  H53   S    
C60   H11   S    
C75   C129  S    
C30   C158  S    
C157  H96   S    
C87   C89   A    
C154  O60   D    
C150  O56   D    
Cr6   O10   S    
C1    O20   A    
C98   C104  A    
C149  O55   D    
C55   O26   A    
C3    C120  A    
C79   C80   A    
C127  O33   D    
C42   C43   A    
C155  H92   S    
C27   C28   A    
C32   C159  S    
C95   C134  S    
C23   C79   S    
C135  H56   S    
