data_mof_unit_pretest_1584.cif
_audit_creation_date              2012-12-10T19:28:25-0500
_audit_creation_method            fapswitch 2.2
_symmetry_space_group_name_H-M    P1
_symmetry_Int_Tables_number       1
_space_group_crystal_system       triclinic
_cell_length_a                    30.096676
_cell_length_b                    30.579571
_cell_length_c                    21.443747
_cell_angle_alpha                 89.673957
_cell_angle_beta                  134.546188
_cell_angle_gamma                 90.406037
_cell_volume                      14064.9179937

loop_
_atom_site_label
_atom_site_type_symbol
_atom_type_description
_atom_site_fract_x
_atom_site_fract_y
_atom_site_fract_z
_atom_type_partial_charge
C1    C     C_R   0.310496 0.810105 0.120049 0.880566
C2    C     C_R   0.690235 0.809969 0.880064 0.864139
C3    C     C_R   0.810497 0.310105 0.120049 0.880579
C4    C     C_R   0.190244 0.309969 0.880062 0.864075
C5    C     C_R   0.540602 0.791238 0.986741 -0.081939
C6    C     C_R   0.442353 0.790195 0.976525 -0.085918
C7    C     C_R   0.040904 0.291285 0.987371 -0.082004
C8    C     C_R   0.942641 0.290279 0.977127 -0.085846
C9    C     C_R   0.534895 0.672502 0.024143 -0.216753
C10   C     C_R   0.489935 0.672712 0.026393 -0.216203
C11   C     C_R   0.034350 0.172421 0.023079 -0.216795
C12   C     C_R   0.989400 0.172625 0.025349 -0.216162
C13   C     C_R   0.456400 0.829269 0.957168 0.337780
C14   C     C_R   0.511144 0.831023 0.974153 0.230131
C15   C     C_R   0.956980 0.329424 0.958351 0.337862
C16   C     C_R   0.011741 0.331115 0.975376 0.229950
C17   C     C_R   0.341147 0.843660 0.248320 0.087091
C18   C     C_R   0.597061 0.852900 0.770875 0.063331
C19   C     C_R   0.841152 0.343657 0.248323 0.087091
C20   C     C_R   0.096987 0.352786 0.770635 0.062883
C21   C     C_R   0.342196 0.843692 0.184551 -0.129148
C22   C     C_R   0.658253 0.843259 0.815586 -0.067280
C23   C     C_R   0.842197 0.343692 0.184549 -0.129225
C24   C     C_R   0.158257 0.343260 0.815582 -0.067247
C25   C     C_R   0.367366 0.879585 0.176843 -0.185004
C26   C     C_R   0.691243 0.870904 0.807478 -0.216706
C27   C     C_R   0.867363 0.379587 0.176839 -0.184867
C28   C     C_R   0.191283 0.371014 0.807682 -0.216576
C29   C     C_R   0.399430 0.911830 0.241066 -0.208415
C30   C     C_R   0.659521 0.903865 0.744503 -0.201893
C31   C     C_R   0.899427 0.411831 0.241063 -0.208286
C32   C     C_R   0.159552 0.403969 0.744695 -0.201956
C33   C     C_R   0.404467 0.908488 0.311043 -0.091414
C34   C     C_R   0.595487 0.909878 0.692421 -0.100991
C35   C     C_R   0.904468 0.408487 0.311044 -0.091477
C36   C     C_R   0.095471 0.409875 0.692405 -0.100702
C37   C     C_R   0.371820 0.875938 0.310942 0.089878
C38   C     C_R   0.566562 0.886747 0.712203 0.108016
C39   C     C_R   0.871826 0.375935 0.310947 0.089857
C40   C     C_R   0.066474 0.386634 0.711966 0.107751
C41   C     C_3   0.394355 0.844983 0.382413 -0.500894
C42   C     C_3   0.504287 0.864620 0.654818 -0.452310
C43   C     C_3   0.894371 0.344976 0.382418 -0.500904
C44   C     C_3   0.004253 0.364413 0.654378 -0.452867
C45   C     C_R   0.336777 0.750073 0.999823 0.882748
C46   C     C_R   0.663233 0.749904 0.999828 0.872526
C47   C     C_R   0.836775 0.250073 0.999824 0.882660
C48   C     C_R   0.163228 0.249906 0.999824 0.872603
C49   C     C_3   0.360630 0.809113 0.313305 0.039573
C50   C     C_3   0.538457 0.826105 0.718406 0.001614
C51   C     C_3   0.860640 0.309108 0.313306 0.039657
C52   C     C_3   0.038445 0.325900 0.717964 0.001895
C53   C     C_R   0.867713 0.754551 0.921037 -0.256793
C54   C     C_R   0.131424 0.742112 0.078299 -0.261197
C55   C     C_R   0.367713 0.254548 0.921036 -0.256760
C56   C     C_R   0.631425 0.242114 0.078300 -0.261222
C57   C     C_R   0.884576 0.750236 0.000235 -0.054843
C58   C     C_R   0.115189 0.749499 0.000021 -0.065788
C59   C     C_R   0.384576 0.250236 0.000235 -0.054841
C60   C     C_R   0.615189 0.249499 0.000021 -0.065789
C61   C     C_R   0.946802 0.745778 0.079426 -0.252734
C62   C     C_R   0.053220 0.756589 0.921638 -0.253069
C63   C     C_R   0.446803 0.245780 0.079427 -0.252761
C64   C     C_R   0.553220 0.256586 0.921638 -0.253045
C65   C     C_R   0.993183 0.744774 0.079842 0.120862
C66   C     C_R   0.006638 0.756026 0.920817 0.119152
C67   C     C_R   0.493183 0.244776 0.079842 0.120886
C68   C     C_R   0.506638 0.256024 0.920817 0.119132
C69   C     C_R   0.976611 0.749850 0.000157 0.057474
C70   C     C_R   0.023002 0.749609 0.000082 0.061470
C71   C     C_R   0.476611 0.249850 0.000157 0.057474
C72   C     C_R   0.523003 0.249609 0.000082 0.061469
C73   C     C_R   0.913633 0.755139 0.920529 0.123382
C74   C     C_R   0.085735 0.742917 0.079247 0.123370
C75   C     C_R   0.413633 0.255136 0.920528 0.123361
C76   C     C_R   0.585736 0.242919 0.079248 0.123397
C77   C     C_R   0.055620 0.738595 0.158231 -0.205185
C78   C     C_R   0.944124 0.761723 0.842268 -0.211772
C79   C     C_R   0.555621 0.238600 0.158232 -0.205243
C80   C     C_R   0.444124 0.261718 0.842267 -0.211727
C81   C     C_R   0.101672 0.737304 0.157825 -0.217161
C82   C     C_R   0.897733 0.760959 0.842030 -0.211189
C83   C     C_R   0.601673 0.237309 0.157827 -0.217204
C84   C     C_R   0.397732 0.260954 0.842029 -0.211143
C85   C     C_R   0.133466 0.621062 0.819347 0.116867
C86   C     C_R   0.875209 0.625088 0.185914 0.100615
C87   C     C_R   0.633461 0.121064 0.819343 0.116877
C88   C     C_R   0.375203 0.125084 0.185908 0.100603
C89   C     C_R   0.190072 0.690025 0.879984 0.881041
C90   C     C_R   0.809687 0.689978 0.120227 0.873925
C91   C     C_R   0.690072 0.190025 0.879984 0.880978
C92   C     C_R   0.309687 0.189978 0.120227 0.873983
C93   C     C_R   0.158111 0.657488 0.814060 -0.095073
C94   C     C_R   0.844022 0.657722 0.187456 -0.088765
C95   C     C_R   0.658111 0.157488 0.814060 -0.095018
C96   C     C_R   0.344023 0.157722 0.187456 -0.088807
C97   C     C_R   0.149988 0.661948 0.741185 -0.207890
C98   C     C_R   0.852346 0.662002 0.260210 -0.209083
C99   C     C_R   0.649993 0.161945 0.741190 -0.207978
C100  C     C_R   0.352354 0.162005 0.260217 -0.209012
C101  C     C_R   0.118000 0.629397 0.676708 -0.211444
C102  C     C_R   0.884454 0.629807 0.324549 -0.213947
C103  C     C_R   0.618005 0.129394 0.676713 -0.211466
C104  C     C_R   0.384462 0.129809 0.324555 -0.213941
C105  C     C_R   0.092637 0.593327 0.684161 -0.092547
C106  C     C_R   0.909594 0.594391 0.316830 -0.090253
C107  C     C_R   0.592638 0.093327 0.684161 -0.092523
C108  C     C_R   0.409594 0.094390 0.316829 -0.090256
C109  C     C_R   0.100950 0.590752 0.756143 0.114426
C110  C     C_R   0.908400 0.593954 0.250727 0.143092
C111  C     C_R   0.600945 0.090755 0.756138 0.114375
C112  C     C_R   0.408394 0.093950 0.250720 0.143089
C113  C     C_3   0.088168 0.563805 0.800211 -0.453940
C114  C     C_3   0.888059 0.558275 0.187877 -0.498312
C115  C     C_3   0.588156 0.063810 0.800201 -0.453775
C116  C     C_3   0.388044 0.058270 0.187868 -0.498405
C117  C     C_3   0.125006 0.598930 0.872482 -0.464990
C118  C     C_3   0.851171 0.592677 0.116201 -0.449550
C119  C     C_3   0.624994 0.098935 0.872472 -0.465066
C120  C     C_3   0.351156 0.092672 0.116192 -0.449532
C121  C     C_R   0.940094 0.559997 0.379780 0.871255
C122  C     C_R   0.059981 0.560017 0.619785 0.878871
C123  C     C_R   0.440094 0.059996 0.379780 0.871262
C124  C     C_R   0.559981 0.060017 0.619785 0.878890
C125  C     C_R   0.439783 0.939939 0.379917 0.875437
C126  C     C_R   0.560461 0.940334 0.621167 0.869659
C127  C     C_R   0.939783 0.439938 0.379918 0.875432
C128  C     C_R   0.060459 0.440335 0.621164 0.869618
C129  C     C_R   0.163148 0.749861 0.000071 0.887081
C130  C     C_R   0.836790 0.750077 0.000075 0.883228
C131  C     C_R   0.663148 0.249861 0.000071 0.887093
C132  C     C_R   0.336790 0.250077 0.000075 0.883209
C133  C     C_R   0.587510 0.789778 0.987584 -0.161452
C134  C     C_R   0.397400 0.789082 0.979567 -0.118727
C135  C     C_R   0.087792 0.289822 0.988176 -0.161311
C136  C     C_R   0.897663 0.289152 0.980121 -0.118754
C137  C     C_R   0.615054 0.750223 0.998834 -0.075561
C138  C     C_R   0.384079 0.750255 0.998422 -0.103481
C139  C     C_R   0.115048 0.250228 0.998840 -0.075923
C140  C     C_R   0.884081 0.250262 0.998444 -0.103250
C141  C     C_R   0.597154 0.711192 0.009520 -0.252200
C142  C     C_R   0.414910 0.711667 0.014367 -0.246978
C143  C     C_R   0.096869 0.211160 0.008974 -0.252188
C144  C     C_R   0.914653 0.211622 0.013879 -0.247017
C145  C     C_R   0.551284 0.711477 0.009899 0.169942
C146  C     C_R   0.459969 0.711713 0.012339 0.167795
C147  C     C_R   0.051011 0.211445 0.009378 0.169876
C148  C     C_R   0.959711 0.211674 0.011848 0.167839
C149  C     C_R   0.521908 0.751368 0.996695 0.020070
C150  C     C_R   0.474994 0.751244 0.995644 0.006267
C151  C     C_R   0.021923 0.251382 0.996751 0.020122
C152  C     C_R   0.975011 0.251262 0.995702 0.006214
H1    H     H_    0.601438 0.818643 0.975461 0.185001
H2    H     H_    0.374256 0.818606 0.971508 0.212096
H3    H     H_    0.101921 0.318733 0.976462 0.185291
H4    H     H_    0.874707 0.318698 0.972451 0.211906
H5    H     H_    0.819046 0.758249 0.860395 0.142778
H6    H     H_    0.179713 0.736649 0.138527 0.156048
H7    H     H_    0.319045 0.258244 0.860394 0.142786
H8    H     H_    0.679714 0.236653 0.138528 0.156043
H9    H     H_    0.958684 0.742119 0.140059 0.146523
H10   H     H_    0.041296 0.761745 0.861249 0.155106
H11   H     H_    0.458684 0.242123 0.140060 0.146511
H12   H     H_    0.541296 0.261741 0.861248 0.155115
H13   H     H_    0.068717 0.734491 0.219608 0.152506
H14   H     H_    0.931146 0.766538 0.781103 0.151674
H15   H     H_    0.568718 0.234498 0.219610 0.152466
H16   H     H_    0.431145 0.266530 0.781101 0.151705
H17   H     H_    0.149703 0.732170 0.218892 0.149820
H18   H     H_    0.849544 0.765158 0.780686 0.150325
H19   H     H_    0.649705 0.232177 0.218894 0.149785
H20   H     H_    0.349543 0.265150 0.780684 0.150353
H21   H     H_    0.168834 0.689956 0.734841 0.166783
H22   H     H_    0.831445 0.688830 0.264836 0.162138
H23   H     H_    0.668844 0.189952 0.734850 0.166701
H24   H     H_    0.331459 0.188835 0.264848 0.162200
H25   H     H_    0.112316 0.632648 0.621098 0.162481
H26   H     H_    0.888345 0.631927 0.378651 0.162810
H27   H     H_    0.612326 0.132644 0.621107 0.162449
H28   H     H_    0.388357 0.131932 0.378661 0.162829
H29   H     H_    0.037739 0.562751 0.762432 0.219016
H30   H     H_    0.927605 0.544870 0.199528 0.216559
H31   H     H_    0.537726 0.062759 0.762417 0.219074
H32   H     H_    0.427586 0.044862 0.199513 0.216478
H33   H     H_    0.111859 0.531568 0.821965 0.209700
H34   H     H_    0.858258 0.533329 0.182118 0.199961
H35   H     H_    0.611844 0.031572 0.821957 0.209724
H36   H     H_    0.358242 0.033327 0.182114 0.199977
H37   H     H_    0.095764 0.618371 0.876035 0.205351
H38   H     H_    0.869339 0.599055 0.086335 0.209871
H39   H     H_    0.595750 0.118379 0.876020 0.205368
H40   H     H_    0.369320 0.099047 0.086319 0.209855
H41   H     H_    0.619822 0.680866 0.019085 0.141374
H42   H     H_    0.403250 0.681564 0.027340 0.153962
H43   H     H_    0.119316 0.180799 0.018102 0.141616
H44   H     H_    0.902783 0.181478 0.026442 0.153775
H45   H     H_    0.169776 0.586913 0.936175 0.218759
H46   H     H_    0.799854 0.587788 0.068828 0.217494
H47   H     H_    0.669761 0.086917 0.936168 0.218742
H48   H     H_    0.299840 0.087786 0.068825 0.217490
H49   H     H_    0.557417 0.641968 0.034603 0.148320
H50   H     H_    0.478298 0.642339 0.038587 0.148104
H51   H     H_    0.056652 0.141850 0.033099 0.148316
H52   H     H_    0.977552 0.142210 0.037121 0.148110
H53   H     H_    0.364867 0.881479 0.123964 0.172233
H54   H     H_    0.740306 0.865646 0.846537 0.146731
H55   H     H_    0.864861 0.381483 0.123958 0.172401
H56   H     H_    0.240389 0.365842 0.846911 0.146822
H57   H     H_    0.421401 0.938520 0.237395 0.164944
H58   H     H_    0.684343 0.923443 0.734705 0.170287
H59   H     H_    0.921394 0.438524 0.237390 0.165038
H60   H     H_    0.184410 0.423634 0.735058 0.170212
H61   H     H_    0.445925 0.841357 0.432646 0.163066
H62   H     H_    0.472994 0.881568 0.657290 0.192154
H63   H     H_    0.945940 0.341350 0.432639 0.163088
H64   H     H_    0.972809 0.381263 0.656659 0.191779
H65   H     H_    0.374631 0.852244 0.409676 0.217112
H66   H     H_    0.482483 0.858476 0.587292 0.196427
H67   H     H_    0.874655 0.352232 0.409694 0.217078
H68   H     H_    0.982610 0.358310 0.586924 0.196449
H69   H     H_    0.392985 0.784555 0.325057 0.134591
H70   H     H_    0.524246 0.820242 0.753678 0.117935
H71   H     H_    0.892992 0.284550 0.325049 0.134617
H72   H     H_    0.024102 0.319938 0.753044 0.118105
O1    O     O_R   0.321640 0.769930 0.143350 -0.634776
O2    O     O_R   0.678360 0.769930 0.856650 -0.635203
O3    O     O_R   0.821640 0.269930 0.143350 -0.634772
O4    O     O_R   0.178360 0.269930 0.856650 -0.635179
O5    O     O_R   0.916890 0.545840 0.408340 -0.620818
O6    O     O_R   0.083110 0.545840 0.591660 -0.622546
O7    O     O_R   0.416890 0.045840 0.408340 -0.620790
O8    O     O_R   0.583110 0.045840 0.591660 -0.622564
O9    O     O_R   0.491470 0.954180 0.408370 -0.620115
O10   O     O_R   0.508530 0.954180 0.591630 -0.617918
O11   O     O_R   0.991470 0.454180 0.408370 -0.620055
O12   O     O_R   0.008530 0.454180 0.591630 -0.617933
O13   O     O_R   0.416850 0.954230 0.408340 -0.618640
O14   O     O_R   0.583150 0.954230 0.591660 -0.624972
O15   O     O_R   0.916850 0.454230 0.408340 -0.618655
O16   O     O_R   0.083150 0.454230 0.591660 -0.624927
O17   O     O_R   0.269930 0.821650 0.039910 -0.612843
O18   O     O_R   0.730070 0.821650 0.960090 -0.607748
O19   O     O_R   0.769930 0.321650 0.039910 -0.612832
O20   O     O_R   0.230070 0.321650 0.960090 -0.607801
O21   O     O_R   0.341900 0.724100 0.051720 -0.622734
O22   O     O_R   0.658100 0.724100 0.948280 -0.628186
O23   O     O_R   0.841900 0.224100 0.051720 -0.622650
O24   O     O_R   0.158100 0.224100 0.948280 -0.628222
O25   O     O_R   0.290200 0.775820 0.948280 -0.610227
O26   O     O_R   0.709800 0.775820 0.051720 -0.601708
O27   O     O_R   0.790200 0.275820 0.948280 -0.610168
O28   O     O_R   0.209800 0.275820 0.051720 -0.601712
O29   O     O_R   0.230030 0.678320 0.960120 -0.621394
O30   O     O_R   0.769970 0.678320 0.039880 -0.623990
O31   O     O_R   0.730030 0.178320 0.960120 -0.621413
O32   O     O_R   0.269970 0.178320 0.039880 -0.623999
O33   O     O_R   0.178330 0.730040 0.856690 -0.620985
O34   O     O_R   0.821670 0.730040 0.143310 -0.621135
O35   O     O_R   0.678330 0.230040 0.856690 -0.621017
O36   O     O_R   0.321670 0.230040 0.143310 -0.621104
O37   O     O_R   0.209770 0.724140 0.051760 -0.627443
O38   O     O_R   0.790230 0.724140 0.948240 -0.619857
O39   O     O_R   0.709770 0.224140 0.051760 -0.627454
O40   O     O_R   0.290230 0.224140 0.948240 -0.619860
O41   O     O_R   0.158070 0.775860 0.948320 -0.622062
O42   O     O_R   0.841930 0.775860 0.051680 -0.620748
O43   O     O_R   0.658070 0.275860 0.948320 -0.622052
O44   O     O_R   0.341930 0.275860 0.051680 -0.620766
O45   O     O_R   0.991510 0.545790 0.408370 -0.620130
O46   O     O_R   0.008490 0.545790 0.591630 -0.620298
O47   O     O_R   0.491510 0.045790 0.408370 -0.620169
O48   O     O_R   0.508490 0.045790 0.591630 -0.620258
Zn1   Zn    Zn3+2 0.284510 0.715450 0.069080 0.951392
Zn2   Zn    Zn3+2 0.715490 0.715450 0.930920 0.947951
Zn3   Zn    Zn3+2 0.784510 0.215450 0.069080 0.951411
Zn4   Zn    Zn3+2 0.215490 0.215450 0.930920 0.947870
Zn5   Zn    Zn3+2 0.215460 0.784520 0.930950 0.994054
Zn6   Zn    Zn3+2 0.784540 0.784520 0.069050 0.995609
Zn7   Zn    Zn3+2 0.715460 0.284520 0.930950 0.994009
Zn8   Zn    Zn3+2 0.284540 0.284520 0.069050 0.995692
Zn9   Zn    Zn3+2 0.549780 0.999980 0.499990 0.964902
Zn10  Zn    Zn3+2 0.450220 0.999980 0.500010 0.965132
Zn11  Zn    Zn3+2 0.049780 0.499980 0.499990 0.965090
Zn12  Zn    Zn3+2 0.950220 0.499980 0.500010 0.964974
N1    N     N_2   0.309081 0.788942 0.296843 -0.281852
H73   H     H_    0.297704 0.758288 0.269261 0.226462
C153  C     C_3   0.254452 0.814800 0.257734 -0.742184
H74   H     H_    0.224482 0.796360 0.261463 0.229138
H75   H     H_    0.227102 0.821396 0.187789 0.229954
H76   H     H_    0.267670 0.846177 0.292916 0.249743
N2    N     N_2   0.537133 0.786141 0.679991 -0.271350
H77   H     H_    0.549603 0.758636 0.717263 0.239983
C154  C     C_3   0.560026 0.785870 0.638718 -0.702510
H78   H     H_    0.540724 0.756869 0.595406 0.223460
H79   H     H_    0.611551 0.783426 0.688677 0.242314
H80   H     H_    0.545760 0.815334 0.598163 0.227983
N3    N     N_2   0.809097 0.288935 0.296853 -0.281862
H81   H     H_    0.797716 0.258283 0.269265 0.226461
C155  C     C_3   0.754470 0.314792 0.257759 -0.742283
H82   H     H_    0.724505 0.296351 0.261493 0.229122
H83   H     H_    0.727114 0.321392 0.187813 0.229980
H84   H     H_    0.767692 0.346168 0.292948 0.249732
N4    N     N_2   0.037342 0.285996 0.679629 -0.271322
H85   H     H_    0.049782 0.258463 0.716822 0.239983
C156  C     C_3   0.060455 0.285858 0.638650 -0.702476
H86   H     H_    0.041294 0.256881 0.595311 0.223402
H87   H     H_    0.111988 0.283465 0.688787 0.242270
H88   H     H_    0.046220 0.315354 0.598181 0.228046
S1    S     S_3+6 0.401689 0.873218 0.902092 0.054594
O49   O     O_2   0.336272 0.855345 0.838972 -0.316381
O50   O     O_2   0.411870 0.901277 0.968572 -0.280895
O51   O     O_3   0.409249 0.903899 0.844621 -0.477947
H89   H     H_    0.380851 0.928959 0.822851 0.387235
S2    S     S_3+6 0.546819 0.882388 0.989694 0.095673
O52   O     O_2   0.526505 0.917560 0.013802 -0.169228
O53   O     O_2   0.616565 0.878808 0.062791 -0.287062
O54   O     O_3   0.527576 0.897168 0.897512 -0.485899
H90   H     H_    0.515655 0.869733 0.864460 0.322308
S3    S     S_3+6 0.902602 0.373579 0.903938 0.054523
O55   O     O_2   0.837053 0.355945 0.840518 -0.316384
O56   O     O_2   0.912972 0.401375 0.970834 -0.281052
O57   O     O_3   0.910417 0.404490 0.846967 -0.477948
H91   H     H_    0.882215 0.429633 0.825588 0.387248
S4    S     S_3+6 0.047811 0.382420 0.991718 0.095760
O58   O     O_2   0.027766 0.417492 0.016375 -0.169255
O59   O     O_2   0.117527 0.378557 0.064757 -0.286993
O60   O     O_3   0.028686 0.397560 0.899769 -0.485613
H92   H     H_    0.016513 0.370260 0.866262 0.322525

loop_
_geom_bond_atom_site_label_1
_geom_bond_atom_site_label_2
_ccdc_geom_bond_type
C128  O12   A    
C99   C103  A    
C133  C137  A    
C55   C59   A    
C142  C146  A    
O7    Zn10  S    
N2    H77   S    
C104  C108  A    
C136  C140  A    
C47   O23   A    
O30   Zn2   S    
C125  O13   A    
N4    C156  S    
O42   Zn6   S    
C135  C139  A    
C19   C39   A    
C86   C110  A    
C20   C40   A    
C95   C99   A    
C131  O43   A    
C29   C33   A    
C100  C104  A    
C5    C149  A    
O3    Zn3   S    
C46   O26   A    
C54   C74   A    
C51   H71   S    
S4    O58   D    
O16   Zn11  S    
C83   H19   S    
C70   C74   A    
C153  H75   S    
C98   H22   S    
C81   H17   S    
C141  C145  A    
C26   H54   S    
C107  C124  S    
C76   C83   A    
C41   C49   S    
O48   Zn10  S    
O38   Zn2   S    
C97   H21   S    
C27   C31   A    
O22   Zn2   S    
C67   C79   A    
O19   Zn7   S    
C62   C66   A    
S2    O52   D    
C98   C102  A    
O11   Zn11  S    
C48   O28   A    
C19   C23   A    
C41   H61   S    
C78   C82   A    
N4    H85   S    
C68   C72   A    
C33   C125  S    
C142  H42   S    
C35   C127  S    
C10   H50   S    
C124  O8    A    
C52   H72   S    
C28   H56   S    
C59   C63   A    
O18   Zn6   S    
C74   C81   A    
O23   Zn3   S    
C126  O14   A    
C2    O2    A    
C50   H70   S    
C44   H64   S    
O1    Zn1   S    
C42   H66   S    
C57   C61   A    
C16   S4    S    
C127  O11   A    
C60   C64   A    
C18   C38   A    
N1    C153  S    
C2    C22   S    
C66   C70   A    
C91   O31   A    
O4    Zn4   S    
S4    O60   S    
C31   C35   A    
O25   Zn5   S    
C13   S1    S    
C69   C70   A    
C14   S2    S    
C61   C65   A    
C48   O24   A    
O45   Zn11  S    
C103  C107  A    
C79   H15   S    
C50   N2    S    
C80   H16   S    
O9    Zn9   S    
S3    O56   D    
O33   Zn5   S    
O35   Zn7   S    
C44   H68   S    
C43   C51   S    
C62   H10   S    
C5    C133  A    
O40   Zn4   S    
C64   C68   A    
N2    C154  S    
C65   C69   A    
C75   C84   A    
C103  H27   S    
C132  O44   A    
C58   C129  S    
C77   H13   S    
C92   C96   S    
O51   H89   S    
O43   Zn7   S    
C45   O25   A    
C85   C93   A    
C113  H29   S    
C156  H87   S    
C87   C95   A    
C47   C140  S    
O8    Zn9   S    
C9    C10   A    
C110  C114  S    
C47   O27   A    
C55   C75   A    
C44   C52   S    
C90   O30   A    
C146  C150  A    
C13   C14   A    
N3    C155  S    
C52   N4    S    
C36   C128  S    
C131  O39   A    
S1    O50   D    
C121  O5    A    
C30   C34   A    
C57   C130  S    
C46   O22   A    
C17   C49   S    
C17   C37   A    
C116  C120  S    
C88   C112  A    
C147  C151  A    
C87   C119  S    
C154  H78   S    
C115  H35   S    
C113  H33   S    
C141  H41   S    
O13   Zn10  S    
C2    O18   A    
C117  H37   S    
C10   C146  A    
C46   C137  S    
C113  C117  S    
C42   C50   S    
C26   C30   A    
C115  C119  S    
C102  H26   S    
C118  H46   S    
C121  O45   A    
C112  C116  S    
C123  O47   A    
C21   C25   A    
C124  O48   A    
C49   H69   S    
C18   C22   A    
C107  C111  A    
C64   H12   S    
O32   Zn4   S    
C24   C28   A    
C84   H20   S    
C41   H65   S    
C32   C36   A    
C29   H57   S    
C144  H44   S    
O15   Zn12  S    
O39   Zn3   S    
O46   Zn12  S    
C71   C72   A    
C116  H32   S    
C45   C138  S    
C105  C122  S    
C12   H52   S    
C136  H4    S    
C37   C41   S    
C126  O10   A    
C155  H84   S    
O27   Zn7   S    
C91   O35   A    
C91   C95   S    
C40   C44   S    
C99   H23   S    
S4    O59   D    
C4    O20   A    
C58   C62   A    
C88   C96   A    
C127  O15   A    
C93   C97   A    
C8    C136  A    
O12   Zn12  S    
C80   C84   A    
C77   C81   A    
C119  H47   S    
O26   Zn6   S    
C154  H80   S    
C85   C109  A    
C106  C110  A    
C4    C24   S    
C25   H53   S    
O47   Zn9   S    
C87   C111  A    
C94   C98   A    
S2    O53   D    
C105  C109  A    
O10   Zn10  S    
O34   Zn6   S    
C151  C152  A    
C69   C73   A    
C88   C120  S    
C63   H11   S    
C72   C76   A    
C132  O40   A    
S2    O54   S    
C55   H7    S    
O57   H91   S    
C25   C29   A    
C129  O37   A    
C60   C131  S    
C90   C94   S    
C66   C78   A    
C59   C132  S    
C78   H14   S    
C148  C152  A    
C65   C77   A    
C138  C142  A    
C45   O21   A    
C15   S3    S    
C114  H30   S    
O6    Zn11  S    
O41   Zn5   S    
C33   C37   A    
C108  C112  A    
O31   Zn3   S    
C35   C39   A    
C155  H82   S    
C30   H58   S    
N1    H73   S    
C153  H74   S    
C28   C32   A    
C34   C126  S    
C143  H43   S    
C153  H76   S    
C86   C118  S    
C11   H51   S    
C5    C14   A    
C130  O38   A    
C9    H49   S    
C7    C151  A    
C92   O32   A    
C7    C16   A    
C8    C15   A    
C133  H1    S    
C108  C123  S    
C3    O3    A    
C73   C82   A    
C51   N3    S    
C129  O41   A    
C18   C50   S    
C1    O1    A    
C137  C141  A    
C53   C57   A    
C8    C152  A    
C43   H67   S    
C140  C144  A    
C115  H31   S    
C38   C42   S    
C100  H24   S    
C128  O16   A    
O44   Zn8   S    
C114  H34   S    
C56   H8    S    
O28   Zn8   S    
O60   H92   S    
O14   Zn9   S    
O29   Zn1   S    
C149  C150  A    
C79   C83   A    
C118  H38   S    
C11   C147  A    
C134  H2    S    
O36   Zn8   S    
C9    C145  A    
C120  H48   S    
C67   C71   A    
C4    O4    A    
C17   C21   A    
C101  H25   S    
C122  O46   A    
S3    O55   D    
C130  O42   A    
C56   C60   A    
C123  O7    A    
C154  H79   S    
C156  H86   S    
C22   C26   A    
O2    Zn2   S    
C145  C149  A    
C68   C80   A    
C82   H18   S    
C1    C21   S    
C56   C76   A    
N3    H81   S    
C3    C23   S    
C144  C148  A    
C43   H63   S    
S1    O49   D    
C143  C147  A    
C116  H36   S    
C49   N1    S    
C61   H9    S    
C119  H39   S    
O24   Zn4   S    
C120  H40   S    
C32   H60   S    
O37   Zn1   S    
C15   C16   A    
C96   C100  A    
O20   Zn8   S    
C135  H3    S    
O21   Zn1   S    
C86   C94   A    
C20   C24   A    
C23   C27   A    
C109  C113  S    
S3    O57   S    
C89   O29   A    
C89   C93   S    
C139  C143  A    
C92   O36   A    
C101  C105  A    
C122  O6    A    
C63   C67   A    
O17   Zn5   S    
C36   C40   A    
C89   O33   A    
C39   C43   S    
O5    Zn12  S    
C85   C117  S    
C7    C135  A    
C42   H62   S    
C54   H6    S    
C156  H88   S    
C3    O19   A    
C6    C150  A    
C155  H83   S    
C114  C118  S    
C1    O17   A    
C117  H45   S    
C54   C58   A    
S1    O51   S    
C48   C139  S    
C34   C38   A    
C53   C73   A    
C134  C138  A    
C11   C12   A    
C53   H5    S    
C20   C52   S    
C12   C148  A    
C6    C134  A    
C6    C13   A    
C71   C75   A    
C104  H28   S    
C106  C121  S    
C102  C106  A    
C27   H55   S    
O54   H90   S    
C125  O9    A    
C19   C51   S    
C31   H59   S    
C111  C115  S    
C97   C101  A    
C90   O34   A    
