data_mof_unit_pretest_1051.cif
_audit_creation_date              2013-03-05T15:43:39-0500
_audit_creation_method            fapswitch 2.2
_symmetry_space_group_name_H-M    P1
_symmetry_Int_Tables_number       1
_space_group_crystal_system       triclinic
_cell_length_a                    15.897823
_cell_length_b                    10.904504
_cell_length_c                    9.689244
_cell_angle_alpha                 90.596924
_cell_angle_beta                  89.834981
_cell_angle_gamma                 90.065711
_cell_volume                      1679.60757382

loop_
_atom_site_label
_atom_site_type_symbol
_atom_site_description
_atom_site_fract_x
_atom_site_fract_y
_atom_site_fract_z
_atom_type_partial_charge
O1    O     O_R   0.500010 0.321960 0.617040 -0.574792
O2    O     O_R   0.499990 0.321920 0.382900 -0.535850
C1    C     C_R   0.502418 0.265257 0.499089 0.892657
O3    O     O_R   0.379450 0.500030 0.617120 -0.582623
O4    O     O_R   0.379420 0.499980 0.382980 -0.580506
C2    C     C_R   0.340298 0.500237 0.500311 0.809265
Cu1   Cu    Cu3+1 0.500020 0.500020 0.638630 0.980583
Cu2   Cu    Cu3+1 0.499980 0.499980 0.361370 1.005676
O5    O     O_R   0.500010 0.678080 0.617100 -0.579786
O6    O     O_R   0.499990 0.678040 0.382960 -0.581363
O7    O     O_R   0.620580 0.500020 0.617020 -0.557524
O8    O     O_R   0.620550 0.499970 0.382880 -0.538927
C3    C     C_R   0.502479 0.734803 0.500861 0.867759
C4    C     C_R   0.659693 0.499657 0.499745 0.840032
C5    C     C_3   0.048352 0.459604 0.653305 -0.126453
C6    C     C_3   0.050662 0.404270 0.395737 -0.439672
C7    C     C_3   0.952518 0.415415 0.375591 0.335618
H1    H     H_    0.939620 0.337707 0.636882 0.093443
H2    H     H_    0.085641 0.416735 0.297509 0.211619
H3    H     H_    0.067841 0.310086 0.427832 0.138180
C8    C     C_1   0.749114 0.497820 0.499476 -0.063726
C9    C     C_3   0.083272 0.495695 0.507502 0.155122
C10   C     C_3   0.950794 0.437803 0.642058 0.111817
C11   C     C_3   0.917012 0.494270 0.503120 0.011632
C12   C     C_3   0.951632 0.629223 0.487665 -0.100015
C13   C     C_3   0.049429 0.625491 0.474200 -0.428656
C14   C     C_1   0.824527 0.495929 0.500607 0.016681
C15   C     C_1   0.175428 0.498532 0.504301 -0.044070
C16   C     C_1   0.250833 0.499776 0.501468 -0.186361
H4    H     H_    0.079569 0.694461 0.543722 0.166143
H5    H     H_    0.068145 0.650887 0.367490 0.210929
H6    H     H_    0.059806 0.541027 0.720674 0.198087
H7    H     H_    0.926242 0.666558 0.389777 0.213346
C17   C     C_2   0.523987 0.931475 0.390156 -0.219190
C18   C     C_2   0.512003 0.866735 0.505194 -0.382199
H8    H     H_    0.528225 0.884995 0.290674 0.207457
H9    H     H_    0.514533 0.909406 0.606711 0.168500
C19   C     C_2   0.537115 0.064992 0.394412 0.365652
C20   C     C_2   0.501915 0.132628 0.496978 -0.427581
H10   H     H_    0.465911 0.090680 0.579122 0.127690
C21   C     C_2   0.450746 0.430368 0.921518 -0.046290
N1    N     N_2   0.499090 0.498660 0.846910 -0.272688
H11   H     H_    0.406350 0.370164 0.869579 0.151300
H12   H     H_    0.543047 0.553368 0.894401 0.210311
C22   C     C_2   0.452584 0.427673 0.077208 -0.017540
N2    N     N_2   0.499070 0.498630 0.153040 -0.268038
H13   H     H_    0.411586 0.362495 0.128011 0.146081
H14   H     H_    0.536314 0.563081 0.106591 0.204231
N3    N     N_R   0.904470 0.480759 0.765853 0.126793
O9    O     O_R   0.942664 0.535738 0.867801 -0.322416
O10   O     O_R   0.828000 0.442228 0.786408 -0.330431
N4    N     N_R   0.587779 0.119606 0.287723 0.145093
O11   O     O_R   0.586815 0.073747 0.163228 -0.361831
O12   O     O_R   0.645575 0.199527 0.319861 -0.355499
C23   C     C_3   0.093305 0.348429 0.721641 -0.403831
C24   C     C_3   0.160336 0.389174 0.826847 -0.324585
C25   C     C_3   0.206447 0.279345 0.886811 -0.850507
H15   H     H_    0.161283 0.216996 0.938669 0.257596
H16   H     H_    0.240130 0.228183 0.803782 0.251512
H17   H     H_    0.253163 0.311733 0.964031 0.233647
H18   H     H_    0.207125 0.450548 0.777820 0.227407
H19   H     H_    0.129579 0.440828 0.912690 0.252669
H20   H     H_    0.046938 0.291428 0.778524 0.217579
H21   H     H_    0.122585 0.287931 0.642228 0.200223
C26   C     C_3   0.913926 0.282859 0.366298 -0.428000
C27   C     C_3   0.938510 0.213706 0.232480 -0.286619
C28   C     C_3   0.908604 0.080706 0.235445 -0.811001
H22   H     H_    0.941167 0.030770 0.319065 0.237757
H23   H     H_    0.839480 0.076430 0.252510 0.291181
H24   H     H_    0.923643 0.035010 0.135426 0.249639
H25   H     H_    0.909637 0.258798 0.141859 0.282884
H26   H     H_    0.007891 0.214257 0.218290 0.204884
H27   H     H_    0.934385 0.226367 0.454552 0.166339
H28   H     H_    0.844172 0.287310 0.370566 0.241223
N5    N     N_R   0.931857 0.478809 0.244975 0.134112
O13   O     O_R   0.989756 0.526711 0.166922 -0.359957
O14   O     O_R   0.853789 0.488476 0.206255 -0.320635
C29   C     C_3   0.922880 0.719985 0.603393 -0.342181
C30   C     C_3   0.927686 0.853910 0.556068 -0.427347
C31   C     C_3   0.903673 0.942752 0.672336 -0.773118
H29   H     H_    0.838416 0.924537 0.707989 0.270116
H30   H     H_    0.947595 0.933249 0.760532 0.253597
H31   H     H_    0.907215 0.038392 0.634380 0.235198
H32   H     H_    0.992436 0.875933 0.520599 0.222782
H33   H     H_    0.883785 0.867389 0.468452 0.234271
H34   H     H_    0.856794 0.700944 0.633881 0.232213
H35   H     H_    0.962668 0.709355 0.696345 0.243281

loop_
_geom_bond_atom_site_label_1
_geom_bond_atom_site_label_2
_geom_bond_distance
_ccdc_geom_bond_type
C29   H35   1.109197 S    
C23   C24   1.538774 S    
C21   N1    1.294044 D    
C11   C14   1.470707 S    
Cu1   Cu2   2.686436 S    
C22   N2    1.294091 D    
Cu1   O7    1.927445 S    
C4    C8    1.421753 S    
C15   C16   1.199064 T    
C18   H9    1.084565 S    
C3    C18   1.446611 S    
C31   H31   1.110763 S    
C30   H32   1.111094 S    
O7    C4    1.293716 A    
C25   H16   1.110879 S    
C19   N4    1.441863 S    
C26   H27   1.108842 S    
C24   C25   1.525855 S    
C17   C18   1.338634 D    
Cu1   N1    2.018296 S    
N3    O9    1.301592 A    
O5    C3    1.291050 A    
O1    Cu1   1.950724 S    
C5    C9    1.570174 S    
C27   H26   1.111175 S    
C6    C7    1.577974 S    
N3    O10   1.301276 A    
C23   H20   1.112312 S    
C10   C11   1.581785 S    
C6    H3    1.110806 S    
C29   H34   1.110478 S    
C5    C10   1.572732 S    
C27   C28   1.526252 S    
C8    C14   1.199197 T    
C1    C20   1.446196 S    
C13   H5    1.112770 S    
C9    C15   1.465617 S    
C21   H11   1.084663 S    
N1    H12   1.025266 S    
O3    Cu1   1.928693 S    
N4    O12   1.301875 A    
C22   H13   1.084731 S    
C19   C20   1.351728 D    
N2    H14   1.025264 S    
C7    C11   1.599944 S    
H1    C10   1.106303 S    
C5    H6    1.111662 S    
C11   C12   1.578990 S    
O3    C2    1.293247 A    
C20   H10   1.083845 S    
C29   C30   1.536986 S    
C25   H17   1.110494 S    
C12   C13   1.560393 S    
C12   C29   1.555886 S    
C26   H28   1.110691 S    
C28   H22   1.110498 S    
O1    C1    1.294213 A    
C5    C23   1.562137 S    
N5    O13   1.301999 A    
C27   H25   1.111426 S    
Cu2   O8    1.928695 S    
C23   H21   1.109956 S    
N5    O14   1.302312 A    
C31   H30   1.110864 S    
O8    C4    1.293666 A    
C13   H4    1.113317 S    
C24   H19   1.112074 S    
C30   H33   1.111601 S    
N4    O11   1.301116 A    
Cu1   O5    1.954989 S    
C6    C9    1.554005 S    
C17   C19   1.470758 S    
O2    Cu2   1.954991 S    
C31   H29   1.110845 S    
O6    C3    1.294293 A    
O4    Cu2   1.927447 S    
C7    C26   1.571449 S    
C28   H24   1.110640 S    
O2    C1    1.290521 A    
C25   H15   1.110938 S    
O4    C2    1.294268 A    
C6    H2    1.110410 S    
C17   H8    1.086308 S    
Cu2   N2    2.018555 S    
C10   N3    1.478012 S    
C30   C31   1.526110 S    
C2    C16   1.422319 S    
Cu2   O6    1.950723 S    
C26   C27   1.542702 S    
C9    C13   1.552128 S    
C7    N5    1.486123 S    
C21   C22   1.509476 S    
C24   H18   1.109197 S    
C28   H23   1.111819 S    
C12   H7    1.113054 S    
