data_mof_unit_pretest_1886.cif
_audit_creation_date              2012-12-10T18:05:46-0500
_audit_creation_method            fapswitch 2.2
_symmetry_space_group_name_H-M    P1
_symmetry_Int_Tables_number       1
_space_group_crystal_system       triclinic
_cell_length_a                    25.984465
_cell_length_b                    25.949441
_cell_length_c                    22.203806
_cell_angle_alpha                 90.001597
_cell_angle_beta                  54.167053
_cell_angle_gamma                 89.999165
_cell_volume                      12137.9128561

loop_
_atom_site_label
_atom_site_type_symbol
_atom_type_description
_atom_site_fract_x
_atom_site_fract_y
_atom_site_fract_z
_atom_type_partial_charge
C1    C     C_R   0.400282 0.250017 0.699447 0.823782
C2    C     C_3   0.240253 0.706280 0.975112 -0.211036
C3    C     C_3   0.239375 0.206684 0.975158 -0.213490
C4    C     C_3   0.735586 0.291132 0.975168 -0.213650
C5    C     C_3   0.264275 0.708896 0.024822 -0.213711
C6    C     C_3   0.260629 0.293304 0.024840 -0.213445
C7    C     C_3   0.738907 0.706938 0.975157 -0.213502
C8    C     C_3   0.689677 0.247354 0.024507 0.256564
C9    C     C_3   0.310268 0.752632 0.975484 0.256526
C10   C     C_3   0.310344 0.251592 0.975488 0.256565
C11   C     C_3   0.689646 0.748920 0.024510 0.256474
C12   C     C_3   0.189671 0.747447 0.024509 0.256568
C13   C     C_3   0.236565 0.291663 0.975129 -0.210842
C14   C     C_3   0.810263 0.252725 0.975486 0.256522
C15   C     C_3   0.810358 0.751068 0.975488 0.256560
C16   C     C_3   0.189661 0.248397 0.024510 0.256482
C17   C     C_1   0.639468 0.249998 0.221171 -0.144057
C18   C     C_1   0.360499 0.750041 0.778825 -0.144672
C19   C     C_1   0.360517 0.249981 0.778827 -0.145133
C20   C     C_1   0.639484 0.750014 0.221172 -0.144401
C21   C     C_1   0.139469 0.749998 0.221171 -0.144057
C22   C     C_1   0.860499 0.250041 0.778825 -0.144671
C23   C     C_1   0.860517 0.749983 0.778827 -0.145134
C24   C     C_3   0.762985 0.708045 0.024869 -0.210951
C25   C     C_1   0.139484 0.250015 0.221172 -0.144400
C26   C     C_3   0.620453 0.244278 0.053005 -0.925741
C27   C     C_3   0.379499 0.755603 0.946983 -0.925519
C28   C     C_3   0.379623 0.253416 0.946989 -0.926316
C29   C     C_3   0.620350 0.747694 0.053006 -0.925817
C30   C     C_3   0.120441 0.744478 0.053008 -0.925749
C31   C     C_3   0.879487 0.255803 0.946987 -0.925510
C32   C     C_3   0.879654 0.752294 0.946990 -0.926249
C33   C     C_3   0.120381 0.246571 0.053007 -0.925888
C34   C     C_3   0.393495 0.059067 0.460653 -0.713366
C35   C     C_3   0.259687 0.793799 0.024881 -0.210936
C36   C     C_3   0.611941 0.934970 0.530817 -0.692625
C37   C     C_3   0.611357 0.064442 0.532084 -0.694901
C38   C     C_3   0.348123 0.930783 0.606889 -0.805031
C39   C     C_3   0.893466 0.559067 0.460698 -0.713392
C40   C     C_3   0.111968 0.434969 0.530771 -0.692640
C41   C     C_3   0.111381 0.564444 0.532043 -0.694916
C42   C     C_3   0.848123 0.430789 0.606934 -0.805046
C43   C     C_3   0.740338 0.206237 0.975112 -0.211038
C44   C     C_3   0.737019 0.791943 0.975129 -0.210857
C45   C     C_3   0.263439 0.208325 0.024869 -0.210938
C46   C     C_3   0.713501 0.250028 0.073290 0.144951
C47   C     C_3   0.286437 0.750052 0.926703 0.144956
C48   C     C_3   0.286471 0.249973 0.926706 0.144876
C49   C     C_R   0.599719 0.749983 0.300553 0.820925
C50   C     C_3   0.713533 0.750014 0.073292 0.144842
C51   C     C_3   0.213502 0.750027 0.073290 0.144951
C52   C     C_3   0.786438 0.250051 0.926703 0.144955
C53   C     C_3   0.786471 0.749975 0.926706 0.144886
C54   C     C_3   0.213533 0.250016 0.073292 0.144831
C55   C     C_1   0.672923 0.250005 0.154408 -0.057513
C56   C     C_1   0.327027 0.750058 0.845586 -0.057158
C57   C     C_1   0.327054 0.249968 0.845589 -0.056965
C58   C     C_1   0.672948 0.750022 0.154410 -0.056988
C59   C     C_1   0.172924 0.750004 0.154408 -0.057508
C60   C     C_R   0.599717 0.250017 0.300553 0.818915
C61   C     C_1   0.827028 0.250057 0.845586 -0.057162
C62   C     C_1   0.827055 0.749970 0.845589 -0.056975
C63   C     C_1   0.172948 0.250024 0.154410 -0.056977
C64   C     C_R   0.299122 0.215035 0.455203 -0.194573
C65   C     C_R   0.700891 0.784992 0.544763 -0.195111
C66   C     C_R   0.700585 0.215370 0.545371 -0.195462
C67   C     C_R   0.299481 0.784478 0.454471 -0.192356
C68   C     C_R   0.799122 0.715035 0.455204 -0.194575
C69   C     C_R   0.200891 0.284992 0.544763 -0.195114
C70   C     C_R   0.200586 0.715370 0.545370 -0.195465
C71   C     C_R   0.400274 0.749994 0.699446 0.821569
C72   C     C_R   0.799481 0.284478 0.454470 -0.192354
C73   C     C_R   0.245773 0.215065 0.455122 -0.190666
C74   C     C_R   0.754242 0.784963 0.544844 -0.189465
C75   C     C_R   0.753937 0.215400 0.545452 -0.189701
C76   C     C_R   0.246126 0.784462 0.454406 -0.190241
C77   C     C_R   0.745773 0.715064 0.455122 -0.190666
C78   C     C_R   0.254241 0.284963 0.544844 -0.189466
C79   C     C_R   0.253937 0.715399 0.545452 -0.189703
C80   C     C_R   0.746126 0.284461 0.454406 -0.190242
C81   C     C_R   0.196361 0.250026 0.499924 0.009825
C82   C     C_R   0.900282 0.750017 0.699447 0.823776
C83   C     C_R   0.803650 0.749997 0.500048 0.007684
C84   C     C_R   0.803669 0.249957 0.500005 0.007026
C85   C     C_R   0.196375 0.749935 0.499890 0.009572
C86   C     C_R   0.696361 0.750026 0.499924 0.009824
C87   C     C_R   0.303650 0.249998 0.500048 0.007685
C88   C     C_R   0.303669 0.749957 0.500005 0.007024
C89   C     C_R   0.696375 0.249935 0.499890 0.009575
C90   C     C_R   0.447801 0.027262 0.511800 0.143826
C91   C     C_R   0.552197 0.972906 0.488499 0.150793
C92   C     C_R   0.552338 0.026876 0.488619 0.138204
C93   C     C_R   0.099719 0.249983 0.300553 0.820930
C94   C     C_R   0.446683 0.973300 0.513926 0.131907
C95   C     C_R   0.947794 0.527262 0.511817 0.143834
C96   C     C_R   0.052203 0.472906 0.488482 0.150797
C97   C     C_R   0.052344 0.526876 0.488602 0.138200
C98   C     C_R   0.946677 0.473300 0.513944 0.131909
C99   C     C_R   0.499626 0.946188 0.500450 -0.195241
C100  C     C_R   0.500332 0.053830 0.499621 -0.198387
C101  C     C_R   0.999626 0.446188 0.500450 -0.195234
C102  C     C_R   0.000332 0.553830 0.499621 -0.198377
C103  C     C_R   0.640270 0.249997 0.499937 0.785141
C104  C     C_R   0.099717 0.750017 0.300552 0.818915
C105  C     C_R   0.359741 0.749976 0.500036 0.789063
C106  C     C_R   0.359737 0.250015 0.500045 0.791346
C107  C     C_R   0.640267 0.749994 0.499944 0.785748
C108  C     C_R   0.140270 0.749997 0.499937 0.785136
C109  C     C_R   0.859741 0.249975 0.500036 0.789065
C110  C     C_R   0.859737 0.750015 0.500045 0.791348
C111  C     C_R   0.140267 0.249994 0.499944 0.785745
C112  C     C_R   0.500120 0.109934 0.499880 0.861655
C113  C     C_R   0.499693 0.890072 0.500262 0.835091
C114  C     C_R   0.000119 0.609934 0.499880 0.861664
C115  C     C_R   0.900274 0.249994 0.699446 0.821568
C116  C     C_R   0.999693 0.390072 0.500262 0.835085
C117  C     C_R   0.499999 0.390246 0.500000 0.789193
C118  C     C_R   0.500001 0.609754 0.499999 0.789507
C119  C     C_R   0.999999 0.890246 0.500000 0.789191
C120  C     C_R   0.000001 0.109754 0.499999 0.789508
C121  C     C_R   0.557020 0.473288 0.452904 -0.191682
C122  C     C_R   0.442978 0.526711 0.547091 -0.192152
C123  C     C_R   0.442977 0.473293 0.547092 -0.192288
C124  C     C_R   0.557021 0.526707 0.452904 -0.191877
C125  C     C_R   0.057020 0.973289 0.452904 -0.191680
C126  C     C_3   0.759601 0.293842 0.024882 -0.210937
C127  C     C_R   0.942978 0.026712 0.547091 -0.192154
C128  C     C_R   0.942977 0.973293 0.547092 -0.192290
C129  C     C_R   0.057021 0.026707 0.452904 -0.191875
C130  C     C_R   0.500000 0.553679 0.499998 0.007780
C131  C     C_R   0.499998 0.446321 0.499999 0.007910
C132  C     C_R   0.000000 0.053679 0.499998 0.007781
C133  C     C_R   0.999998 0.946321 0.499999 0.007910
C134  C     C_3   0.235665 0.791184 0.975170 -0.213654
C135  C     C_3   0.764354 0.208948 0.024823 -0.213705
C136  C     C_3   0.761097 0.793050 0.024841 -0.213458
H1    H     H_    0.601601 0.453194 0.416096 0.161424
H2    H     H_    0.776250 0.175526 0.045771 0.145575
H3    H     H_    0.770317 0.828115 0.045801 0.145736
H4    H     H_    0.230538 0.171407 0.954197 0.145546
H5    H     H_    0.723692 0.324553 0.954217 0.145516
H6    H     H_    0.276108 0.675430 0.045768 0.145576
H7    H     H_    0.269466 0.328581 0.045801 0.145746
H8    H     H_    0.729688 0.671874 0.954196 0.145538
H9    H     H_    0.232154 0.670627 0.954116 0.146858
H10   H     H_    0.767631 0.329531 0.045879 0.146871
H11   H     H_    0.773743 0.673909 0.045854 0.146966
H12   H     H_    0.398397 0.546806 0.583900 0.161085
H13   H     H_    0.225438 0.325566 0.954144 0.147022
H14   H     H_    0.732309 0.170548 0.954115 0.146853
H15   H     H_    0.267786 0.829452 0.045877 0.146875
H16   H     H_    0.274566 0.174423 0.045854 0.146979
H17   H     H_    0.726261 0.826079 0.954144 0.147009
H18   H     H_    0.336671 0.187617 0.420296 0.158961
H19   H     H_    0.663339 0.812405 0.579677 0.156359
H20   H     H_    0.662767 0.188292 0.580820 0.156627
H21   H     H_    0.337312 0.811534 0.418986 0.160447
H22   H     H_    0.836671 0.687617 0.420297 0.158963
H23   H     H_    0.398396 0.453202 0.583900 0.161041
H24   H     H_    0.163339 0.312404 0.579678 0.156363
H25   H     H_    0.162767 0.688291 0.580819 0.156633
H26   H     H_    0.837313 0.311533 0.418984 0.160445
H27   H     H_    0.243216 0.187680 0.420137 0.160644
H28   H     H_    0.756798 0.812347 0.579830 0.160302
H29   H     H_    0.756223 0.188356 0.580979 0.160511
H30   H     H_    0.243844 0.811506 0.418876 0.161073
H31   H     H_    0.743216 0.687680 0.420137 0.160645
H32   H     H_    0.256797 0.312346 0.579830 0.160301
H33   H     H_    0.256223 0.688355 0.580978 0.160513
H34   H     H_    0.601602 0.546798 0.416095 0.161324
H35   H     H_    0.743844 0.311505 0.418875 0.161072
H36   H     H_    0.617277 0.242781 0.005325 0.242773
H37   H     H_    0.598520 0.209066 0.087304 0.246472
H38   H     H_    0.594621 0.278724 0.087342 0.244397
H39   H     H_    0.382680 0.757048 0.994661 0.242798
H40   H     H_    0.405264 0.721140 0.912645 0.244370
H41   H     H_    0.401498 0.790806 0.912684 0.246535
H42   H     H_    0.382826 0.254321 0.994669 0.242867
H43   H     H_    0.404665 0.218771 0.912677 0.246519
H44   H     H_    0.402360 0.288500 0.912665 0.244228
H45   H     H_    0.101601 0.953194 0.416095 0.161425
H46   H     H_    0.617141 0.747083 0.005325 0.242794
H47   H     H_    0.597234 0.712673 0.087329 0.244259
H48   H     H_    0.595684 0.782422 0.087318 0.246699
H49   H     H_    0.117261 0.743033 0.005330 0.242775
H50   H     H_    0.098440 0.709275 0.087308 0.246472
H51   H     H_    0.094676 0.778941 0.087347 0.244392
H52   H     H_    0.882664 0.257301 0.994666 0.242797
H53   H     H_    0.905319 0.221357 0.912650 0.244374
H54   H     H_    0.901418 0.291015 0.912686 0.246536
H55   H     H_    0.882865 0.752903 0.994670 0.242863
H56   H     H_    0.898397 0.046806 0.583899 0.161085
H57   H     H_    0.904320 0.717566 0.912676 0.246523
H58   H     H_    0.902771 0.787315 0.912667 0.244235
H59   H     H_    0.117180 0.245666 0.005326 0.242798
H60   H     H_    0.097645 0.211488 0.087331 0.244251
H61   H     H_    0.095339 0.281216 0.087318 0.246696
H62   H     H_    0.351964 0.043802 0.571679 0.237412
H63   H     H_    0.354993 0.085838 0.473328 0.225283
H64   H     H_    0.384244 0.020702 0.446596 0.230753
H65   H     H_    0.439187 0.074290 0.411852 0.257073
H66   H     H_    0.621677 0.915832 0.433055 0.204194
H67   H     H_    0.898396 0.953202 0.583900 0.161041
H68   H     H_    0.611287 0.892670 0.538944 0.239100
H69   H     H_    0.572092 0.952404 0.583883 0.231989
H70   H     H_    0.657396 0.950403 0.517290 0.227494
H71   H     H_    0.622104 0.083764 0.433809 0.202880
H72   H     H_    0.610403 0.106722 0.540547 0.239364
H73   H     H_    0.656727 0.049123 0.518949 0.227773
H74   H     H_    0.571373 0.046798 0.584855 0.231867
H75   H     H_    0.400055 0.919135 0.492729 0.251467
H76   H     H_    0.370031 0.900235 0.620095 0.232850
H77   H     H_    0.304361 0.915088 0.615902 0.239694
H78   H     H_    0.101602 0.046798 0.416095 0.161325
H79   H     H_    0.334685 0.963950 0.645061 0.242534
H80   H     H_    0.851956 0.543802 0.571719 0.237416
H81   H     H_    0.854958 0.585836 0.473385 0.225285
H82   H     H_    0.884214 0.520702 0.446644 0.230763
H83   H     H_    0.939153 0.574294 0.411891 0.257078
H84   H     H_    0.121680 0.415831 0.433024 0.204191
H85   H     H_    0.111312 0.392670 0.538900 0.239096
H86   H     H_    0.072127 0.452407 0.583842 0.231994
H87   H     H_    0.157428 0.450400 0.517230 0.227500
H88   H     H_    0.122109 0.583764 0.433779 0.202875
H89   H     H_    0.223834 0.824649 0.954221 0.145516
H90   H     H_    0.110429 0.606724 0.540503 0.239359
H91   H     H_    0.156754 0.549125 0.518898 0.227779
H92   H     H_    0.071402 0.546801 0.584819 0.231870
H93   H     H_    0.900033 0.419130 0.492779 0.251456
H94   H     H_    0.870040 0.400245 0.620134 0.232860
H95   H     H_    0.804356 0.415090 0.615965 0.239696
H96   H     H_    0.834693 0.463959 0.645098 0.242539
N1    N     N_2   0.395015 0.055262 0.524627 -0.294266
N2    N     N_2   0.607599 0.945960 0.469908 -0.276670
N3    N     N_2   0.607673 0.053585 0.470657 -0.276478
N4    N     N_2   0.391581 0.947105 0.530435 -0.304252
N5    N     N_2   0.895003 0.555262 0.524660 -0.294277
N6    N     N_2   0.107611 0.445959 0.469875 -0.276674
N7    N     N_2   0.107684 0.553585 0.470626 -0.276481
N8    N     N_2   0.891568 0.447104 0.530475 -0.304255
O1    O     O_3   0.500000 0.250030 0.500000 -0.476714
O2    O     O_R   0.112550 0.219620 0.335580 -0.638101
O3    O     O_R   0.112550 0.780380 0.335580 -0.638062
O4    O     O_R   0.887450 0.219620 0.664420 -0.637861
O5    O     O_R   0.594260 0.219670 0.543090 -0.658028
O6    O     O_R   0.405740 0.780330 0.456910 -0.650183
O7    O     O_R   0.405740 0.219670 0.456910 -0.645024
O8    O     O_R   0.594260 0.780330 0.543090 -0.657238
O9    O     O_R   0.094260 0.719670 0.543090 -0.658026
O10   O     O_R   0.905740 0.280330 0.456910 -0.650184
O11   O     O_R   0.905740 0.719670 0.456910 -0.645025
O12   O     O_3   0.500000 0.749970 0.500000 -0.474595
O13   O     O_R   0.094260 0.280330 0.543090 -0.657236
O14   O     O_R   0.508800 0.134220 0.543090 -0.643418
O15   O     O_R   0.491200 0.865780 0.456910 -0.655959
O16   O     O_R   0.491200 0.134220 0.456910 -0.633561
O17   O     O_R   0.508800 0.865780 0.543090 -0.636225
O18   O     O_R   0.008800 0.634220 0.543090 -0.643413
O19   O     O_R   0.991200 0.365780 0.456910 -0.655961
O20   O     O_R   0.991200 0.634220 0.456910 -0.633571
O21   O     O_R   0.008800 0.365780 0.543090 -0.636221
O22   O     O_R   0.448100 0.365830 0.543110 -0.648936
O23   O     O_3   0.000000 0.750030 0.500000 -0.476714
O24   O     O_R   0.551900 0.634170 0.456890 -0.648311
O25   O     O_R   0.551900 0.365830 0.456890 -0.648206
O26   O     O_R   0.448100 0.634170 0.543110 -0.648519
O27   O     O_R   0.948100 0.865830 0.543110 -0.648937
O28   O     O_R   0.051900 0.134170 0.456890 -0.648310
O29   O     O_R   0.051900 0.865830 0.456890 -0.648206
O30   O     O_R   0.948100 0.134170 0.543110 -0.648520
O31   O     O_R   0.637370 0.280400 0.456880 -0.647392
O32   O     O_R   0.362630 0.719600 0.543120 -0.648260
O33   O     O_R   0.362630 0.280400 0.543120 -0.648990
O34   O     O_3   0.000000 0.249970 0.500000 -0.474595
O35   O     O_R   0.637370 0.719600 0.456880 -0.647248
O36   O     O_R   0.137370 0.780400 0.456880 -0.647392
O37   O     O_R   0.862630 0.219600 0.543120 -0.648259
O38   O     O_R   0.862630 0.780400 0.543120 -0.648989
O39   O     O_R   0.137370 0.219600 0.456880 -0.647250
O40   O     O_R   0.448170 0.219660 0.664410 -0.636103
O41   O     O_R   0.551830 0.780340 0.335590 -0.636903
O42   O     O_R   0.551830 0.219660 0.335590 -0.640370
O43   O     O_R   0.448170 0.780340 0.664410 -0.637077
O44   O     O_R   0.948170 0.719660 0.664410 -0.636094
O45   O     O_R   0.387450 0.280380 0.664420 -0.637877
O46   O     O_R   0.051830 0.280340 0.335590 -0.636908
O47   O     O_R   0.051830 0.719660 0.335590 -0.640371
O48   O     O_R   0.948170 0.280340 0.664410 -0.637075
O49   O     O_R   0.612550 0.719620 0.335580 -0.638103
O50   O     O_R   0.612550 0.280380 0.335580 -0.638063
O51   O     O_R   0.387450 0.719620 0.664420 -0.637859
O52   O     O_R   0.887450 0.780380 0.664420 -0.637879
Zn1   Zn    Zn3+2 0.574170 0.293410 0.438410 0.964310
Zn2   Zn    Zn3+2 0.487410 0.793350 0.438420 0.959056
Zn3   Zn    Zn3+2 0.487410 0.206650 0.438420 0.966680
Zn4   Zn    Zn3+2 0.512590 0.793350 0.561580 0.956026
Zn5   Zn    Zn3+2 0.012590 0.706650 0.561580 0.958591
Zn6   Zn    Zn3+2 0.987410 0.293350 0.438420 0.959057
Zn7   Zn    Zn3+2 0.987410 0.706650 0.438420 0.966679
Zn8   Zn    Zn3+2 0.012590 0.293350 0.561580 0.956031
Zn9   Zn    Zn3+2 0.425830 0.706590 0.561590 0.966712
Zn10  Zn    Zn3+2 0.425830 0.293410 0.561590 0.968510
Zn11  Zn    Zn3+2 0.574170 0.706590 0.438410 0.965895
Zn12  Zn    Zn3+2 0.074170 0.793410 0.438410 0.964310
Zn13  Zn    Zn3+2 0.925830 0.206590 0.561590 0.966713
Zn14  Zn    Zn3+2 0.925830 0.793410 0.561590 0.968509
Zn15  Zn    Zn3+2 0.074170 0.206590 0.438410 0.965896
Zn16  Zn    Zn3+2 0.512590 0.206650 0.561580 0.958584

loop_
_geom_bond_atom_site_label_1
_geom_bond_atom_site_label_2
_ccdc_geom_bond_type
O40   Zn16  S    
O19   Zn6   S    
C25   C93   S    
O50   Zn1   S    
C8    C26   S    
C39   H82   S    
C74   C83   A    
C15   C32   S    
C91   N2    S    
C21   C59   T    
C52   C61   S    
C93   O46   A    
O42   Zn3   S    
O30   Zn13  S    
C54   C63   S    
C34   H65   S    
C7    C24   S    
C3    C48   S    
C68   C77   A    
C69   H24   S    
C120  O30   A    
C129  H78   S    
O13   Zn8   S    
C44   C53   S    
C14   C52   S    
O10   Zn6   S    
C46   C55   S    
C76   H30   S    
C122  H12   S    
C107  O35   A    
O5    Zn16  S    
C123  C131  A    
C42   H95   S    
C26   H36   S    
H84   N6    S    
C6    C54   S    
C68   H22   S    
C35   C134  S    
O37   Zn13  S    
C66   C89   A    
C42   N8    S    
C26   H37   S    
O6    Zn2   S    
C32   H55   S    
C128  H67   S    
C111  O39   A    
C30   H49   S    
C99   C113  S    
C102  C114  S    
H66   N2    S    
O39   Zn15  S    
O48   Zn8   S    
C124  C130  A    
C75   H29   S    
C36   H70   S    
C28   H44   S    
C72   C84   A    
C117  O22   A    
C47   C134  S    
C35   C51   S    
C37   H72   S    
C7    C53   S    
C12   C51   S    
C18   C71   S    
C41   H90   S    
O22   Zn10  S    
C70   C79   A    
C68   C83   A    
C27   H40   S    
O29   Zn12  S    
C2    C47   S    
C14   C126  S    
C40   H85   S    
C93   O2    A    
C30   H51   S    
C73   H27   S    
O27   Zn14  S    
C74   H28   S    
C123  H23   S    
C16   C54   S    
C34   H64   S    
C5    C51   S    
C38   H76   S    
O1    Zn1   S    
C78   C87   A    
C111  O13   A    
C23   C82   S    
O44   Zn5   S    
C14   C31   S    
C82   O44   A    
H71   N3    S    
C48   C57   S    
C31   H54   S    
C103  O5    A    
C39   H83   S    
C16   C33   S    
C43   C52   S    
C14   C135  S    
C36   N2    S    
C95   N5    S    
C121  H1    S    
C40   N6    S    
O17   Zn4   S    
C23   C62   T    
C33   H60   S    
C64   C73   A    
O14   Zn16  S    
C106  O7    A    
C64   C87   A    
C105  O32   A    
C41   H92   S    
C12   C134  S    
C89   C103  S    
C106  O33   A    
O15   Zn2   S    
C37   N3    S    
C24   C50   S    
C97   N7    S    
C29   H46   S    
C40   H87   S    
C134  H89   S    
C107  O8    A    
O33   Zn10  S    
C91   C92   A    
C15   C136  S    
C65   C74   A    
C90   N1    S    
C103  O31   A    
C5    C9    S    
C20   C49   S    
C125  C129  A    
C112  O14   A    
C10   C45   S    
O25   Zn1   S    
C83   C110  S    
C11   C44   S    
C67   H21   S    
C43   H14   S    
C116  O19   A    
C15   C24   S    
C2    C5    S    
C20   C58   T    
C39   N5    S    
O28   Zn15  S    
C96   N6    S    
C39   H81   S    
C32   H57   S    
C24   H11   S    
C77   C86   A    
C109  O37   A    
C95   C102  A    
O20   Zn7   S    
C77   H31   S    
C104  O3    A    
C78   H32   S    
C84   C109  S    
C4    C126  S    
C71   O43   A    
O23   Zn12  S    
C65   H19   S    
O4    Zn13  S    
C22   C61   T    
C66   H20   S    
C88   C105  S    
C5    H6    S    
C76   C85   A    
C49   O41   A    
C117  C131  S    
C8    C46   S    
C37   H74   S    
C17   C60   S    
C115  O4    A    
C13   C16   S    
C72   H26   S    
C91   C99   A    
C70   C85   A    
C117  O25   A    
C3    C16   S    
C47   C56   S    
C42   H96   S    
C44   C136  S    
C60   O50   A    
C120  O28   A    
C29   H48   S    
C8    C43   S    
C38   H79   S    
C1    O45   A    
C65   C86   A    
C19   C57   T    
C2    H9    S    
C67   C88   A    
O47   Zn7   S    
C15   C53   S    
C38   N4    S    
C112  O16   A    
C98   N8    S    
C26   H38   S    
O18   Zn5   S    
C73   C81   A    
C80   C89   A    
O31   Zn1   S    
C119  O29   A    
C116  O21   A    
C46   C135  S    
C21   C104  S    
O23   Zn7   S    
C85   C108  S    
C97   C102  A    
C129  C132  A    
O12   Zn4   S    
C96   C101  A    
C35   H15   S    
C136  H3    S    
C79   C88   A    
O34   Zn15  S    
C90   C94   A    
C109  O10   A    
C1    C19   S    
C125  H45   S    
C50   C58   S    
C27   H39   S    
C4    H5    S    
H62   N1    S    
O11   Zn7   S    
C40   H86   S    
C118  C130  S    
O34   Zn8   S    
O16   Zn3   S    
C115  O48   A    
C82   O52   A    
C42   H94   S    
C9    C47   S    
C10   C48   S    
O49   Zn11  S    
C60   O42   A    
C44   H17   S    
C38   H77   S    
C127  C128  A    
O51   Zn9   S    
C70   H25   S    
O52   Zn14  S    
C9    C27   S    
C41   N7    S    
C10   C28   S    
C12   C30   S    
C27   H41   S    
O23   Zn14  S    
C108  O36   A    
O32   Zn9   S    
C6    C10   S    
C98   C101  A    
C31   H53   S    
C92   N3    S    
C108  O9    A    
C45   H16   S    
C79   H33   S    
O24   Zn11  S    
C11   C50   S    
C66   C75   A    
C3    C45   S    
C36   H69   S    
O23   Zn5   S    
C75   C84   A    
C28   H43   S    
C69   C81   A    
O1    Zn16  S    
C118  O24   A    
C33   H59   S    
C72   C80   A    
O2    Zn15  S    
C9    C35   S    
C101  C116  S    
O12   Zn9   S    
C80   H35   S    
C114  O20   A    
O34   Zn13  S    
C110  O38   A    
C135  H2    S    
O9    Zn5   S    
C41   H91   S    
O3    Zn12  S    
C113  O15   A    
O7    Zn3   S    
C49   O49   A    
C86   C107  S    
C4    C8    S    
C2    C12   S    
C126  H10   S    
C95   C98   A    
C7    C11   S    
C119  C133  S    
C4    C52   S    
O12   Zn2   S    
H80   N5    S    
C30   H50   S    
O34   Zn6   S    
O35   Zn11  S    
C64   H18   S    
H75   N4    S    
O8    Zn4   S    
C25   C63   T    
C127  C132  A    
C121  C124  A    
C118  O26   A    
C34   H63   S    
C81   C111  S    
C31   H52   S    
C17   C55   T    
C18   C56   T    
O38   Zn14  S    
C69   C78   A    
C71   O51   A    
C121  C131  A    
C90   C100  A    
C7    H8    S    
C1    O40   A    
C32   H58   S    
O41   Zn2   S    
C53   C62   S    
C33   H61   S    
O43   Zn4   S    
C119  O27   A    
C96   C97   A    
O26   Zn9   S    
O12   Zn11  S    
H93   N8    S    
C43   C135  S    
C114  O18   A    
C37   H73   S    
O36   Zn12  S    
C22   C115  S    
O21   Zn8   S    
C45   C54   S    
C51   C59   S    
C92   C100  A    
C125  C133  A    
C113  O17   A    
C29   H47   S    
C120  C132  S    
C46   C126  S    
O46   Zn6   S    
C13   C48   S    
C100  C112  S    
C3    H4    S    
C110  O11   A    
O1    Zn3   S    
C127  H56   S    
O45   Zn10  S    
C6    H7    S    
C13   H13   S    
C50   C136  S    
C128  C133  A    
C6    C13   S    
C34   N1    S    
C94   N4    S    
C87   C106  S    
C94   C99   A    
H88   N7    S    
C105  O6    A    
C104  O47   A    
C124  H34   S    
C11   C29   S    
O1    Zn10  S    
C67   C76   A    
C36   H68   S    
C122  C123  A    
C28   H42   S    
C122  C130  A    
