data_mof_unit_pretest_746.cif
_audit_creation_date              2012-12-11T15:14:49-0500
_audit_creation_method            fapswitch 2.2
_symmetry_space_group_name_H-M    P1
_symmetry_Int_Tables_number       1
_space_group_crystal_system       triclinic
_cell_length_a                    22.285352
_cell_length_b                    7.224607
_cell_length_c                    19.416177
_cell_angle_alpha                 90.001582
_cell_angle_beta                  98.493461
_cell_angle_gamma                 89.998991
_cell_volume                      3091.77663012

loop_
_atom_site_label
_atom_site_type_symbol
_atom_type_description
_atom_site_fract_x
_atom_site_fract_y
_atom_site_fract_z
_atom_type_partial_charge
O1    O     O_R   0.448470 0.506130 0.415700 -0.534646
O2    O     O_R   0.551530 0.006130 0.584300 -0.534649
O3    O     O_R   0.436320 0.174490 0.555800 -0.535146
O4    O     O_R   0.563680 0.674490 0.444200 -0.535148
C1    C     C_R   0.422688 0.343942 0.577105 0.710179
C2    C     C_R   0.577313 0.843938 0.422895 0.710177
O5    O     O_R   0.441350 0.176340 0.414480 -0.537685
O6    O     O_R   0.558650 0.676340 0.585520 -0.537684
O7    O     O_R   0.556600 0.007100 0.441970 -0.534282
O8    O     O_R   0.443400 0.507100 0.558030 -0.534283
C3    C     C_R   0.425570 0.345132 0.390613 0.690714
C4    C     C_R   0.574430 0.845133 0.609387 0.690716
O9    O     O_3   0.537810 0.339550 0.509190 -0.374080
O10   O     O_3   0.462190 0.839550 0.490810 -0.374076
V1    V     V_3+5 0.492990 0.064280 0.498300 1.406875
V2    V     V_3+5 0.507010 0.564280 0.501700 1.406873
C5    C     C_R   0.873849 0.993771 0.698711 -0.125190
C6    C     C_R   0.126139 0.493614 0.301298 -0.125208
H1    H     H_    0.958825 0.019346 0.765287 0.109478
H2    H     H_    0.041161 0.519158 0.234723 0.109474
H3    H     H_    0.894852 0.026408 0.653336 0.161174
H4    H     H_    0.105130 0.526170 0.346677 0.161168
C7    C     C_R   0.886838 0.943887 0.822560 -0.026407
C8    C     C_R   0.113160 0.443880 0.177441 -0.026398
C9    C     C_R   0.593817 0.825274 0.735457 -0.165633
C10   C     C_R   0.406184 0.325308 0.264543 -0.165632
C11   C     C_R   0.629357 0.830324 0.800158 -0.126891
C12   C     C_R   0.370645 0.330368 0.199841 -0.126891
C13   C     C_R   0.691345 0.860988 0.806077 -0.118678
C14   C     C_R   0.308656 0.361014 0.193924 -0.118672
C15   C     C_R   0.720442 0.886267 0.746730 0.037953
C16   C     C_R   0.279557 0.386271 0.253271 0.037955
C17   C     C_R   0.683895 0.882716 0.678869 -0.007781
C18   C     C_R   0.316103 0.382698 0.321133 -0.007783
C19   C     C_R   0.784829 0.915754 0.753563 0.007321
C20   C     C_R   0.215170 0.415746 0.246439 0.007326
C21   C     C_R   0.811179 0.957581 0.693268 0.003381
C22   C     C_R   0.188813 0.457490 0.306738 0.003377
C23   C     C_R   0.775492 0.961807 0.627607 0.433515
C24   C     C_R   0.224499 0.461697 0.372400 0.433507
C25   C     C_R   0.713904 0.909483 0.619360 0.009488
C26   C     C_R   0.286092 0.409432 0.380644 0.009488
C27   C     C_R   0.824448 0.906693 0.818431 -0.173252
C28   C     C_R   0.175554 0.406745 0.181566 -0.173238
C29   C     C_R   0.910928 0.988657 0.762610 -0.184682
C30   C     C_R   0.089063 0.488533 0.237396 -0.184688
C31   C     C_R   0.619098 0.851999 0.674466 -0.041860
C32   C     C_R   0.380901 0.351999 0.325535 -0.041854
H5    H     H_    0.808683 0.871709 0.866616 0.091908
H6    H     H_    0.191324 0.371847 0.133375 0.091896
H7    H     H_    0.545491 0.801586 0.732980 0.100655
H8    H     H_    0.454512 0.301639 0.267018 0.100654
H9    H     H_    0.715083 0.866818 0.858475 0.107838
H10   H     H_    0.284919 0.366839 0.141525 0.107840
H11   H     H_    0.608466 0.811245 0.846595 0.117333
H12   H     H_    0.391537 0.311308 0.153404 0.117334
C33   C     C_3   0.763069 0.751846 0.292384 -0.100935
C34   C     C_3   0.236928 0.251870 0.707605 -0.100945
C35   C     C_3   0.804161 0.923675 0.287436 -0.190381
C36   C     C_3   0.195841 0.423708 0.712566 -0.190389
H13   H     H_    0.849572 0.945253 0.318513 0.132990
H14   H     H_    0.150431 0.445315 0.681493 0.132989
H15   H     H_    0.774069 0.632256 0.327912 0.118458
H16   H     H_    0.225924 0.132305 0.672067 0.118468
H17   H     H_    0.747438 0.181294 0.318829 0.114021
H18   H     H_    0.252576 0.681312 0.681198 0.114020
C37   C     C_1   0.875095 0.940593 0.121045 -0.173101
C38   C     C_1   0.124904 0.440582 0.878956 -0.173099
C39   C     C_1   0.623055 0.853238 0.376912 -0.186313
C40   C     C_1   0.376947 0.353248 0.623089 -0.186312
C41   C     C_3   0.750414 0.740909 0.211626 -0.208149
C42   C     C_3   0.249580 0.240893 0.788361 -0.208159
C43   C     C_3   0.790868 0.912553 0.207243 0.098208
C44   C     C_3   0.209131 0.412545 0.792757 0.098212
C45   C     C_3   0.694246 0.868591 0.211117 -0.224091
C46   C     C_3   0.305753 0.368553 0.788883 -0.224081
C47   C     C_3   0.707779 0.880736 0.291465 0.109042
C48   C     C_3   0.292222 0.380738 0.708537 0.109040
C49   C     C_3   0.735613 0.038253 0.207531 0.535460
C50   C     C_3   0.264392 0.538223 0.792483 0.535465
C51   C     C_3   0.748427 0.052936 0.287572 -0.209605
C52   C     C_3   0.251580 0.552946 0.712443 -0.209615
C53   C     C_1   0.837033 0.929469 0.159740 -0.004698
C54   C     C_1   0.162967 0.429457 0.840261 -0.004701
C55   C     C_1   0.661296 0.864209 0.338479 -0.040435
C56   C     C_1   0.338706 0.364218 0.661522 -0.040435
H19   H     H_    0.648971 0.846275 0.179822 0.114776
H20   H     H_    0.351028 0.346209 0.820175 0.114772
H21   H     H_    0.752223 0.612914 0.180429 0.160134
H22   H     H_    0.247768 0.112890 0.819548 0.160132
O11   O     O_R   0.056650 0.288730 0.942060 -0.534219
O12   O     O_R   0.943350 0.788730 0.057940 -0.534216
O13   O     O_R   0.058660 0.616870 0.085540 -0.537386
O14   O     O_R   0.941340 0.116870 0.914460 -0.537385
C57   C     C_R   0.072794 0.448775 0.110345 0.678848
C58   C     C_R   0.927206 0.948774 0.889655 0.678849
O15   O     O_R   0.063700 0.618520 0.944220 -0.532808
O16   O     O_R   0.936300 0.118520 0.055780 -0.532810
O17   O     O_R   0.948460 0.787610 0.915680 -0.535594
O18   O     O_R   0.051540 0.287610 0.084320 -0.535590
C59   C     C_R   0.078931 0.450073 0.924667 0.709254
C60   C     C_R   0.921069 0.950077 0.075333 0.709252
O19   O     O_3   0.962230 0.453430 0.990860 -0.373908
O20   O     O_3   0.037770 0.953430 0.009140 -0.373905
V3    V     V_3+5 0.007010 0.728750 0.001700 1.436409
V4    V     V_3+5 0.992990 0.228750 0.998300 1.436409
O21   O     O_3   0.723791 0.187627 0.160675 -0.553219
C61   C     C_3   0.671488 0.282270 0.174187 -0.280220
H23   H     H_    0.678812 0.347229 0.226679 0.137834
H24   H     H_    0.631180 0.189726 0.168564 0.134743
H25   H     H_    0.661561 0.395091 0.135434 0.166162
O22   O     O_3   0.276218 0.687571 0.839351 -0.553220
C62   C     C_3   0.328526 0.782185 0.825847 -0.280200
H26   H     H_    0.321202 0.847186 0.773360 0.137827
H27   H     H_    0.368827 0.689601 0.831451 0.134732
H28   H     H_    0.338463 0.894973 0.864615 0.166173
O23   O     O_3   0.802421 0.006287 0.569781 -0.557580
C63   C     C_3   0.793650 0.196958 0.555991 -0.270722
H29   H     H_    0.815262 0.282781 0.600472 0.140304
H30   H     H_    0.744622 0.231868 0.543304 0.149430
H31   H     H_    0.815449 0.233160 0.509989 0.168490
O24   O     O_3   0.197565 0.506121 0.430231 -0.557583
C64   C     C_3   0.206302 0.696799 0.444025 -0.270654
H32   H     H_    0.255326 0.731821 0.456670 0.149406
H33   H     H_    0.184524 0.732936 0.490056 0.168475
H34   H     H_    0.184640 0.782600 0.399556 0.140303
C65   C     C_3   0.682750 0.880484 0.546134 -0.729306
H35   H     H_    0.714042 0.879997 0.506737 0.240077
H36   H     H_    0.660943 0.742404 0.541611 0.192700
H37   H     H_    0.650456 0.995305 0.532359 0.203715
C66   C     C_3   0.317252 0.380465 0.453869 -0.729289
H38   H     H_    0.285964 0.379984 0.493271 0.240082
H39   H     H_    0.339064 0.242392 0.458395 0.192711
H40   H     H_    0.349540 0.495299 0.467638 0.203705

loop_
_geom_bond_atom_site_label_1
_geom_bond_atom_site_label_2
_ccdc_geom_bond_type
C2    C39   S    
C41   C45   S    
C37   C53   T    
C7    C29   A    
C11   C13   A    
C25   C65   S    
O1    C3    A    
C42   C46   S    
C66   H40   S    
O2    C4    A    
C2    O7    A    
C9    H7    S    
C12   H12   S    
C39   C55   T    
C64   H32   S    
C23   C25   A    
C7    C58   S    
O5    C3    A    
C14   H10   S    
C16   C20   A    
C19   C21   A    
C5    C29   A    
C11   H11   S    
C33   C35   S    
C34   C36   S    
C58   O17   A    
H2    C30   S    
C7    C27   A    
C61   H23   S    
C36   H14   S    
O6    V2    S    
C36   C44   S    
C63   H29   S    
O20   V3    S    
O13   V3    S    
C36   C52   S    
C18   C26   A    
O21   C61   S    
C15   C17   A    
C26   C66   S    
C19   C27   A    
C9    C31   A    
O12   C60   A    
C62   H28   S    
O15   V3    S    
C48   C56   S    
C24   C26   A    
C47   C55   S    
O13   C57   A    
C22   C24   A    
C44   C50   S    
O11   V4    S    
C3    C32   S    
O11   C59   A    
C4    C31   S    
C6    C30   A    
O22   C62   S    
C33   H15   S    
C34   H16   S    
O17   V3    S    
C35   H13   S    
C46   C48   S    
C38   C54   T    
C33   C47   S    
C38   C59   S    
C42   C44   S    
C8    C57   S    
C49   C51   S    
C57   O18   A    
C27   H5    S    
C64   H34   S    
O3    C1    A    
C23   O23   S    
C5    H3    S    
C63   H31   S    
C16   C18   A    
O4    V2    S    
C65   H36   S    
C1    C40   S    
C10   H8    S    
H18   C52   S    
C42   H22   S    
C48   C52   S    
H17   C51   S    
C41   H21   S    
C47   C51   S    
O6    C4    A    
C50   O22   S    
C43   C49   S    
C49   O21   S    
O1    V2    S    
C5    C21   A    
C33   C41   S    
O14   C58   A    
O2    V1    S    
C45   C47   S    
C45   H19   S    
C17   C31   A    
C15   C19   A    
C20   C28   A    
O4    C2    A    
C18   C32   A    
C66   H38   S    
C40   C56   T    
O3    V1    S    
C41   C43   S    
C62   H26   S    
C28   H6    S    
C46   H20   S    
O14   V4    S    
C6    H4    S    
C10   C12   A    
C35   C51   S    
C44   C54   S    
C66   H39   S    
C46   C50   S    
H1    C29   S    
C10   C32   A    
C9    C11   A    
C24   O24   S    
O18   V4    S    
O16   V4    S    
C61   H25   S    
C8    C30   A    
C12   C14   A    
O7    V1    S    
C65   H37   S    
C17   C25   A    
C1    O8    A    
C13   C15   A    
O16   C60   A    
O23   C63   S    
C20   C22   A    
C14   C16   A    
C34   C42   S    
C13   H9    S    
C8    C28   A    
O5    V1    S    
C50   C52   S    
C61   H24   S    
O19   V4    S    
C6    C22   A    
C35   C43   S    
C63   H30   S    
C64   H33   S    
C34   C48   S    
O12   V3    S    
C21   C23   A    
O9    V2    S    
O10   V1    S    
O8    V2    S    
O24   C64   S    
C45   C49   S    
C43   C53   S    
O15   C59   A    
C65   H35   S    
C37   C60   S    
C62   H27   S    
