data_mof_unit_pretest_250.cif
_audit_creation_date              2012-12-11T15:38:59-0500
_audit_creation_method            fapswitch 2.2
_symmetry_space_group_name_H-M    P1
_symmetry_Int_Tables_number       1
_space_group_crystal_system       triclinic
_cell_length_a                    14.339378
_cell_length_b                    14.790687
_cell_length_c                    33.145176
_cell_angle_alpha                 97.608937
_cell_angle_beta                  90.240368
_cell_angle_gamma                 118.936275
_cell_volume                      6079.05251414

loop_
_atom_site_label
_atom_site_type_symbol
_atom_type_description
_atom_site_fract_x
_atom_site_fract_y
_atom_site_fract_z
_atom_type_partial_charge
C1    C     C_R   0.617485 0.910168 0.437088 0.549712
C2    C     C_R   0.744883 0.426829 0.188340 0.032766
C3    C     C_R   0.759799 0.861982 0.635948 -0.121267
C4    C     C_R   0.674208 0.783607 0.653251 0.032268
C5    C     C_R   0.636786 0.858666 0.584477 0.016644
C6    C     C_R   0.052236 0.781315 0.063801 0.550931
C7    C     C_R   0.743958 0.486979 0.066309 0.545342
C8    C     C_R   0.742490 0.789222 0.066292 0.554952
C9    C     C_R   0.021928 0.732210 0.947403 0.529577
C10   C     C_R   0.712277 0.437313 0.949343 0.530093
C11   C     C_R   0.742382 0.716968 0.945690 0.584095
C12   C     C_R   0.829727 0.437618 0.164841 -0.119728
C13   C     C_R   0.826538 0.450057 0.123959 -0.125159
C14   C     C_R   0.781175 0.355375 0.246785 -0.113990
C15   C     C_R   0.774456 0.343025 0.287802 -0.109615
C16   C     C_R   0.737978 0.398587 0.314836 0.031770
C17   C     C_R   0.714719 0.471362 0.300802 -0.120121
C18   C     C_R   0.721295 0.483533 0.259797 -0.117612
C19   C     C_R   0.751093 0.423069 0.232306 0.031411
C20   C     C_R   0.611044 0.349980 0.369233 -0.124193
C21   C     C_R   0.594346 0.205904 0.456715 0.543495
C22   C     C_R   0.575128 0.301828 0.403662 -0.133349
C23   C     C_R   0.742368 0.301083 0.413540 -0.129414
C24   C     C_R   0.778097 0.348910 0.379057 -0.121470
C25   C     C_R   0.711084 0.370032 0.355777 0.032559
C26   C     C_R   0.638900 0.273376 0.425173 0.020875
C27   C     C_R   0.245779 0.879543 0.393276 0.014470
C28   C     C_R   0.235066 0.962057 0.381113 -0.130914
C29   C     C_R   0.212957 0.961897 0.340046 -0.117577
C30   C     C_R   0.199806 0.878831 0.310678 0.032999
C31   C     C_R   0.203263 0.793171 0.322727 -0.107496
C32   C     C_R   0.295720 0.892958 0.434362 0.534153
C33   C     C_R   0.226078 0.793368 0.363807 -0.117387
C34   C     C_R   0.190072 0.804626 0.163986 -0.168324
C35   C     C_R   0.161715 0.781118 0.122198 -0.143096
C36   C     C_R   0.103143 0.910560 0.127943 -0.130003
C37   C     C_R   0.135323 0.937568 0.170180 0.279549
C38   C     C_R   0.172056 0.878564 0.188266 0.056206
C39   C     C_1   0.182879 0.885313 0.231887 0.023734
C40   C     C_1   0.189951 0.884135 0.268009 -0.022364
C41   C     C_R   0.112557 0.829694 0.104130 -0.020578
C42   C     C_R   0.640609 0.879642 0.395618 -0.077406
C43   C     C_R   0.613919 0.904708 0.551497 0.534821
C44   C     C_R   0.572943 0.781141 0.371836 0.257365
C45   C     C_R   0.579556 0.767972 0.329251 0.247717
C46   C     C_R   0.656222 0.851452 0.311080 -0.002061
C47   C     C_R   0.731766 0.943909 0.335279 0.207637
C48   C     C_R   0.722723 0.957905 0.377150 -0.177225
C49   C     C_R   0.772110 0.915037 0.175071 -0.105561
C50   C     C_R   0.790951 0.903720 0.133910 -0.123180
C51   C     C_R   0.612936 0.753766 0.119635 -0.125124
C52   C     C_R   0.594284 0.765352 0.160724 -0.117774
C53   C     C_R   0.675177 0.843619 0.188613 0.029968
C54   C     C_R   0.589676 0.199564 0.570867 0.539216
C55   C     C_1   0.663267 0.844117 0.231424 -0.007844
C56   C     C_1   0.657404 0.845074 0.267560 0.055506
C57   C     C_R   0.713063 0.820104 0.106178 0.021499
C58   C     C_R   0.622656 0.250500 0.613772 0.017814
C59   C     C_R   0.557665 0.282591 0.636079 -0.130007
C60   C     C_R   0.573090 0.306342 0.678574 -0.116099
C61   C     C_R   0.653696 0.298659 0.699123 0.041300
C62   C     C_R   0.723732 0.274502 0.677077 -0.113736
C63   C     C_R   0.708683 0.250954 0.634566 -0.129899
C64   C     C_R   0.764198 0.351144 0.844406 -0.115700
C65   C     C_R   0.287949 0.886308 0.548208 0.546692
C66   C     C_R   0.775331 0.377738 0.886761 -0.128901
C67   C     C_R   0.590090 0.337557 0.886403 -0.131392
C68   C     C_R   0.579137 0.310996 0.843940 -0.120530
C69   C     C_R   0.667459 0.321884 0.822870 0.042479
C70   C     C_1   0.662171 0.312545 0.779246 -0.031793
C71   C     C_1   0.658972 0.307080 0.742725 -0.031937
C72   C     C_R   0.689976 0.376687 0.907966 0.023238
C73   C     C_R   0.065311 0.751286 0.907570 0.020091
C74   C     C_R   0.104677 0.850117 0.895663 -0.141842
C75   C     C_R   0.120049 0.861453 0.854741 -0.127012
C76   C     C_R   0.738096 0.451215 0.106062 0.021177
C77   C     C_R   0.096129 0.774049 0.825334 0.029156
C78   C     C_R   0.063962 0.676872 0.837853 -0.118812
C79   C     C_R   0.049472 0.665762 0.878677 -0.120596
C80   C     C_R   0.138340 0.727802 0.755414 -0.111940
C81   C     C_R   0.140719 0.734510 0.713993 -0.110236
C82   C     C_R   0.104440 0.796076 0.697885 0.034923
C83   C     C_R   0.063315 0.848990 0.723704 -0.106340
C84   C     C_R   0.060910 0.842264 0.765260 -0.112658
C85   C     C_R   0.099360 0.782314 0.781505 0.032340
C86   C     C_R   0.176082 0.918389 0.647464 -0.141972
C87   C     C_R   0.650337 0.433338 0.129040 -0.125149
C88   C     C_R   0.222279 0.940329 0.610718 -0.178689
C89   C     C_R   0.151206 0.754299 0.587302 0.265258
C90   C     C_R   0.107274 0.733301 0.624677 -0.097246
C91   C     C_R   0.123773 0.815311 0.655556 -0.017049
C92   C     C_R   0.216565 0.859420 0.581561 0.014491
C93   C     C_R   0.724773 0.702702 0.900877 0.033225
C94   C     C_R   0.623357 0.647627 0.878980 0.270522
C95   C     C_R   0.616799 0.648250 0.836387 -0.105595
C96   C     C_R   0.709939 0.698696 0.815880 -0.010585
C97   C     C_R   0.809592 0.744925 0.837750 -0.135817
C98   C     C_R   0.653958 0.421706 0.169869 -0.120494
C99   C     C_R   0.816561 0.748468 0.879615 -0.179005
C100  C     C_R   0.769407 0.816119 0.763195 -0.108878
C101  C     C_R   0.762222 0.836521 0.723897 -0.113453
C102  C     C_R   0.690523 0.756966 0.693374 0.033258
C103  C     C_R   0.628185 0.655367 0.702960 -0.112458
C104  C     C_R   0.634819 0.635084 0.742650 -0.110850
C105  C     C_R   0.704842 0.715762 0.773168 0.038594
C106  C     C_R   0.570647 0.739116 0.634247 -0.119973
C107  C     C_R   0.552275 0.775767 0.600101 -0.128344
C108  C     C_R   0.741112 0.899882 0.602118 -0.131779
Cr1   Cr    Cr6+3 0.424820 0.846020 0.489780 1.046959
Cr2   Cr    Cr6+3 0.657880 0.078580 0.505700 1.002395
Cr3   Cr    Cr6+3 0.417280 0.075360 0.504550 1.000653
Cr4   Cr    Cr6+3 0.903360 0.812540 0.006510 1.002559
Cr5   Cr    Cr6+3 0.914630 0.587050 0.006280 1.003473
Cr6   Cr    Cr6+3 0.673560 0.582680 0.008540 1.025166
H1    H     H_    0.580915 0.433483 0.116124 0.127568
H2    H     H_    0.495222 0.281740 0.412018 0.124911
H3    H     H_    0.900345 0.441204 0.178576 0.104146
H4    H     H_    0.793950 0.281428 0.429924 0.123278
H5    H     H_    0.170695 0.718983 0.104644 0.139334
H6    H     H_    0.220513 0.760602 0.177760 0.117578
H7    H     H_    0.192906 0.728269 0.300154 0.119030
H8    H     H_    0.234267 0.728980 0.372073 0.147999
H9    H     H_    0.250049 0.029844 0.402940 0.123620
H10   H     H_    0.063491 0.946916 0.114435 0.116384
H11   H     H_    0.895441 0.463861 0.107019 0.126752
H12   H     H_    0.210858 0.028633 0.331054 0.107244
H13   H     H_    0.869077 0.955326 0.124503 0.124179
H14   H     H_    0.835200 0.975823 0.196640 0.126815
H15   H     H_    0.775987 0.033955 0.394530 0.161577
H16   H     H_    0.519051 0.709915 0.171044 0.110812
H17   H     H_    0.551464 0.688793 0.098893 0.122062
H18   H     H_    0.853292 0.407012 0.902384 0.124784
H19   H     H_    0.856136 0.365098 0.369513 0.103982
H20   H     H_    0.832794 0.359147 0.828311 0.102857
H21   H     H_    0.786742 0.268971 0.692821 0.106981
H22   H     H_    0.760114 0.226591 0.618318 0.128205
H23   H     H_    0.490989 0.283358 0.620974 0.123632
H24   H     H_    0.503571 0.287486 0.827438 0.099820
H25   H     H_    0.522610 0.334397 0.901943 0.111918
H26   H     H_    0.519010 0.325778 0.695473 0.100300
H27   H     H_    0.117539 0.917074 0.917559 0.117227
H28   H     H_    0.018060 0.588435 0.887007 0.122128
H29   H     H_    0.065004 0.653079 0.630333 0.118440
H30   H     H_    0.791598 0.285408 0.297800 0.124750
H31   H     H_    0.175499 0.695242 0.694867 0.107187
H32   H     H_    0.169765 0.682218 0.767209 0.101695
H33   H     H_    0.147222 0.937692 0.845899 0.105034
H34   H     H_    0.034936 0.896888 0.711838 0.098199
H35   H     H_    0.029179 0.884088 0.784613 0.088091
H36   H     H_    0.189932 0.982929 0.670905 0.116386
H37   H     H_    0.269946 0.021414 0.606668 0.138328
H38   H     H_    0.044101 0.608005 0.815816 0.101686
H39   H     H_    0.804354 0.308075 0.226013 0.107632
H40   H     H_    0.894618 0.790596 0.895802 0.144812
H41   H     H_    0.840956 0.896235 0.649292 0.100074
H42   H     H_    0.809510 0.916093 0.718052 0.097696
H43   H     H_    0.822899 0.880271 0.786297 0.101621
H44   H     H_    0.539323 0.614601 0.819818 0.104235
H45   H     H_    0.573197 0.591974 0.679968 0.098362
H46   H     H_    0.585166 0.556823 0.749559 0.097911
H47   H     H_    0.502673 0.679833 0.646988 0.105037
H48   H     H_    0.470834 0.742357 0.587152 0.141728
H49   H     H_    0.882514 0.782940 0.822686 0.125174
H50   H     H_    0.586591 0.411003 0.187331 0.102520
H51   H     H_    0.807886 0.962758 0.590303 0.122134
H52   H     H_    0.688118 0.516091 0.321295 0.083126
H53   H     H_    0.700480 0.538166 0.249230 0.100254
H54   H     H_    0.557536 0.364947 0.351617 0.102893
O1    O     O_R   0.318160 0.824460 0.443680 -0.508398
O2    O     O_R   0.645130 0.163230 0.552140 -0.502091
O3    O     O_R   0.498360 0.178430 0.555780 -0.520114
O4    O     O_R   0.328690 0.978040 0.538950 -0.514512
O5    O     O_3   0.499990 0.999990 0.500010 -0.237777
O6    O     O_R   0.828710 0.851830 0.052170 -0.515449
O7    O     O_R   0.005980 0.823990 0.047210 -0.501405
O8    O     O_R   0.031900 0.688850 0.050170 -0.512037
O9    O     O_R   0.830940 0.518420 0.048680 -0.497747
O10   O     O_R   0.668160 0.499860 0.053480 -0.518899
O11   O     O_R   0.689170 0.693840 0.050110 -0.496234
O12   O     O_R   0.525040 0.857250 0.449830 -0.454786
O13   O     O_R   0.803860 0.812940 0.962540 -0.513350
O14   O     O_R   0.982950 0.787950 0.964120 -0.528985
O15   O     O_R   0.007050 0.649970 0.960540 -0.515877
O16   O     O_R   0.807910 0.482370 0.965590 -0.505952
O17   O     O_R   0.643310 0.460980 0.963840 -0.526979
O18   O     O_R   0.666140 0.657800 0.967020 -0.448710
O19   O     O_3   0.830520 0.660760 0.007110 -0.266516
O20   O     O_R   0.684760 0.998800 0.456360 -0.530497
O21   O     O_R   0.647540 0.166310 0.470260 -0.501169
O22   O     O_R   0.500960 0.181750 0.467450 -0.520289
O23   O     O_R   0.331100 0.981120 0.457080 -0.504920
O24   O     O_R   0.315560 0.821140 0.532010 -0.471861
O25   O     O_R   0.522630 0.854180 0.531710 -0.506441
O26   O     O_R   0.682160 0.995480 0.544690 -0.519816
O27   O     O_3   0.120767 0.012453 0.195032 -0.563765
C109  C     C_3   0.162422 0.106226 0.178099 -0.015225
H55   H     H_    0.103254 0.100563 0.154722 0.123117
H56   H     H_    0.239338 0.125187 0.164210 0.126571
C110  C     C_3   0.183920 0.196332 0.211567 -0.380548
H57   H     H_    0.241412 0.203242 0.235935 0.156112
H58   H     H_    0.218455 0.270590 0.198698 0.092019
H59   H     H_    0.108121 0.182890 0.224791 0.152067
O28   O     O_3   0.804696 0.027017 0.317356 -0.562228
C111  C     C_3   0.906505 0.035573 0.322659 0.006691
H60   H     H_    0.907532 0.967410 0.304196 0.141003
H61   H     H_    0.928877 0.039513 0.355380 0.120122
C112  C     C_3   0.989350 0.135904 0.308170 -0.248073
H62   H     H_    0.968492 0.133841 0.275599 0.169150
H63   H     H_    0.988410 0.204071 0.326486 0.165918
C113  C     C_3   0.101416 0.149257 0.312701 -0.491894
H64   H     H_    0.122653 0.148327 0.344858 0.137010
H65   H     H_    0.160316 0.225371 0.303991 0.139547
H66   H     H_    0.105757 0.085486 0.292436 0.176918
O29   O     O_3   0.494856 0.699225 0.388892 -0.522588
C114  C     C_3   0.544236 0.658255 0.412262 0.014920
H67   H     H_    0.579798 0.710063 0.442000 0.136940
H68   H     H_    0.608450 0.649879 0.396102 0.090735
C115  C     C_3   0.460139 0.550285 0.420459 -0.251004
H69   H     H_    0.394124 0.556247 0.435823 0.175155
H70   H     H_    0.426578 0.496831 0.390951 0.163125
C116  C     C_3   0.508098 0.504785 0.447474 -0.492467
H71   H     H_    0.575393 0.499591 0.433003 0.151764
H72   H     H_    0.446062 0.425131 0.451850 0.146486
H73   H     H_    0.537719 0.554649 0.477836 0.150536
O30   O     O_3   0.503281 0.677597 0.305216 -0.524299
C117  C     C_3   0.544185 0.607903 0.297118 -0.003275
H74   H     H_    0.555999 0.581753 0.325709 0.128335
H75   H     H_    0.621353 0.644466 0.282636 0.107150
C118  C     C_3   0.464502 0.511911 0.267944 -0.374268
H76   H     H_    0.452965 0.534978 0.238553 0.150833
H77   H     H_    0.494753 0.455416 0.261977 0.089658
H78   H     H_    0.386468 0.473351 0.281508 0.160630
O31   O     O_3   0.140321 0.671652 0.558889 -0.561234
C119  C     C_3   0.065009 0.651675 0.526466 0.021633
H79   H     H_    0.089368 0.621574 0.498306 0.159893
H80   H     H_    0.063041 0.723012 0.520033 0.107518
C120  C     C_3   0.953282 0.567919 0.534730 -0.277274
H81   H     H_    0.956610 0.497606 0.541153 0.172952
H82   H     H_    0.925897 0.598257 0.561930 0.157634
C121  C     C_3   0.872702 0.536562 0.498276 -0.478648
H83   H     H_    0.866158 0.605199 0.491856 0.146654
H84   H     H_    0.792917 0.475407 0.505116 0.153378
H85   H     H_    0.897574 0.504585 0.470768 0.149188
O32   O     O_3   0.531952 0.607426 0.900024 -0.549133
C122  C     C_3   0.463681 0.499841 0.885563 0.013918
H86   H     H_    0.452921 0.456685 0.911695 0.158338
H87   H     H_    0.495398 0.465192 0.861054 0.108112
C123  C     C_3   0.354485 0.482497 0.870484 -0.263804
H88   H     H_    0.320126 0.511162 0.895758 0.180320
H89   H     H_    0.363741 0.527442 0.845059 0.158859
C124  C     C_3   0.277537 0.366956 0.855576 -0.493966
H90   H     H_    0.309335 0.337218 0.829700 0.140680
H91   H     H_    0.199007 0.356843 0.845008 0.146369
H92   H     H_    0.265633 0.320544 0.880718 0.145920

loop_
_geom_bond_atom_site_label_1
_geom_bond_atom_site_label_2
_ccdc_geom_bond_type
C24   H19   S    
C80   C85   A    
C65   C92   S    
Cr5   O9    S    
C21   C26   S    
Cr3   O23   S    
C101  C102  A    
C95   H44   S    
C10   O16   A    
C73   C74   A    
C54   O2    A    
C68   H24   S    
C95   C96   A    
C11   O13   A    
C55   C56   T    
C2    C12   A    
C23   H4    S    
C81   C82   A    
C90   C91   A    
C28   H9    S    
C78   H38   S    
C124  H90   S    
Cr5   O15   S    
C77   C78   A    
C27   C33   A    
C81   H31   S    
C12   C13   A    
Cr2   O20   S    
C100  C105  A    
C29   C30   A    
Cr6   O17   S    
C119  H80   S    
C115  C116  S    
C43   O26   A    
C44   O29   S    
C37   O27   S    
C36   C37   A    
C36   H10   S    
C34   C35   A    
C116  H73   S    
C86   C91   A    
C86   H36   S    
C54   C58   S    
C38   C39   S    
C1    O12   A    
Cr1   O5    S    
C109  H55   S    
C124  H91   S    
Cr5   O16   S    
C6    O7    A    
C59   H23   S    
Cr1   O24   S    
C15   C16   A    
C11   O18   A    
C99   H40   S    
C58   C63   A    
C10   O17   A    
C86   C88   A    
O32   C122  S    
C7    O9    A    
Cr3   O4    S    
C106  H47   S    
C89   O31   S    
C23   C26   A    
C94   O32   S    
C100  C101  A    
C9    O14   A    
C68   C69   A    
C35   H5    S    
C100  H43   S    
C66   C72   A    
Cr3   O22   S    
C88   C92   A    
Cr1   O1    S    
C16   C17   A    
Cr6   O10   S    
C6    C41   S    
C4    C102  S    
Cr2   O26   S    
C112  C113  S    
C23   C24   A    
C107  H48   S    
Cr1   O25   S    
C70   C71   T    
C51   C57   A    
C15   H30   S    
C67   H25   S    
O31   C119  S    
C93   C99   A    
C87   H1    S    
C90   H29   S    
C123  C124  S    
C87   C98   A    
C13   H11   S    
C84   H35   S    
C61   C71   S    
C22   H2    S    
C27   C32   S    
C77   C85   S    
C59   C60   A    
Cr3   O5    S    
C29   H12   S    
C36   C41   A    
C69   C70   S    
C42   C44   A    
C104  H46   S    
C109  C110  S    
C54   O3    A    
C3    H41   S    
C104  C105  A    
C97   C99   A    
C118  H76   S    
C123  H89   S    
C17   C18   A    
C66   H18   S    
C53   C55   S    
C34   H6    S    
C20   H54   S    
C64   H20   S    
C74   C75   A    
C65   O4    A    
C47   O28   S    
C112  H62   S    
C67   C72   A    
C24   C25   A    
C31   H7    S    
C109  H56   S    
C120  C121  S    
C114  C115  S    
C39   C40   T    
C11   C93   S    
C51   H17   S    
O29   C114  S    
C18   C19   A    
C124  H92   S    
Cr4   O14   S    
C101  H42   S    
C75   H33   S    
C58   C59   A    
C45   C46   A    
C4    C106  A    
C83   H34   S    
C121  H85   S    
Cr6   O19   S    
C67   C68   A    
C7    O10   A    
C60   C61   A    
C119  C120  S    
C64   C66   A    
C62   H21   S    
C114  H67   S    
C37   C38   A    
C9    O15   A    
C8    C57   S    
C110  H59   S    
C116  H71   S    
C97   H49   S    
C13   C76   A    
C21   O21   A    
C47   C48   A    
C111  C112  S    
C115  H69   S    
C96   C97   A    
C62   C63   A    
C121  H84   S    
O30   C117  S    
C73   C79   A    
C30   C40   S    
C94   C95   A    
C93   C94   A    
C42   C48   A    
C52   C53   A    
C84   C85   A    
C89   C92   A    
C75   C77   A    
C76   C87   A    
C2    C98   A    
C7    C76   S    
C60   H26   S    
Cr5   O8    S    
Cr2   O2    S    
C1    O20   A    
C74   H27   S    
C111  H61   S    
C117  H74   S    
C113  H65   S    
C120  H82   S    
C14   H39   S    
C22   C26   A    
C33   H8    S    
C88   H37   S    
C48   H15   S    
C83   C84   A    
C119  H79   S    
C3    C4    A    
C117  C118  S    
C103  C104  A    
C123  H88   S    
C96   C105  S    
C110  H58   S    
C108  H51   S    
C5    C107  A    
Cr2   O5    S    
C16   C25   S    
C49   H14   S    
C46   C47   A    
C28   C29   A    
C31   C33   A    
C2    C19   S    
C34   C38   A    
C50   C57   A    
C14   C19   A    
C9    C73   S    
C44   C45   A    
C20   C22   A    
C80   C81   A    
C61   C62   A    
C98   H50   S    
C18   H53   S    
Cr1   O12   S    
Cr4   O13   S    
C50   H13   S    
C20   C25   A    
C3    C108  A    
C118  H78   S    
C113  H66   S    
C64   C69   A    
Cr2   O21   S    
C117  H75   S    
Cr6   O18   S    
C43   O25   A    
C115  H70   S    
C17   H52   S    
C52   H16   S    
C63   H22   S    
C122  H87   S    
C45   O30   S    
C51   C52   A    
C118  H77   S    
Cr4   O6    S    
C78   C79   A    
C8    O11   A    
C103  H45   S    
C21   O22   A    
C30   C31   A    
C6    O8    A    
Cr6   O11   S    
C49   C53   A    
C80   H32   S    
C121  H83   S    
Cr3   O3    S    
C113  H64   S    
C5    C43   S    
C102  C103  A    
C35   C41   A    
C120  H81   S    
C114  H68   S    
C8    O6    A    
C82   C91   S    
C65   O24   A    
O27   C109  S    
C79   H28   S    
C1    C42   S    
C110  H57   S    
Cr4   O7    S    
C111  H60   S    
C32   O23   A    
C32   O1    A    
C116  H72   S    
C49   C50   A    
C106  C107  A    
C122  C123  S    
C46   C56   S    
C27   C28   A    
C112  H63   S    
C14   C15   A    
Cr4   O19   S    
C12   H3    S    
O28   C111  S    
C82   C83   A    
C89   C90   A    
C122  H86   S    
C10   C72   S    
C5    C108  A    
Cr5   O19   S    
