data_mof_unit_pretest_1176.cif
_audit_creation_date              2012-10-26T18:32:20-0400
_audit_creation_method            fapswitch 2.2
_symmetry_space_group_name_H-M    P1
_symmetry_Int_Tables_number       1
_space_group_crystal_system       triclinic
_cell_length_a                    12.491018
_cell_length_b                    13.355463
_cell_length_c                    15.871423
_cell_angle_alpha                 75.032343
_cell_angle_beta                  101.464929
_cell_angle_gamma                 117.081555
_cell_volume                      2267.27497854

loop_
_atom_site_label
_atom_site_type_symbol
_atom_type_description
_atom_site_fract_x
_atom_site_fract_y
_atom_site_fract_z
_atom_type_partial_charge
C1    C     C_R   0.854832 0.286921 0.509598 0.546583
C2    C     C_R   0.229507 0.837749 0.483373 0.037738
C3    C     C_R   0.806636 0.089304 0.589516 -0.173537
C4    C     C_R   0.000418 0.499667 0.659432 0.549025
C5    C     C_R   0.721172 0.987595 0.633609 0.299696
C6    C     C_R   0.598160 0.960169 0.612096 0.317824
C7    C     C_R   0.559090 0.023388 0.535219 -0.056495
C8    C     C_R   0.645820 0.128731 0.494273 -0.046177
C9    C     C_R   0.436292 0.986850 0.498957 -0.100852
C10   C     C_R   0.397082 0.068706 0.445305 0.063874
C11   C     C_R   0.483737 0.175034 0.406439 0.277768
C12   C     C_3   0.069685 0.436367 0.074635 -0.286987
C13   C     C_R   0.606033 0.197422 0.424315 -0.104913
C14   C     C_R   0.354377 0.870020 0.508284 0.165506
C15   C     C_R   0.187865 0.923701 0.447366 0.175048
C16   C     C_R   0.145430 0.713893 0.489682 0.597562
C17   C     C_R   0.769796 0.164700 0.525859 -0.037802
C18   C     C_R   0.321990 0.298423 0.614474 -0.071683
C19   C     C_R   0.761783 0.646369 0.379988 0.390223
C20   C     C_R   0.659693 0.668362 0.345201 0.192256
C21   C     C_R   0.555983 0.610410 0.388998 -0.060825
C22   C     C_R   0.548183 0.527706 0.466093 -0.064998
C23   C     C_3   0.998857 0.503073 0.082378 -0.076107
C24   C     C_R   0.648395 0.498020 0.494124 0.143051
C25   C     C_R   0.440961 0.467697 0.512657 0.033925
C26   C     C_R   0.426052 0.364905 0.571937 -0.064243
C27   C     C_R   0.517485 0.330277 0.593404 -0.123969
C28   C     C_R   0.999814 0.500695 0.340519 0.531896
C29   C     C_R   0.630880 0.400095 0.563873 0.291576
C30   C     C_R   0.347307 0.503986 0.503636 0.380045
C31   C     C_R   0.233619 0.336062 0.603927 0.368517
C32   C     C_3   0.080370 0.444789 0.976829 0.034806
C33   C     C_3   0.866466 0.434155 0.944080 0.453625
C34   C     C_3   0.062406 0.628651 0.031071 0.186111
C35   C     C_3   0.867482 0.442482 0.041134 -0.206081
C36   C     C_1   0.998938 0.501384 0.250586 0.015700
C37   C     C_3   0.999728 0.502169 0.916416 0.149135
C38   C     C_3   0.052358 0.630238 0.930154 0.410452
C39   C     C_1   0.998684 0.502063 0.174843 -0.013006
C40   C     C_1   0.001128 0.500568 0.824491 0.119209
C41   C     C_1   0.001424 0.499803 0.749170 0.047775
C42   C     C_R   0.272397 0.040180 0.428869 0.256750
Cu1   Cu    Cu3+1 0.098280 0.475420 0.519630 1.029248
Cu2   Cu    Cu3+1 0.901720 0.524580 0.480370 1.088754
H1    H     H_    0.901437 0.115153 0.611950 0.171104
H2    H     H_    0.519923 0.322737 0.327290 0.311246
H3    H     H_    0.158681 0.104957 0.420526 0.328664
H4    H     H_    0.474150 0.815133 0.509355 0.362536
H5    H     H_    0.449400 0.892883 0.667338 0.335139
H6    H     H_    0.844694 0.949232 0.710739 0.334226
H7    H     H_    0.112419 0.311712 0.990804 0.345766
H8    H     H_    0.669531 0.270741 0.383985 0.126058
H9    H     H_    0.097979 0.312500 0.659056 0.373080
H10   H     H_    0.310494 0.218066 0.658892 0.148939
H11   H     H_    0.288358 0.598774 0.415396 0.355278
H12   H     H_    0.504032 0.251931 0.641226 0.108119
H13   H     H_    0.875475 0.782760 0.310930 0.326182
H14   H     H_    0.710521 0.744094 0.228525 0.336945
H15   H     H_    0.694896 0.303551 0.654292 0.315895
H16   H     H_    0.708248 0.433876 0.904080 0.352369
H17   H     H_    0.840735 0.272308 0.987527 0.353372
H18   H     H_    0.821391 0.355940 0.081669 0.110513
H19   H     H_    0.813945 0.488777 0.043881 0.138872
H20   H     H_    0.229564 0.680396 0.936930 0.300252
H21   H     H_    0.980961 0.694480 0.821326 0.365931
H22   H     H_    0.478835 0.624980 0.356011 0.203149
H23   H     H_    0.159158 0.661339 0.057301 0.149716
H24   H     H_    0.023164 0.345067 0.107182 0.176293
H25   H     H_    0.176279 0.498373 0.963176 0.125144
H26   H     H_    0.161867 0.471590 0.109380 0.118628
H27   H     H_    0.932579 0.673087 0.031549 0.367873
H28   H     H_    0.053514 0.947442 0.374190 0.337693
N1    N     N_R   0.246300 0.438200 0.549400 -0.235582
N2    N     N_R   0.754300 0.561180 0.451130 -0.221203
O1    O     O_R   0.972520 0.318130 0.524690 -0.502965
O2    O     O_3   0.065620 0.891619 0.425426 -0.664348
O3    O     O_3   0.447712 0.251488 0.345683 -0.621625
O4    O     O_3   0.235479 0.127103 0.396533 -0.628674
O5    O     O_3   0.396533 0.786391 0.534583 -0.584377
O6    O     O_3   0.520126 0.876413 0.671066 -0.577520
O7    O     O_3   0.755320 0.918290 0.703379 -0.596902
O8    O     O_3   0.048252 0.335903 0.959737 -0.671412
O9    O     O_3   0.134186 0.265583 0.649240 -0.698661
O10   O     O_3   0.362851 0.609476 0.454659 -0.680313
O11   O     O_3   0.868835 0.705815 0.341577 -0.624146
O12   O     O_R   0.806530 0.359650 0.491530 -0.470679
O13   O     O_3   0.655403 0.741784 0.266754 -0.694345
O14   O     O_3   0.722971 0.372956 0.607514 -0.635832
O15   O     O_3   0.792505 0.483243 0.888961 -0.628822
O16   O     O_3   0.818158 0.318886 0.933871 -0.630977
O17   O     O_3   0.166290 0.697947 0.896585 -0.680641
O18   O     O_3   0.974457 0.680804 0.885030 -0.574630
O19   O     O_R   0.083030 0.479240 0.637150 -0.526080
O20   O     O_R   0.917040 0.520750 0.603990 -0.427506
O21   O     O_R   0.193470 0.640350 0.508470 -0.435564
O22   O     O_R   0.027480 0.681870 0.475310 -0.405062
O23   O     O_R   0.082960 0.479250 0.396010 -0.540831
O24   O     O_R   0.916970 0.520760 0.362850 -0.462877
O25   O     O_3   0.020769 0.702980 0.047929 -0.623412

loop_
_geom_bond_atom_site_label_1
_geom_bond_atom_site_label_2
_ccdc_geom_bond_type
C28   O23   A    
Cu1   N1    S    
H21   O18   S    
C8    C13   A    
C21   H22   S    
C10   C42   A    
C19   C20   A    
C18   C26   A    
H28   O2    S    
H14   O13   S    
C7    C8    A    
H16   O15   S    
C12   H24   S    
C12   C23   S    
C26   C27   A    
H4    O5    S    
C37   C40   S    
C5    C6    A    
C31   N1    A    
C27   C29   A    
C4    C41   S    
C20   O13   S    
C38   O18   S    
C25   C30   A    
C31   O9    S    
H15   O14   S    
C29   O14   S    
C11   O3    S    
C33   C35   S    
C24   C29   A    
Cu2   O24   S    
C22   C25   A    
Cu1   O21   S    
C2    C16   S    
C9    C10   A    
C15   O2    S    
C21   C22   A    
C12   C32   S    
Cu2   O12   S    
C36   C39   T    
Cu1   O1    S    
C16   O22   A    
C32   C37   S    
C1    O1    A    
C9    C14   A    
C27   H12   S    
C3    C5    A    
C25   C26   A    
C30   N1    A    
H27   O25   S    
C38   O17   S    
C3    H1    S    
C33   C37   S    
Cu1   Cu2   S    
C37   C38   S    
Cu2   O22   S    
C33   O15   S    
C13   H8    S    
C5    O7    S    
C6    O6    S    
C23   C34   S    
C34   O25   S    
C14   O5    S    
Cu2   N2    S    
C2    C15   A    
H7    O8    S    
C32   H25   S    
C4    O20   A    
C40   C41   T    
C42   O4    S    
C23   C35   S    
C22   C24   A    
H17   O16   S    
C28   O24   A    
C1    O12   A    
C7    C9    A    
C12   H26   S    
C16   O21   A    
C34   C38   S    
C19   N2    A    
Cu1   O23   S    
C15   C42   A    
C19   O11   S    
C34   H23   S    
H2    O3    S    
C6    C7    A    
C32   O8    S    
C1    C17   S    
C8    C17   A    
H3    O4    S    
H5    O6    S    
H9    O9    S    
C33   O16   S    
C11   C13   A    
C24   N2    A    
C23   C39   S    
Cu1   O19   S    
H13   O11   S    
C3    C17   A    
C35   H18   S    
C30   O10   S    
C2    C14   A    
Cu2   O20   S    
C10   C11   A    
C18   H10   S    
C4    O19   A    
C20   C21   A    
C28   C36   S    
C35   H19   S    
C18   C31   A    
H20   O17   S    
H11   O10   S    
H6    O7    S    
