data_mof_unit_pretest_448.cif
_audit_creation_date              2012-12-11T15:11:50-0500
_audit_creation_method            fapswitch 2.2
_symmetry_space_group_name_H-M    P1
_symmetry_Int_Tables_number       1
_space_group_crystal_system       triclinic
_cell_length_a                    20.249619
_cell_length_b                    7.102303
_cell_length_c                    13.393842
_cell_angle_alpha                 90.000038
_cell_angle_beta                  103.663793
_cell_angle_gamma                 89.999964
_cell_volume                      1871.77135769

loop_
_atom_site_label
_atom_site_type_symbol
_atom_type_description
_atom_site_fract_x
_atom_site_fract_y
_atom_site_fract_z
_atom_type_partial_charge
O1    O     O_R   0.449830 0.506740 0.599960 -0.536056
O2    O     O_R   0.550170 0.006740 0.400040 -0.536056
O3    O     O_R   0.588980 0.179860 0.596720 -0.546702
O4    O     O_R   0.411020 0.679860 0.403280 -0.546703
C1    C     C_R   0.615715 0.344408 0.620949 0.677878
C2    C     C_R   0.384285 0.844408 0.379051 0.677877
O5    O     O_R   0.452740 0.177340 0.612040 -0.538769
O6    O     O_R   0.547260 0.677340 0.387960 -0.538769
O7    O     O_R   0.412960 0.002070 0.415460 -0.541063
O8    O     O_R   0.587040 0.502070 0.584540 -0.541063
C3    C     C_R   0.436740 0.345420 0.639067 0.688789
C4    C     C_R   0.563260 0.845420 0.360933 0.688790
O9    O     O_3   0.487110 0.337570 0.435490 -0.373451
O10   O     O_3   0.512890 0.837570 0.564510 -0.373451
V1    V     V_3+5 0.502390 0.064650 0.511970 1.391955
V2    V     V_3+5 0.497610 0.564650 0.488030 1.391955
C5    C     C_R   0.608974 0.805432 0.106155 -0.164253
C6    C     C_R   0.391027 0.305437 0.893846 -0.164253
H1    H     H_    0.515872 0.800998 0.156249 0.099684
H2    H     H_    0.484128 0.301003 0.843751 0.099683
H3    H     H_    0.692137 0.779914 0.980693 0.121706
H4    H     H_    0.307863 0.279922 0.019308 0.121706
H5    H     H_    0.583155 0.780198 0.026705 0.110945
H6    H     H_    0.416845 0.280206 0.973296 0.110945
C7    C     C_R   0.602524 0.850221 0.282343 -0.028298
C8    C     C_R   0.397476 0.350222 0.717657 -0.028298
C9    C     C_R   0.928638 0.910841 0.316102 -0.177854
C10   C     C_R   0.071362 0.410835 0.683898 -0.177855
C11   C     C_R   0.893131 0.927253 0.392438 -0.142727
C12   C     C_R   0.106869 0.427245 0.607561 -0.142727
C13   C     C_R   0.822849 0.907276 0.368863 -0.169438
C14   C     C_R   0.177150 0.407270 0.631136 -0.169439
C15   C     C_R   0.786057 0.868578 0.267148 0.080395
C16   C     C_R   0.213943 0.368577 0.732851 0.080396
C17   C     C_R   0.823204 0.847958 0.189463 0.070814
C18   C     C_R   0.176796 0.347959 0.810537 0.070814
C19   C     C_R   0.713648 0.853819 0.239648 0.071887
C20   C     C_R   0.286352 0.353820 0.760352 0.071887
C21   C     C_R   0.680059 0.821426 0.135188 0.147412
C22   C     C_R   0.319941 0.321430 0.864812 0.147412
C23   C     C_R   0.717510 0.803828 0.060486 -0.221099
C24   C     C_R   0.282490 0.303833 0.939514 -0.221098
C25   C     C_R   0.787917 0.816248 0.087069 -0.217272
C26   C     C_R   0.212084 0.316252 0.912931 -0.217271
C27   C     C_R   0.673192 0.868643 0.312254 -0.219651
C28   C     C_R   0.326808 0.368642 0.687745 -0.219651
C29   C     C_R   0.570531 0.818216 0.179475 -0.176111
C30   C     C_R   0.429469 0.318220 0.820526 -0.176112
C31   C     C_R   0.894933 0.866883 0.215418 -0.078043
C32   C     C_R   0.105067 0.366882 0.784582 -0.078042
H7    H     H_    0.694834 0.888534 0.393115 0.087825
H8    H     H_    0.305166 0.388531 0.606884 0.087825
H9    H     H_    0.982526 0.938218 0.334689 0.125452
H10   H     H_    0.017473 0.438212 0.665311 0.125452
H11   H     H_    0.798991 0.927064 0.431864 0.093710
H12   H     H_    0.201009 0.427056 0.568136 0.093710
H13   H     H_    0.920091 0.960423 0.470269 0.118065
H14   H     H_    0.079909 0.460413 0.529730 0.118065
H15   H     H_    0.814498 0.802486 0.026192 0.115172
H16   H     H_    0.185502 0.302492 0.973808 0.115172
C33   C     C_3   0.223221 0.666878 0.177930 -0.419851
C34   C     C_3   0.776779 0.166877 0.822069 -0.419851
H17   H     H_    0.191907 0.546452 0.193432 0.153256
H18   H     H_    0.808093 0.046452 0.806566 0.153257
H19   H     H_    0.229132 0.650463 0.097830 0.166102
H20   H     H_    0.770869 0.150460 0.902168 0.166102
C35   C     C_3   0.293808 0.657227 0.253864 -0.331788
C36   C     C_3   0.706192 0.157226 0.746134 -0.331788
H21   H     H_    0.332550 0.615291 0.211381 0.144209
H22   H     H_    0.667451 0.115287 0.788617 0.144210
H23   H     H_    0.292850 0.545977 0.312085 0.146951
H24   H     H_    0.707151 0.045977 0.687913 0.146951
H25   H     H_    0.163876 0.745749 0.325979 0.044929
H26   H     H_    0.836124 0.245752 0.674020 0.044928
H27   H     H_    0.267398 0.802482 0.439333 0.091022
H28   H     H_    0.732602 0.302487 0.560667 0.091022
C37   C     C_3   0.186193 0.878890 0.304862 0.341216
C38   C     C_3   0.813806 0.378893 0.695138 0.341216
C39   C     C_3   0.232925 0.016119 0.159556 -0.319649
C40   C     C_3   0.767074 0.516117 0.840445 -0.319650
C41   C     C_3   0.187604 0.857563 0.188903 0.063525
C42   C     C_3   0.812396 0.357563 0.811096 0.063525
H29   H     H_    0.212024 0.156634 0.172296 0.167363
H30   H     H_    0.787975 0.656633 0.827706 0.167363
H31   H     H_    0.232468 0.005762 0.076535 0.132749
H32   H     H_    0.767532 0.505758 0.923466 0.132749
C43   C     C_3   0.313345 0.850132 0.308587 0.077459
C44   C     C_3   0.686655 0.350132 0.691413 0.077459
C45   C     C_3   0.260599 0.897911 0.371786 -0.365136
C46   C     C_3   0.739401 0.397914 0.628214 -0.365135
C47   C     C_3   0.307362 0.002331 0.223886 -0.349192
C48   C     C_3   0.692638 0.502328 0.776115 -0.349192
H33   H     H_    0.341639 0.966527 0.172820 0.134545
H34   H     H_    0.658360 0.466523 0.827180 0.134545
H35   H     H_    0.323545 0.142176 0.258646 0.145676
H36   H     H_    0.676454 0.642174 0.741356 0.145676
H37   H     H_    0.270710 0.043903 0.401313 0.145834
H38   H     H_    0.729289 0.543906 0.598688 0.145834
O11   O     O_R   0.912980 0.203550 0.915410 -0.549972
O12   O     O_R   0.087020 0.703550 0.084590 -0.549971
O13   O     O_R   0.047270 0.535570 0.887960 -0.534651
O14   O     O_R   0.952730 0.035570 0.112040 -0.534651
C49   C     C_R   0.065103 0.369112 0.862926 0.692137
C50   C     C_R   0.934897 0.869112 0.137074 0.692138
O15   O     O_R   0.911030 0.532970 0.903270 -0.526801
O16   O     O_R   0.088970 0.032970 0.096730 -0.526802
O17   O     O_R   0.949820 0.708150 0.099970 -0.541754
O18   O     O_R   0.050180 0.208150 0.900030 -0.541754
C51   C     C_R   0.883771 0.364659 0.881562 0.694368
C52   C     C_R   0.116229 0.864659 0.118438 0.694367
O19   O     O_3   0.012900 0.375230 0.064480 -0.373544
O20   O     O_3   0.987100 0.875230 0.935520 -0.373544
V3    V     V_3+5 0.997610 0.648190 0.988040 1.431370
V4    V     V_3+5 0.002390 0.148190 0.011960 1.431370
O21   O     O_3   0.143941 0.032765 0.317529 -0.579460
C53   C     C_3   0.137736 0.059503 0.420330 0.071148
H39   H     H_    0.098257 0.169525 0.416708 0.149668
H40   H     H_    0.184988 0.119585 0.469183 0.112812
C54   C     C_3   0.116399 0.883297 0.472531 -0.374831
H41   H     H_    0.077715 0.801146 0.417306 0.184618
H42   H     H_    0.161196 0.790775 0.500294 0.182920
C55   C     C_3   0.088043 0.937065 0.564708 -0.780585
H43   H     H_    0.128159 0.005289 0.624759 0.248026
H44   H     H_    0.070135 0.809423 0.598008 0.233181
H45   H     H_    0.044325 0.034777 0.541058 0.221228
O22   O     O_3   0.856059 0.532769 0.682472 -0.579459
C56   C     C_3   0.862264 0.559508 0.579671 0.071148
H46   H     H_    0.901742 0.669531 0.583294 0.149669
H47   H     H_    0.815012 0.619592 0.530818 0.112812
C57   C     C_3   0.883601 0.383303 0.527468 -0.374833
H48   H     H_    0.922284 0.301151 0.582693 0.184618
H49   H     H_    0.838803 0.290785 0.499704 0.182920
C58   C     C_3   0.911958 0.437073 0.435293 -0.780581
H50   H     H_    0.871841 0.505297 0.375241 0.248026
H51   H     H_    0.929867 0.309432 0.401992 0.233179
H52   H     H_    0.955675 0.534787 0.458944 0.221229

loop_
_geom_bond_atom_site_label_1
_geom_bond_atom_site_label_2
_ccdc_geom_bond_type
C39   H29   S    
O12   C52   A    
O22   C56   S    
C43   C47   S    
C9    C11   A    
O13   V3    S    
O1    C3    A    
C40   H30   S    
O2    C4    A    
C31   C50   S    
O20   V4    S    
O3    V1    S    
C21   C23   A    
C38   C46   S    
O5    C3    A    
C37   C45   S    
C5    H5    S    
O16   V4    S    
C6    H6    S    
O15   V3    S    
H1    C29   S    
C27   H7    S    
O21   C53   S    
O11   C51   A    
C28   H8    S    
C48   H36   S    
C2    O7    A    
C53   H39   S    
C5    C21   A    
O18   V4    S    
C33   H17   S    
C33   C35   S    
O17   V3    S    
C34   H18   S    
C1    C44   S    
C10   C32   A    
C44   C48   S    
C17   C31   A    
C58   H52   S    
C40   H32   S    
C13   C15   A    
C49   O18   A    
C12   C14   A    
C17   C25   A    
C7    C29   A    
C39   C47   S    
C8    C30   A    
O5    V1    S    
C34   C42   S    
C32   C49   S    
O6    V2    S    
C11   C13   A    
C23   C25   A    
C24   C26   A    
O11   V4    S    
O20   V3    S    
C54   H42   S    
C34   H20   S    
C42   C51   S    
C40   C42   S    
C39   C41   S    
C10   H10   S    
C3    C8    S    
C15   C19   A    
C2    C43   S    
C45   H37   S    
C36   H24   S    
C35   H21   S    
C14   C16   A    
C40   C48   S    
C57   H49   S    
C56   H47   S    
O14   V4    S    
C47   H33   S    
C38   C42   S    
C37   C41   S    
O6    C4    A    
C48   H34   S    
O19   V3    S    
O1    V2    S    
O14   C50   A    
O2    V1    S    
H2    C30   S    
H3    C23   S    
O4    C2    A    
C44   C46   S    
C43   C45   S    
C58   H50   S    
C36   C44   S    
C18   C26   A    
C57   C58   S    
O4    V2    S    
C19   C27   A    
C56   H46   S    
C38   O22   S    
C7    C27   A    
C39   H31   S    
C18   C32   A    
O16   C52   A    
C54   C55   S    
O15   C51   A    
C16   C20   A    
O12   V3    S    
C5    C29   A    
C11   H13   S    
O3    C1    A    
C6    C30   A    
C54   H41   S    
C9    H9    S    
O9    V2    S    
C25   H15   S    
C35   C43   S    
C53   C54   S    
C34   C36   S    
C4    C7    S    
C55   H45   S    
C10   C12   A    
C57   H48   S    
O7    V1    S    
C56   C57   S    
C1    O8    A    
C19   C21   A    
O8    V2    S    
C20   C22   A    
H4    C24   S    
C26   H16   S    
C12   H14   S    
C22   C24   A    
C15   C17   A    
C16   C18   A    
C53   H40   S    
O19   V4    S    
C35   H23   S    
C14   H12   S    
C20   C28   A    
C8    C28   A    
C47   H35   S    
C33   H19   S    
C6    C22   A    
C41   C52   S    
O13   C49   A    
H26   C38   S    
H27   C45   S    
C58   H51   S    
C36   H22   S    
H25   C37   S    
O10   V1    S    
C33   C41   S    
C13   H11   S    
C55   H43   S    
C37   O21   S    
C55   H44   S    
C46   H38   S    
C50   O17   A    
C9    C31   A    
H28   C46   S    
