data_mof_unit_pretest_1348.cif
_audit_creation_date              2012-12-10T17:43:39-0500
_audit_creation_method            fapswitch 2.2
_symmetry_space_group_name_H-M    P1
_symmetry_Int_Tables_number       1
_space_group_crystal_system       triclinic
_cell_length_a                    15.006715
_cell_length_b                    10.763786
_cell_length_c                    9.92334
_cell_angle_alpha                 90.683121
_cell_angle_beta                  91.566326
_cell_angle_gamma                 92.190525
_cell_volume                      1601.00314371

loop_
_atom_site_label
_atom_site_type_symbol
_atom_type_description
_atom_site_fract_x
_atom_site_fract_y
_atom_site_fract_z
_atom_type_partial_charge
C1    C     C_R   0.509643 0.261982 0.499285 0.961134
C2    C     C_R   0.179722 0.375459 0.485698 0.450632
C3    C     C_R   0.230882 0.488141 0.498160 -0.175779
C4    C     C_R   0.326911 0.493258 0.498858 1.022258
C5    C     C_R   0.190758 0.601194 0.513619 -0.210241
C6    C     C_R   0.607597 0.130569 0.706717 -0.154319
C7    C     C_R   0.628240 0.074784 0.828637 -0.128720
C8    C     C_R   0.591016 0.958295 0.856202 -0.161258
C9    C     C_R   0.539119 0.893643 0.757802 -0.127875
C10   C     C_R   0.525378 0.943247 0.626670 0.045201
C11   C     C_R   0.550582 0.068505 0.609392 0.077620
C12   C     C_R   0.912119 0.616797 0.514376 -0.027889
C13   C     C_R   0.515532 0.129720 0.497141 -0.184407
C14   C     C_R   0.469433 0.065312 0.392934 -0.227453
C15   C     C_R   0.455276 0.938798 0.398695 0.367876
C16   C     C_R   0.494089 0.740255 0.502400 0.913478
C17   C     C_R   0.488146 0.874973 0.511757 -0.266348
C18   C     C_R   0.364244 0.367399 0.125363 0.426016
C19   C     C_R   0.344951 0.247133 0.076729 -0.254978
C20   C     C_R   0.354348 0.223840 0.938323 0.194638
C21   C     C_R   0.395913 0.317293 0.860959 -0.177800
C22   C     C_R   0.444612 0.416968 0.925408 0.125481
C23   C     C_R   0.939636 0.280126 0.440717 -0.247926
C24   C     C_R   0.438217 0.427314 0.067857 0.049544
C25   C     C_R   0.558426 0.572939 0.074946 -0.014753
C26   C     C_R   0.556503 0.575782 0.931696 -0.118562
C27   C     C_R   0.672938 0.503291 0.501586 0.884442
C28   C     C_R   0.819375 0.615048 0.533878 0.171883
C29   C     C_R   0.768521 0.505457 0.503005 -0.083191
C30   C     C_R   0.808203 0.396473 0.465951 -0.316369
C31   C     C_R   0.900092 0.392663 0.465379 0.167864
C32   C     C_R   0.952778 0.502597 0.489422 0.010830
C33   C     C_3   0.719473 0.790762 0.529003 -0.740958
C34   C     C_R   0.031497 0.274038 0.445820 -0.080897
C35   C     C_3   0.229179 0.073509 0.902149 -0.605902
C36   C     C_3   0.140646 0.888394 0.406459 -0.580611
C37   C     C_3   0.899791 0.871298 0.360578 -0.769064
C38   C     C_R   0.086186 0.381169 0.474156 0.054296
C39   C     C_R   0.045906 0.497460 0.490069 -0.035364
C40   C     C_R   0.098490 0.607865 0.509647 0.051883
C41   C     C_R   0.058456 0.723635 0.520901 0.131796
C42   C     C_R   0.964887 0.728863 0.517703 0.145406
H1    H     H_    0.636280 0.222593 0.689327 0.142838
H2    H     H_    0.899384 0.195947 0.419846 0.140963
H3    H     H_    0.058059 0.184290 0.425699 0.212340
H4    H     H_    0.232783 0.684379 0.529939 0.205564
H5    H     H_    0.440249 0.114900 0.309301 0.208061
H6    H     H_    0.818355 0.760235 0.677855 0.236788
H7    H     H_    0.747578 0.887282 0.522537 0.246021
H8    H     H_    0.657881 0.793944 0.585426 0.242288
H9    H     H_    0.704020 0.753482 0.425702 0.225962
H10   H     H_    0.480298 0.871731 0.116052 0.325098
H11   H     H_    0.232560 0.646143 0.134044 0.388190
H12   H     H_    0.670357 0.123887 0.903609 0.136880
H13   H     H_    0.337706 0.099216 0.776880 0.250942
H14   H     H_    0.209888 0.988336 0.842395 0.213566
H15   H     H_    0.184007 0.148778 0.873312 0.271272
H16   H     H_    0.220779 0.050605 0.009691 0.265955
H17   H     H_    0.215403 0.065238 0.609882 0.374443
H18   H     H_    0.095718 0.898149 0.604743 0.227385
H19   H     H_    0.097087 0.965460 0.378500 0.233593
H20   H     H_    0.138882 0.818066 0.323266 0.248796
H21   H     H_    0.209910 0.926524 0.419523 0.303464
H22   H     H_    0.954553 0.920552 0.549230 0.228102
H23   H     H_    0.602503 0.917575 0.954064 0.123222
H24   H     H_    0.865524 0.960790 0.355575 0.221425
H25   H     H_    0.853752 0.796814 0.317873 0.254128
H26   H     H_    0.959888 0.877931 0.298069 0.241973
H27   H     H_    0.507140 0.808916 0.791164 0.190945
H28   H     H_    0.606007 0.632628 0.131343 0.126652
H29   H     H_    0.304277 0.185213 0.135621 0.244206
H30   H     H_    0.388675 0.309417 0.754533 0.242737
H31   H     H_    0.767147 0.313159 0.443166 0.137217
H32   H     H_    0.602590 0.637662 0.880697 0.133948
N1    N     N_R   0.499150 0.498800 0.142780 -0.107435
N2    N     N_R   0.499120 0.498720 0.857170 -0.109456
N3    N     N_2   0.779832 0.714402 0.603808 -0.298438
N4    N     N_2   0.320880 0.110622 0.876235 -0.280851
N5    N     N_2   0.112910 0.834756 0.532286 -0.351569
N6    N     N_2   0.924080 0.845280 0.499431 -0.299935
O1    O     O_R   0.500000 0.316780 0.614690 -0.639636
O2    O     O_2   0.324264 0.960277 0.209197 -0.327097
O3    O     O_3   0.443992 0.802065 0.153055 -0.493913
O4    O     O_2   0.229533 0.446135 0.970772 -0.306973
O5    O     O_2   0.196735 0.402885 0.204531 -0.311209
O6    O     O_3   0.289567 0.604513 0.150114 -0.437244
O7    O     O_2   0.219693 0.169096 0.349796 -0.314646
O8    O     O_2   0.326347 0.238005 0.527506 -0.383472
O9    O     O_3   0.176963 0.137232 0.598637 -0.620567
O10   O     O_R   0.499990 0.316750 0.385360 -0.646011
O11   O     O_R   0.367850 0.499980 0.614680 -0.622398
O12   O     O_R   0.367840 0.499960 0.385350 -0.535373
O13   O     O_R   0.500010 0.683250 0.614640 -0.653572
O14   O     O_R   0.500000 0.683220 0.385310 -0.539462
O15   O     O_R   0.632160 0.500040 0.614650 -0.623616
O16   O     O_R   0.632150 0.500020 0.385320 -0.647037
O17   O     O_2   0.326796 0.769619 0.339032 -0.297492
S1    S     S_3+6 0.383809 0.867489 0.273321 0.030454
S2    S     S_3+6 0.266422 0.454502 0.113216 0.051132
S3    S     S_3+6 0.229766 0.228162 0.487386 -0.038531
Zn1   Zn    Zn3+2 0.500010 0.500020 0.653130 0.964320
Zn2   Zn    Zn3+2 0.499990 0.499980 0.346870 1.033450

loop_
_geom_bond_atom_site_label_1
_geom_bond_atom_site_label_2
_ccdc_geom_bond_type
H18   N5    S    
C42   N6    S    
C1    O10   A    
O16   Zn2   S    
C27   C29   S    
O2    S1    D    
C41   C42   A    
C27   O15   A    
C19   C20   A    
C22   N2    A    
O17   S1    D    
C7    C8    A    
O1    Zn1   S    
C16   O13   A    
C12   C28   A    
C35   H16   S    
C18   C24   A    
C28   C29   A    
C9    H27   S    
C30   C31   A    
C10   C17   A    
C1    O1    A    
C37   H26   S    
C18   C19   A    
H17   O9    S    
C32   C39   A    
O10   Zn2   S    
C12   C42   A    
C14   H5    S    
C19   H29   S    
C8    C9    A    
O3    S1    S    
N1    Zn2   S    
C26   N2    A    
H11   O6    S    
C36   H21   S    
C9    C10   A    
O12   Zn2   S    
C4    O11   A    
C2    S3    S    
C8    H23   S    
C21   C22   A    
C12   C32   A    
H22   N6    S    
C27   O16   A    
O11   Zn1   S    
C36   H20   S    
C28   N3    S    
C37   N6    S    
C21   H30   S    
O13   Zn1   S    
C39   C40   A    
C30   H31   S    
C16   C17   S    
O9    S3    S    
C25   C26   A    
C23   H2    S    
C25   N1    A    
C23   C31   A    
H6    N3    S    
H10   O3    S    
C29   C30   A    
O5    S2    D    
C2    C38   A    
C31   C32   A    
C23   C34   A    
C37   H24   S    
C34   H3    S    
O6    S2    S    
O8    S3    D    
C40   C41   A    
C6    H1    S    
C22   C24   A    
C1    C13   S    
C18   S2    S    
C15   S1    S    
C3    C4    S    
C6    C11   A    
O7    S3    D    
N2    Zn1   S    
C15   C17   A    
C35   H14   S    
C34   C38   A    
O4    S2    D    
C3    C5    A    
C36   N5    S    
C41   N5    S    
C24   N1    A    
C6    C7    A    
C33   H9    S    
C5    H4    S    
C35   N4    S    
C16   O14   A    
C20   N4    S    
C35   H15   S    
C2    C3    A    
C33   H8    S    
C11   C13   A    
C33   N3    S    
C38   C39   A    
C37   H25   S    
C26   H32   S    
C36   H19   S    
C10   C11   A    
H13   N4    S    
C20   C21   A    
O14   Zn2   S    
C5    C40   A    
C14   C15   A    
C25   H28   S    
C7    H12   S    
C13   C14   A    
C33   H7    S    
O15   Zn1   S    
C4    O12   A    
