data_mof_unit_pretest_760.cif
_audit_creation_date              2012-12-11T15:33:52-0500
_audit_creation_method            fapswitch 2.2
_symmetry_space_group_name_H-M    P1
_symmetry_Int_Tables_number       1
_space_group_crystal_system       triclinic
_cell_length_a                    27.169094
_cell_length_b                    7.206116
_cell_length_c                    22.739933
_cell_angle_alpha                 89.999563
_cell_angle_beta                  101.166716
_cell_angle_gamma                 90.000022
_cell_volume                      4367.81884984

loop_
_atom_site_label
_atom_site_type_symbol
_atom_type_description
_atom_site_fract_x
_atom_site_fract_y
_atom_site_fract_z
_atom_type_partial_charge
O1    O     O_R   0.207310 0.594030 0.676830 -0.534976
O2    O     O_R   0.792690 0.405970 0.323170 -0.534976
O3    O     O_R   0.292690 0.094030 0.823170 -0.534975
O4    O     O_R   0.707310 0.905970 0.176830 -0.534975
O5    O     O_R   0.197320 0.262370 0.795700 -0.539799
O6    O     O_R   0.802680 0.737630 0.204300 -0.539799
O7    O     O_R   0.302680 0.762370 0.704300 -0.539799
O8    O     O_R   0.697320 0.237630 0.295700 -0.539798
C1    C     C_R   0.184739 0.432607 0.811980 0.716164
C2    C     C_R   0.815261 0.567393 0.188020 0.716163
C3    C     C_R   0.315261 0.932608 0.688020 0.716163
C4    C     C_R   0.684738 0.067392 0.311980 0.716164
O9    O     O_R   0.201410 0.264250 0.675590 -0.531328
O10   O     O_R   0.798590 0.735750 0.324410 -0.531328
O11   O     O_R   0.298590 0.764250 0.824410 -0.531329
O12   O     O_R   0.701410 0.235750 0.175590 -0.531328
O13   O     O_R   0.296810 0.094940 0.702210 -0.539872
O14   O     O_R   0.703190 0.905060 0.297790 -0.539872
O15   O     O_R   0.203190 0.594940 0.797790 -0.539871
O16   O     O_R   0.796810 0.405060 0.202210 -0.539871
C5    C     C_R   0.189796 0.432549 0.653472 0.694269
C6    C     C_R   0.810204 0.567450 0.346528 0.694268
C7    C     C_R   0.310203 0.932548 0.846528 0.694269
C8    C     C_R   0.689797 0.067452 0.153472 0.694269
O17   O     O_3   0.281300 0.427390 0.758870 -0.373854
O18   O     O_3   0.718700 0.572610 0.241130 -0.373854
O19   O     O_3   0.218700 0.927390 0.741130 -0.373854
O20   O     O_3   0.781300 0.072610 0.258870 -0.373853
V1    V     V_3+5 0.244190 0.152150 0.748350 1.444025
V2    V     V_3+5 0.755810 0.847850 0.251650 1.444027
V3    V     V_3+5 0.255810 0.652150 0.751650 1.444026
V4    V     V_3+5 0.744190 0.347850 0.248350 1.444026
C9    C     C_R   0.654953 0.062114 0.095047 -0.081184
C10   C     C_R   0.345047 0.937886 0.904953 -0.081185
C11   C     C_R   0.845046 0.562110 0.404953 -0.081180
C12   C     C_R   0.154953 0.437890 0.595047 -0.081184
C13   C     C_R   0.640555 0.105160 0.987933 -0.085454
C14   C     C_R   0.359446 0.894838 0.012067 -0.085454
C15   C     C_R   0.859444 0.605150 0.512066 -0.085456
C16   C     C_R   0.140554 0.394838 0.487934 -0.085456
C17   C     C_R   0.672624 0.109388 0.043526 -0.182348
C18   C     C_R   0.327376 0.890608 0.956473 -0.182348
C19   C     C_R   0.827375 0.609374 0.456473 -0.182349
C20   C     C_R   0.172623 0.390608 0.543527 -0.182348
C21   C     C_R   0.603934 0.019155 0.090870 -0.106300
C22   C     C_R   0.396066 0.980849 0.909130 -0.106300
C23   C     C_R   0.896067 0.519160 0.409129 -0.106304
C24   C     C_R   0.103934 0.480858 0.590870 -0.106302
C25   C     C_R   0.569112 0.030635 0.035196 0.064633
C26   C     C_R   0.430888 0.969370 0.964804 0.064633
C27   C     C_R   0.930888 0.530641 0.464804 0.064635
C28   C     C_R   0.069112 0.469379 0.535196 0.064634
C29   C     C_R   0.589242 0.062383 0.982855 0.038802
C30   C     C_R   0.410759 0.937619 0.017145 0.038803
C31   C     C_R   0.910758 0.562384 0.517145 0.038800
C32   C     C_R   0.089241 0.437625 0.482855 0.038801
C33   C     C_R   0.515651 0.006861 0.029315 -0.164483
C34   C     C_R   0.484348 0.993146 0.970684 -0.164484
C35   C     C_R   0.984349 0.506873 0.470685 -0.164483
C36   C     C_R   0.015652 0.493157 0.529316 -0.164484
C37   C     C_R   0.507882 0.999032 0.920210 0.587445
C38   C     C_R   0.492118 0.000977 0.079789 0.587444
C39   C     C_R   0.992118 0.499043 0.579790 0.587443
C40   C     C_R   0.007882 0.500992 0.420211 0.587440
C41   C     C_R   0.558652 0.043453 0.925980 0.086407
C42   C     C_R   0.441348 0.956552 0.074019 0.086407
C43   C     C_R   0.941348 0.543461 0.574020 0.086411
C44   C     C_R   0.058652 0.456562 0.425981 0.086408
H1    H     H_    0.406643 0.027799 0.868450 0.187067
H2    H     H_    0.593356 0.972208 0.131550 0.187066
H3    H     H_    0.093357 0.527811 0.631550 0.187067
H4    H     H_    0.906645 0.472220 0.368449 0.187064
H5    H     H_    0.288237 0.855237 0.953823 0.119904
H6    H     H_    0.711763 0.144755 0.046177 0.119904
H7    H     H_    0.211762 0.355233 0.546178 0.119902
H8    H     H_    0.788235 0.644734 0.453822 0.119901
H9    H     H_    0.656388 0.135084 0.948783 0.166976
H10   H     H_    0.343613 0.864910 0.051217 0.166976
H11   H     H_    0.843610 0.635069 0.551217 0.166975
H12   H     H_    0.156387 0.364908 0.448783 0.166974
C45   C     C_R   0.632698 0.881064 0.371119 -0.223705
C46   C     C_R   0.367302 0.118936 0.628881 -0.223705
C47   C     C_R   0.867297 0.381068 0.128875 -0.223709
C48   C     C_R   0.132703 0.618932 0.871125 -0.223707
H13   H     H_    0.650211 0.754916 0.359413 0.150306
H14   H     H_    0.349790 0.245084 0.640588 0.150306
H15   H     H_    0.849780 0.254922 0.140576 0.150307
H16   H     H_    0.150220 0.745077 0.859424 0.150307
C49   C     C_R   0.596948 0.865936 0.407685 0.650612
C50   C     C_R   0.403052 0.134064 0.592315 0.650613
C51   C     C_R   0.903046 0.365941 0.092308 0.650610
C52   C     C_R   0.096954 0.634059 0.907692 0.650610
C53   C     C_R   0.572952 0.025240 0.424703 -0.116569
C54   C     C_R   0.427048 0.974760 0.575297 -0.116569
C55   C     C_R   0.927048 0.525242 0.075296 -0.116567
C56   C     C_R   0.072952 0.474758 0.924704 -0.116567
C57   C     C_R   0.586011 0.199112 0.403724 -0.167335
C58   C     C_R   0.413989 0.800887 0.596276 -0.167336
C59   C     C_R   0.913993 0.699112 0.096281 -0.167327
C60   C     C_R   0.086007 0.300888 0.903719 -0.167327
H17   H     H_    0.568426 0.324738 0.415612 0.230914
H18   H     H_    0.431573 0.675262 0.584388 0.230914
H19   H     H_    0.931582 0.824735 0.084398 0.230902
H20   H     H_    0.068418 0.175265 0.915602 0.230902
C61   C     C_R   0.621986 0.213839 0.367176 -0.126483
C62   C     C_R   0.378014 0.786161 0.632824 -0.126483
C63   C     C_R   0.878019 0.713838 0.132829 -0.126479
C64   C     C_R   0.121981 0.286162 0.867171 -0.126480
H21   H     H_    0.631002 0.350135 0.352219 0.161325
H22   H     H_    0.368997 0.649865 0.647781 0.161325
H23   H     H_    0.869006 0.850132 0.147791 0.161325
H24   H     H_    0.130994 0.149868 0.852209 0.161325
C65   C     C_R   0.645912 0.054808 0.350331 -0.139184
C66   C     C_R   0.354088 0.945192 0.649669 -0.139183
C67   C     C_R   0.854088 0.554809 0.149669 -0.139185
C68   C     C_R   0.145912 0.445191 0.850331 -0.139184
N1    N     N_R   0.512426 0.166667 0.480700 -0.262686
N2    N     N_R   0.487574 0.833333 0.519300 -0.262687
N3    N     N_R   0.987587 0.666667 0.019316 -0.262683
N4    N     N_R   0.012413 0.333333 0.980684 -0.262684
N5    N     N_R   0.478484 0.155011 0.515803 -0.171450
N6    N     N_R   0.521515 0.844989 0.484197 -0.171450
N7    N     N_R   0.021529 0.655004 0.984214 -0.171453
N8    N     N_R   0.978471 0.344996 0.015786 -0.171453
C69   C     C_R   0.465208 0.988174 0.535984 0.534824
C70   C     C_R   0.534792 0.011826 0.464016 0.534823
C71   C     C_R   0.034792 0.488173 0.964016 0.534818
C72   C     C_R   0.965208 0.511827 0.035984 0.534819
N9    N     N_3   0.579854 0.060617 0.873096 -0.649525
H25   H     H_    0.560086 0.163539 0.845851 0.270920
H26   H     H_    0.574896 0.934878 0.849743 0.281801
N10   N     N_3   0.420146 0.939389 0.126903 -0.649524
H27   H     H_    0.439915 0.836474 0.154151 0.270922
H28   H     H_    0.425103 0.065132 0.150255 0.281798
N11   N     N_3   0.920146 0.560629 0.626904 -0.649525
H29   H     H_    0.939914 0.663551 0.654149 0.270920
H30   H     H_    0.925104 0.434891 0.650259 0.281799
N12   N     N_3   0.079854 0.439400 0.373096 -0.649523
H31   H     H_    0.060082 0.336496 0.345847 0.270924
H32   H     H_    0.074901 0.565147 0.349747 0.281794
F1    F     F_    0.483511 0.950312 0.864581 -0.707500
F2    F     F_    0.516488 0.049702 0.135418 -0.707499
F3    F     F_    0.016489 0.450328 0.635420 -0.707502
F4    F     F_    0.983513 0.549724 0.364582 -0.707499
F5    F     F_    0.586307 0.694343 0.426362 -0.682351
F6    F     F_    0.413693 0.305657 0.573639 -0.682351
F7    F     F_    0.913683 0.194350 0.073626 -0.682345
F8    F     F_    0.086317 0.805650 0.926373 -0.682345

loop_
_geom_bond_atom_site_label_1
_geom_bond_atom_site_label_2
_ccdc_geom_bond_type
O17   V3    S    
C59   H19   S    
O1    C5    A    
C52   F8    S    
C9    C21   A    
O3    C7    A    
C10   C18   A    
C52   C56   A    
O15   V3    S    
C51   F7    S    
N4    C71   A    
C25   C33   A    
N11   H29   S    
C5    C12   S    
O18   V4    S    
C6    C11   S    
C35   C40   A    
C26   C30   A    
C62   C66   A    
C36   C39   A    
C40   C44   A    
C61   C65   A    
O10   V2    S    
C14   C18   A    
C62   H22   S    
O4    C8    A    
C55   C59   A    
O19   V1    S    
C54   C58   A    
O1    V3    S    
O13   V1    S    
C31   C43   A    
O2    V4    S    
N2    N6    A    
O3    V1    S    
C3    C66   S    
N1    N5    A    
C53   C70   S    
O7    C3    A    
C28   C36   A    
C17   H6    S    
C44   N12   S    
C55   C72   S    
C1    O15   A    
C60   H20   S    
C15   C31   A    
C2    O16   A    
N10   H27   S    
C22   H1    S    
O2    C6    A    
C16   H12   S    
C10   C22   A    
N2    C69   A    
C11   C19   A    
N1    C70   A    
C16   C20   A    
O5    V1    S    
N8    C72   A    
C45   C49   A    
N3    C72   A    
C34   C37   A    
O11   C7    A    
C11   C23   A    
C35   C36   A    
O12   C8    A    
C13   C17   A    
C59   C63   A    
C38   F2    S    
C50   C54   A    
C42   N10   S    
C39   C43   A    
C60   C64   A    
O7    V3    S    
C38   C42   A    
O8    V4    S    
C47   C67   A    
C33   C38   A    
C46   C66   A    
C15   C19   A    
C40   F4    S    
C16   C32   A    
C58   H18   S    
C13   H9    S    
C64   H24   S    
C56   C71   S    
N4    N8    A    
C26   C34   A    
N6    C70   A    
C20   H7    S    
C49   F5    S    
C13   C29   A    
O5    C1    A    
C43   N11   S    
C41   N9    S    
N7    C71   A    
C14   C30   A    
C21   C25   A    
O8    C4    A    
C7    C10   S    
C57   H17   S    
O9    C5    A    
C63   C67   A    
N12   H32   S    
N10   H28   S    
O14   V2    S    
C37   F1    S    
O6    V2    S    
N5    C69   A    
C12   C20   A    
C27   C35   A    
C24   H3    S    
C4    O14   A    
C53   C57   A    
C29   C41   A    
C4    C65   S    
O16   V4    S    
C54   C69   S    
O9    V1    S    
C19   H8    S    
N11   H30   S    
C61   H21   S    
C3    O13   A    
C18   H5    S    
C21   H2    S    
C1    C68   S    
C63   H23   S    
C48   H16   S    
C46   C50   A    
C47   H15   S    
O6    C2    A    
C23   C27   A    
O11   V3    S    
C30   C42   A    
N3    N7    A    
O12   V4    S    
C47   C51   A    
C22   C26   A    
C14   H10   S    
C8    C9    S    
C58   C62   A    
C9    C17   A    
O10   C6    A    
O20   V2    S    
N9    H25   S    
C57   C61   A    
C50   F6    S    
C32   C44   A    
C46   H14   S    
C64   C68   A    
C33   C34   A    
C25   C29   A    
C56   C60   A    
C12   C24   A    
C27   C31   A    
C49   C53   A    
C45   H13   S    
C23   H4    S    
N12   H31   S    
C51   C55   A    
C37   C41   A    
C24   C28   A    
C48   C68   A    
C45   C65   A    
C39   F3    S    
C48   C52   A    
O4    V2    S    
C2    C67   S    
C28   C32   A    
C15   H11   S    
N9    H26   S    
