data_mof_unit_pretest_1266.cif
_audit_creation_date              2013-03-05T16:48:04-0500
_audit_creation_method            fapswitch 2.2
_symmetry_space_group_name_H-M    P1
_symmetry_Int_Tables_number       1
_space_group_crystal_system       triclinic
_cell_length_a                    19.168016
_cell_length_b                    8.933897
_cell_length_c                    8.118144
_cell_angle_alpha                 90.003271
_cell_angle_beta                  90.115868
_cell_angle_gamma                 90.001574
_cell_volume                      1390.18937845

loop_
_atom_site_label
_atom_site_type_symbol
_atom_site_description
_atom_site_fract_x
_atom_site_fract_y
_atom_site_fract_z
_atom_type_partial_charge
O1    O     O_R   0.500000 0.285350 0.636850 -0.613663
O2    O     O_R   0.500000 0.714650 0.363150 -0.611957
O3    O     O_R   0.500000 0.714650 0.636850 -0.612058
O4    O     O_R   0.500000 0.285350 0.363150 -0.612707
C1    C     C_R   0.499999 0.218038 0.499997 0.937966
C2    C     C_R   0.499995 0.781962 0.500003 0.941176
O5    O     O_R   0.398140 0.500000 0.636920 -0.618266
O6    O     O_R   0.601860 0.500000 0.363080 -0.618760
O7    O     O_R   0.601860 0.500000 0.636920 -0.618997
O8    O     O_R   0.398140 0.500000 0.363080 -0.617552
C3    C     C_R   0.365135 0.497621 0.499929 0.909564
C4    C     C_R   0.634898 0.499751 0.500201 0.910308
Zn1   Zn    Zn3+2 0.500000 0.500000 0.682780 1.014434
Zn2   Zn    Zn3+2 0.500000 0.500000 0.317220 1.015550
C5    C     C_1   0.499995 0.065201 0.499996 -0.166940
C6    C     C_1   0.499994 0.934802 0.500005 -0.167547
N1    N     N_1   0.500000 0.500000 0.073640 -0.023636
N2    N     N_1   0.500000 0.500000 0.926360 -0.023910
C7    C     C_R   0.257077 0.420124 0.638768 -0.220900
C8    C     C_R   0.746149 0.443279 0.361767 -0.213402
C9    C     C_R   0.747334 0.534522 0.642996 -0.215188
C10   C     C_R   0.250900 0.518932 0.361133 -0.207029
C11   C     C_R   0.185135 0.397715 0.641320 0.295963
C12   C     C_R   0.818617 0.432370 0.362295 0.294655
C13   C     C_R   0.819773 0.523646 0.648438 0.297557
C14   C     C_R   0.178751 0.500142 0.359634 0.301191
C15   C     C_R   0.145801 0.440371 0.501097 -0.179508
C16   C     C_R   0.855536 0.472078 0.507014 -0.183638
C17   C     C_R   0.289750 0.480894 0.500417 -0.156465
C18   C     C_R   0.710642 0.493824 0.501104 -0.154929
N3    N     N_R   0.032155 0.321487 0.480058 -0.051865
N4    N     N_R   0.969565 0.586353 0.537985 -0.083137
N5    N     N_R   0.963010 0.329470 0.480783 -0.077486
N6    N     N_R   0.038633 0.578162 0.538240 -0.098631
C19   C     C_R   0.930925 0.462103 0.509536 0.418050
C20   C     C_R   0.070666 0.445611 0.510235 0.417897
H1    H     H_    0.288080 0.387679 0.744618 0.203508
H2    H     H_    0.717358 0.412593 0.251836 0.202416
H3    H     H_    0.719361 0.572630 0.751006 0.202133
H4    H     H_    0.276804 0.564240 0.253604 0.203664
N7    N     N_R   0.153561 0.336363 0.788175 0.245496
O9    O     O_R   0.094696 0.264180 0.781803 -0.294964
O10   O     O_R   0.187608 0.337718 0.927077 -0.330339
N8    N     N_R   0.853627 0.384154 0.214541 0.240270
O11   O     O_R   0.913812 0.440237 0.173948 -0.252460
O12   O     O_R   0.822008 0.296271 0.110566 -0.331654
N9    N     N_R   0.855680 0.561421 0.799062 0.239234
O13   O     O_R   0.911830 0.489908 0.842999 -0.258084
O14   O     O_R   0.828268 0.656475 0.901778 -0.331472
N10   N     N_R   0.139780 0.545421 0.215743 0.241280
O15   O     O_R   0.083672 0.473938 0.171208 -0.260200
O16   O     O_R   0.164007 0.649490 0.119295 -0.324970

loop_
_geom_bond_atom_site_label_1
_geom_bond_atom_site_label_2
_geom_bond_distance
_ccdc_geom_bond_type
N10   O16   1.301789 A    
N3    N5    1.327323 A    
C11   N7    1.446030 S    
C10   C17   1.394718 A    
C11   C15   1.416369 A    
C15   C20   1.443009 S    
C8    H2    1.083572 S    
C9    C18   1.396559 A    
C13   N9    1.441993 S    
C7    C11   1.393631 A    
N9    O13   1.300882 A    
O3    Zn1   1.953595 S    
O6    C4    1.279582 A    
O3    C2    1.263291 A    
C10   H4    1.083596 S    
N1    N2    1.195639 T    
O2    Zn2   1.953553 S    
N9    O14   1.301643 A    
O4    Zn2   1.953595 S    
C8    C18   1.396329 A    
C13   C16   1.415432 A    
O5    C3    1.278527 A    
N7    O10   1.301776 A    
Zn2   N1    1.977418 S    
C14   C15   1.416296 A    
O2    C2    1.263276 A    
Zn1   N2    1.977418 S    
O1    C1    1.263273 A    
N5    C19   1.355493 A    
N8    O12   1.301564 A    
N10   O15   1.301375 A    
N6    C20   1.353362 A    
C14   N10   1.443162 S    
C10   C14   1.393119 A    
C12   N8    1.441478 S    
O7    C4    1.278974 A    
C1    C5    1.365423 S    
O1    Zn1   1.953554 S    
O8    C3    1.279756 A    
C2    C6    1.365458 S    
C5    C6    1.164972 T    
C7    C17   1.396911 A    
N4    C19   1.354010 A    
C8    C12   1.392487 A    
O5    Zn1   1.986895 S    
O7    Zn1   1.988372 S    
N8    O11   1.300783 A    
C3    C17   1.452682 S    
N7    O9    1.300540 A    
C9    C13   1.392526 A    
N3    C20   1.354182 A    
O6    Zn2   1.986893 S    
C7    H1    1.083305 S    
C4    C18   1.452831 S    
N4    N6    1.325913 A    
C12   C16   1.415444 A    
C16   C19   1.447893 S    
O8    Zn2   1.988374 S    
O4    C1    1.263294 A    
C9    H3    1.083577 S    
