data_mof_unit_pretest_108.cif
_audit_creation_date              2012-12-11T15:59:24-0500
_audit_creation_method            fapswitch 2.2
_symmetry_space_group_name_H-M    P1
_symmetry_Int_Tables_number       1
_space_group_crystal_system       triclinic
_cell_length_a                    10.761443
_cell_length_b                    10.670454
_cell_length_c                    17.08118
_cell_angle_alpha                 99.855105
_cell_angle_beta                  99.541421
_cell_angle_gamma                 61.363085
_cell_volume                      1688.11776323

loop_
_atom_site_label
_atom_site_type_symbol
_atom_type_description
_atom_site_fract_x
_atom_site_fract_y
_atom_site_fract_z
_atom_type_partial_charge
C1    C     C_R   0.357985 0.774380 0.400823 0.594677
C2    C     C_R   0.835400 0.320707 0.326855 0.079087
C3    C     C_R   0.298156 0.904897 0.176584 -0.030377
C4    C     C_R   0.370400 0.346078 0.357537 0.561623
C5    C     C_R   0.439528 0.820195 0.208727 0.011865
C6    C     C_R   0.464653 0.810065 0.291428 -0.020054
C7    C     C_R   0.213467 0.948633 0.305992 0.218750
C8    C     C_R   0.187863 0.975739 0.226889 -0.129570
C9    C     C_R   0.557167 0.749569 0.162602 -0.084834
C10   C     C_R   0.694858 0.703799 0.199348 -0.143747
C11   C     C_R   0.717885 0.719728 0.282069 -0.116278
C12   C     C_R   0.792698 0.245510 0.186519 -0.039095
C13   C     C_R   0.605027 0.767678 0.328044 -0.057183
C14   C     C_R   0.346352 0.850376 0.334368 0.020612
C15   C     C_R   0.299963 0.275897 0.799508 -0.007223
C16   C     C_R   0.775222 0.374098 0.402930 0.595121
C17   C     C_R   0.426352 0.177482 0.763272 0.039825
C18   C     C_R   0.477467 0.228455 0.712920 0.035915
C19   C     C_R   0.247743 0.444296 0.705891 -0.139519
C20   C     C_R   0.210310 0.407799 0.769169 -0.145362
C21   C     C_R   0.507707 0.032134 0.779111 -0.084233
C22   C     C_R   0.645907 0.949134 0.757693 -0.110996
C23   C     C_R   0.797614 0.227398 0.267454 0.041218
C24   C     C_R   0.705853 0.009876 0.720473 -0.105473
C25   C     C_R   0.622639 0.148319 0.698436 -0.077601
C26   C     C_R   0.380240 0.354545 0.676423 -0.005019
C27   C     C_1   0.845436 0.329542 0.705492 -0.054307
C28   C     C_R   0.358210 0.769359 0.627414 0.558484
C29   C     C_1   0.891911 0.294203 0.771868 -0.052762
C30   C     C_1   0.339145 0.809346 0.709500 -0.053150
C31   C     C_1   0.312742 0.836895 0.777487 -0.063078
C32   C     C_R   0.895375 0.308873 0.088816 0.539979
C33   C     C_R   0.318536 0.299807 0.120126 0.562990
C34   C     C_R   0.906953 0.387954 0.307063 -0.129584
C35   C     C_R   0.263504 0.947217 0.096393 0.555654
C36   C     C_R   0.942355 0.273823 0.854136 0.542428
C37   C     C_R   0.279823 0.252614 0.877416 0.528688
C38   C     C_R   0.278770 0.884348 0.857305 0.543999
C39   C     C_R   0.406816 0.375874 0.599760 0.533580
C40   C     C_R   0.777532 0.378683 0.629138 0.551035
C41   C     C_1   0.343634 0.335406 0.274230 -0.040758
C42   C     C_1   0.331042 0.326361 0.203458 -0.040392
C43   C     C_R   0.856019 0.324332 0.168018 0.000893
C44   C     C_R   0.920997 0.385866 0.228693 -0.158335
C45   C     C_R   0.734654 0.176118 0.125337 -0.106987
C46   C     C_R   0.703112 0.072646 0.141643 -0.133432
C47   C     C_R   0.718383 0.043688 0.219314 -0.088072
C48   C     C_R   0.767582 0.115632 0.282354 0.287731
Cl1   Cl    Cl    0.818528 0.028496 0.370329 -0.525493
Cl2   Cl    Cl    0.094881 0.056555 0.376520 -0.566893
Cr1   Cr    Cr6+3 0.608100 0.610860 0.522250 1.024610
Cr2   Cr    Cr6+3 0.288890 0.599990 0.488420 1.072375
Cr3   Cr    Cr6+3 0.603040 0.289190 0.489390 1.099752
Cr4   Cr    Cr6+3 0.053960 0.052250 0.967380 1.019065
Cr5   Cr    Cr6+3 0.059890 0.373160 0.992710 1.012942
Cr6   Cr    Cr6+3 0.373370 0.061690 0.991710 0.983677
H1    H     H_    0.946918 0.447817 0.352358 0.141894
H2    H     H_    0.672613 0.191230 0.669692 0.152274
H3    H     H_    0.717509 0.197622 0.063774 0.149093
H4    H     H_    0.981677 0.435405 0.215635 0.142052
H5    H     H_    0.669679 0.011898 0.093388 0.147518
H6    H     H_    0.696075 0.960162 0.230240 0.156892
H7    H     H_    0.545489 0.730518 0.098345 0.153368
H8    H     H_    0.083443 0.053798 0.204983 0.149698
H9    H     H_    0.783286 0.660456 0.163463 0.138328
H10   H     H_    0.823871 0.692665 0.310689 0.140323
H11   H     H_    0.628793 0.780897 0.391869 0.169262
H12   H     H_    0.173195 0.542788 0.680211 0.148126
H13   H     H_    0.466473 0.982300 0.809210 0.152333
H14   H     H_    0.111861 0.483018 0.794590 0.144123
H15   H     H_    0.707647 0.839498 0.772300 0.122528
H16   H     H_    0.815468 0.948839 0.706879 0.126145
O1    O     O_R   0.749810 0.499790 0.438040 -0.538568
O2    O     O_R   0.411730 0.181020 0.091530 -0.521628
O3    O     O_R   0.365010 0.944360 0.063320 -0.511544
O4    O     O_R   0.477660 0.726260 0.439290 -0.532582
O5    O     O_R   0.159380 0.906670 0.876210 -0.502520
O6    O     O_R   0.930820 0.177420 0.886730 -0.484696
O7    O     O_R   0.910360 0.395420 0.895720 -0.509086
O8    O     O_R   0.186010 0.361730 0.919870 -0.500738
O9    O     O_R   0.400000 0.173010 0.914630 -0.512633
O10   O     O_R   0.354140 0.936940 0.899340 -0.532095
O11   O     O_3   0.162410 0.162370 0.983930 -0.299455
O12   O     O_R   0.298970 0.468800 0.557390 -0.495083
O13   O     O_R   0.260150 0.743000 0.412270 -0.441503
O14   O     O_R   0.297740 0.466550 0.394720 -0.499111
O15   O     O_R   0.488080 0.253500 0.386430 -0.473267
O16   O     O_R   0.722670 0.303800 0.421940 -0.436199
O17   O     O_R   0.751130 0.502220 0.613520 -0.503821
O18   O     O_R   0.478890 0.728510 0.601960 -0.495366
O19   O     O_R   0.261470 0.745430 0.587750 -0.502745
O20   O     O_R   0.489400 0.255930 0.561910 -0.500389
O21   O     O_R   0.723890 0.306050 0.584610 -0.514862
O22   O     O_3   0.500010 0.500010 0.500020 -0.299960
O23   O     O_R   0.171100 0.914680 0.053100 -0.500299
O24   O     O_R   0.941680 0.184840 0.050710 -0.512903
O25   O     O_R   0.922080 0.403420 0.072610 -0.526269
O26   O     O_R   0.196880 0.369150 0.083850 -0.493403

loop_
_geom_bond_atom_site_label_1
_geom_bond_atom_site_label_2
_ccdc_geom_bond_type
C27   C29   T    
C41   C42   T    
C22   H15   S    
C19   C20   A    
C18   C26   A    
C40   O21   A    
C20   H14   S    
C47   H6    S    
C7    C8    A    
C4    O15   A    
C45   C46   A    
C29   C36   S    
C35   O3    A    
C33   C42   S    
Cr2   O13   S    
C39   O12   A    
C12   C43   A    
Cr1   O18   S    
C30   C31   T    
C26   C39   S    
C4    O14   A    
C4    C41   S    
C32   O25   A    
C33   O26   A    
Cr2   O12   S    
C19   C26   A    
C15   C37   S    
C7    C14   A    
C34   H1    S    
Cr2   O22   S    
C40   O17   A    
Cr3   O16   S    
C2    C16   S    
C9    C10   A    
Cr4   O24   S    
C11   H10   S    
Cr4   O5    S    
C2    C34   A    
Cr6   O3    S    
C21   C22   A    
C38   O10   A    
C37   O9    A    
C18   C25   A    
Cr4   O11   S    
C1    O13   A    
C15   C20   A    
C37   O8    A    
Cr6   O2    S    
C46   H5    S    
Cr3   O21   S    
C16   O1    A    
Cr6   O9    S    
C34   C44   A    
C24   C25   A    
C3    C8    A    
C17   C21   A    
C21   H13   S    
C43   C44   A    
C5    C9    A    
C6    C14   A    
Cr5   O7    S    
C47   C48   A    
C12   C23   A    
C3    C35   S    
C27   C40   S    
Cr5   O25   S    
Cr3   O20   S    
C17   C18   A    
C19   H12   S    
Cr3   O15   S    
Cr1   O4    S    
Cr4   O23   S    
C8    H8    S    
C48   Cl1   S    
C32   O24   A    
C22   C24   A    
C25   H2    S    
Cr5   O11   S    
C39   O20   A    
C24   H16   S    
Cr6   O11   S    
C13   H11   S    
C10   H9    S    
C15   C17   A    
C46   C47   A    
C45   H3    S    
C23   C48   A    
Cr3   O22   S    
C9    H7    S    
C1    O4    A    
Cr1   O1    S    
C7    Cl2   S    
C12   C45   A    
C3    C5    A    
C36   O7    A    
Cr6   O10   S    
C38   O5    A    
C35   O23   A    
C31   C38   S    
Cr2   O14   S    
C36   O6    A    
Cr1   O17   S    
C6    C13   A    
Cr5   O8    S    
C11   C13   A    
C5    C6    A    
C44   H4    S    
Cr5   O26   S    
C28   C30   S    
C32   C43   S    
C28   O19   A    
C10   C11   A    
Cr1   O22   S    
C33   O2    A    
C2    C23   A    
C16   O16   A    
Cr2   O19   S    
C28   O18   A    
C1    C14   S    
Cr4   O6    S    
