data_mof_unit_pretest_693.cif
_audit_creation_date              2012-12-10T17:41:46-0500
_audit_creation_method            fapswitch 2.2
_symmetry_space_group_name_H-M    P1
_symmetry_Int_Tables_number       1
_space_group_crystal_system       triclinic
_cell_length_a                    13.745959
_cell_length_b                    13.868205
_cell_length_c                    15.055452
_cell_angle_alpha                 88.924835
_cell_angle_beta                  88.916594
_cell_angle_gamma                 85.079323
_cell_volume                      2858.53519923

loop_
_atom_site_label
_atom_site_type_symbol
_atom_type_description
_atom_site_fract_x
_atom_site_fract_y
_atom_site_fract_z
_atom_type_partial_charge
C1    C     C_R   0.500776 0.498783 0.328705 0.862657
C2    C     C_R   0.659481 0.409182 0.951022 -0.205286
C3    C     C_R   0.788490 0.569019 0.450867 0.611778
C4    C     C_R   0.210817 0.433447 0.552538 0.617860
C5    C     C_R   0.798680 0.429240 0.544792 -0.031220
C6    C     C_R   0.202195 0.567518 0.450620 -0.001707
C7    C     C_R   0.901982 0.422386 0.539101 -0.142756
C8    C     C_R   0.099101 0.571485 0.452056 -0.111962
C9    C     C_R   0.948811 0.497199 0.495537 -0.065513
C10   C     C_R   0.052501 0.496435 0.495099 -0.071379
C11   C     C_R   0.891721 0.574248 0.454626 -0.234098
C12   C     C_R   0.499139 0.500112 0.671355 0.842424
C13   C     C_R   0.109513 0.422147 0.539927 -0.203983
C14   C     C_R   0.959525 0.342301 0.575111 0.379860
C15   C     C_R   0.042036 0.649597 0.412935 0.351158
C16   C     C_R   0.515454 0.316972 0.500770 0.809793
C17   C     C_R   0.484511 0.682999 0.498435 0.836306
C18   C     C_R   0.062486 0.341092 0.573276 0.394471
C19   C     C_R   0.939218 0.654228 0.419497 0.321401
C20   C     C_1   0.476219 0.785855 0.490891 -0.147108
C21   C     C_1   0.523178 0.214048 0.507430 -0.187261
C22   C     C_2   0.468581 0.976884 0.473460 0.376411
C23   C     C_R   0.498502 0.497721 0.953524 0.011736
C24   C     C_2   0.528684 0.023068 0.524398 0.376412
C25   C     C_1   0.526817 0.127529 0.514869 -0.084437
C26   C     C_1   0.471370 0.872364 0.482925 -0.077219
C27   C     C_R   0.578462 0.455589 0.813270 -0.340723
C28   C     C_R   0.421224 0.542595 0.186874 -0.344503
C29   C     C_R   0.497543 0.499068 0.768117 -0.189885
C30   C     C_R   0.501510 0.497707 0.232025 -0.180149
C31   C     C_R   0.416344 0.541576 0.815426 0.563455
C32   C     C_R   0.580530 0.451076 0.184854 0.518977
C33   C     C_R   0.416737 0.541864 0.908267 -0.018776
C34   C     C_R   0.499636 0.497487 0.046713 0.016981
C35   C     C_R   0.580699 0.451932 0.092012 -0.000112
C36   C     C_3   0.639251 0.026055 0.640959 0.052839
C37   C     C_3   0.702295 0.960409 0.702888 -0.773482
C38   C     C_3   0.355143 0.973267 0.359185 0.060517
C39   C     C_3   0.294160 0.038453 0.295285 -0.774711
C40   C     C_3   0.746844 0.612916 0.308523 0.119539
C41   C     C_3   0.676851 0.679175 0.253125 -0.761123
C42   C     C_3   0.302005 0.323363 0.645813 0.181134
C43   C     C_3   0.276362 0.274445 0.733737 -0.744218
C44   C     C_3   0.877748 0.206497 0.552064 0.073407
C45   C     C_R   0.579237 0.453905 0.905710 0.118513
C46   C     C_3   0.897813 0.100684 0.579594 -0.786439
C47   C     C_3   0.097574 0.713378 0.283757 0.079190
C48   C     C_3   0.157269 0.791537 0.244161 -0.806763
C49   C     C_3   0.140105 0.200274 0.523501 0.030528
C50   C     C_3   0.191913 0.103391 0.552195 -0.732327
C51   C     C_3   0.861161 0.797532 0.462301 0.143595
C52   C     C_3   0.787602 0.879423 0.432581 -0.743764
C53   C     C_R   0.419458 0.542401 0.094506 0.124042
C54   C     C_R   0.337304 0.585891 0.956747 -0.147950
C55   C     C_R   0.660045 0.407764 0.043571 -0.161871
C56   C     C_R   0.338848 0.586436 0.049251 -0.214163
Cu1   Cu    Cu3+1 0.597420 0.500010 0.499990 0.990340
Cu2   Cu    Cu3+1 0.402580 0.499990 0.500010 0.983796
F1    F     F_    0.338544 0.585017 0.771249 -0.642869
F2    F     F_    0.655076 0.401901 0.229142 -0.696228
H1    H     H_    0.640510 0.422061 0.776300 0.179439
H2    H     H_    0.687616 0.073182 0.603279 0.149662
H3    H     H_    0.758262 0.915848 0.663851 0.240941
H4    H     H_    0.739671 0.004864 0.750068 0.200557
H5    H     H_    0.656170 0.911810 0.741203 0.259232
H6    H     H_    0.305029 0.929646 0.398873 0.157432
H7    H     H_    0.406955 0.924630 0.319211 0.147834
H8    H     H_    0.342301 0.082401 0.254080 0.256853
H9    H     H_    0.253574 0.993682 0.250882 0.201212
H10   H     H_    0.241012 0.087726 0.332828 0.240057
H11   H     H_    0.734748 0.536512 0.295267 0.194798
H12   H     H_    0.360214 0.578205 0.223789 0.169263
H13   H     H_    0.822264 0.624086 0.285408 0.144687
H14   H     H_    0.694361 0.755430 0.259315 0.249335
H15   H     H_    0.683711 0.658661 0.182189 0.198360
H16   H     H_    0.600404 0.673312 0.276225 0.231913
H17   H     H_    0.380202 0.334854 0.650598 0.143432
H18   H     H_    0.295049 0.274526 0.589491 0.136133
H19   H     H_    0.314045 0.200402 0.737272 0.187550
H20   H     H_    0.300687 0.316863 0.789862 0.232710
H21   H     H_    0.196614 0.269638 0.741434 0.296241
H22   H     H_    0.907211 0.216349 0.483210 0.113873
H23   H     H_    0.273999 0.620250 0.923359 0.199323
H24   H     H_    0.797319 0.222406 0.550157 0.145067
H25   H     H_    0.865683 0.087992 0.646549 0.251063
H26   H     H_    0.865124 0.054193 0.531138 0.193577
H27   H     H_    0.977411 0.080405 0.581460 0.257716
H28   H     H_    0.025025 0.718993 0.251452 0.173052
H29   H     H_    0.136953 0.641662 0.268726 0.112175
H30   H     H_    0.230461 0.787027 0.274814 0.234346
H31   H     H_    0.166645 0.781588 0.171394 0.199858
H32   H     H_    0.119342 0.864166 0.256449 0.257250
H33   H     H_    0.189329 0.237475 0.477122 0.125837
H34   H     H_    0.722911 0.372558 0.077010 0.195459
H35   H     H_    0.074003 0.185350 0.486622 0.140546
H36   H     H_    0.200650 0.054517 0.494599 0.214489
H37   H     H_    0.265286 0.113306 0.578208 0.236865
H38   H     H_    0.148753 0.068652 0.604915 0.249020
H39   H     H_    0.927206 0.829180 0.486753 0.150540
H40   H     H_    0.826902 0.757631 0.518021 0.143368
H41   H     H_    0.720971 0.849506 0.407834 0.270540
H42   H     H_    0.766546 0.926924 0.489414 0.213315
H43   H     H_    0.819948 0.923048 0.378812 0.236106
H44   H     H_    0.276896 0.621092 0.085438 0.139372
H45   H     H_    0.721742 0.375137 0.914854 0.151861
H46   H     H_    0.761172 0.377433 0.583874 0.160712
H47   H     H_    0.239716 0.621301 0.413729 0.171770
H48   H     H_    0.585401 0.071179 0.682084 0.149410
N1    N     N_R   0.743820 0.499960 0.499930 -0.223451
N2    N     N_R   0.256180 0.500040 0.500070 -0.227924
O1    O     O_R   0.582280 0.500030 0.370250 -0.529543
O2    O     O_3   0.406254 0.031254 0.415227 -0.598197
O3    O     O_3   0.731473 0.634692 0.399558 -0.544402
O4    O     O_3   0.246469 0.413617 0.637583 -0.533895
O5    O     O_3   0.917138 0.265340 0.616057 -0.558759
O6    O     O_3   0.086474 0.727092 0.376177 -0.571434
O7    O     O_3   0.115886 0.256787 0.599442 -0.562856
O8    O     O_3   0.886214 0.737317 0.389327 -0.561506
O9    O     O_R   0.417720 0.499970 0.629750 -0.499999
O10   O     O_R   0.417740 0.500020 0.370270 -0.607548
O11   O     O_R   0.582260 0.499980 0.629730 -0.601981
O12   O     O_R   0.593900 0.362160 0.500010 -0.583494
O13   O     O_R   0.406100 0.637840 0.499990 -0.581463
O14   O     O_R   0.429360 0.362150 0.500030 -0.615968
O15   O     O_R   0.570640 0.637850 0.499970 -0.528532
O16   O     O_3   0.590941 0.968442 0.582475 -0.598336

loop_
_geom_bond_atom_site_label_1
_geom_bond_atom_site_label_2
_ccdc_geom_bond_type
C52   H43   S    
C16   C21   S    
C23   C45   A    
C40   H11   S    
C12   C29   S    
C36   H48   S    
C6    N2    A    
C39   H8    S    
C14   C18   A    
C17   O15   A    
C17   C20   S    
C15   C19   A    
C11   C19   A    
Cu2   O13   S    
C20   C26   T    
C13   C18   A    
C4    O4    S    
C36   C37   S    
C44   H22   S    
C2    C55   A    
Cu1   O15   S    
C38   C39   S    
C27   C29   A    
C43   H19   S    
C14   O5    S    
C51   H40   S    
C51   O8    S    
C40   H13   S    
C34   C35   A    
C31   F1    S    
C4    C13   A    
C16   O12   A    
C1    C30   S    
C21   C25   T    
C27   H1    S    
Cu1   O12   S    
C42   O4    S    
C7    C14   A    
C49   O7    S    
C12   O11   A    
C47   C48   S    
C44   O5    S    
C23   C33   A    
C48   H31   S    
C37   H5    S    
C6    H47   S    
C31   C33   A    
C9    C10   A    
C46   H25   S    
C27   C45   A    
C41   H14   S    
C48   H30   S    
C24   O16   S    
C47   H29   S    
C28   H12   S    
C55   H34   S    
C36   H2    S    
C54   H23   S    
C37   H3    S    
C44   C46   S    
C5    H46   S    
C2    C45   A    
C51   H39   S    
C47   O6    S    
C54   C56   A    
C52   H41   S    
C50   H38   S    
C35   C55   A    
C51   C52   S    
C32   C35   A    
C38   H6    S    
C24   C25   S    
C56   H44   S    
C3    O3    S    
C5    C7    A    
C6    C8    A    
C43   H20   S    
Cu1   N1    S    
C1    O10   A    
C41   H15   S    
C12   O9    A    
C40   O3    S    
C23   C34   A    
C52   H42   S    
Cu2   O10   S    
C39   H9    S    
C49   H35   S    
C9    C11   A    
C18   O7    S    
C34   C53   A    
C40   C41   S    
C42   H18   S    
C8    C15   A    
C22   O2    S    
C22   C26   S    
C43   H21   S    
C22   C24   D    
C42   C43   S    
C32   F2    S    
C38   O2    S    
C37   H4    S    
C46   H27   S    
C53   C56   A    
C33   C54   A    
C7    C9    A    
C4    N2    A    
C50   H37   S    
Cu2   N2    S    
C36   O16   S    
C44   H24   S    
C10   C13   A    
C28   C53   A    
C2    H45   S    
Cu2   O14   S    
C49   H33   S    
C47   H28   S    
C28   C30   A    
C16   O14   A    
C29   C31   A    
C1    O1    A    
C41   H16   S    
C30   C32   A    
C50   H36   S    
Cu1   Cu2   S    
Cu1   O1    S    
C5    N1    A    
C3    N1    A    
Cu2   O9    S    
C39   H10   S    
C3    C11   A    
Cu1   O11   S    
C38   H7    S    
C42   H17   S    
C8    C10   A    
C49   C50   S    
C48   H32   S    
C19   O8    S    
C15   O6    S    
C17   O13   A    
C46   H26   S    
