data_mof_unit_pretest_951.cif
_audit_creation_date              2012-12-10T21:11:31-0500
_audit_creation_method            fapswitch 2.2
_symmetry_space_group_name_H-M    P1
_symmetry_Int_Tables_number       1
_space_group_crystal_system       triclinic
_cell_length_a                    17.559218
_cell_length_b                    16.828335
_cell_length_c                    10.683143
_cell_angle_alpha                 88.851558
_cell_angle_beta                  95.54616
_cell_angle_gamma                 88.779384
_cell_volume                      3140.52170796

loop_
_atom_site_label
_atom_site_type_symbol
_atom_type_description
_atom_site_fract_x
_atom_site_fract_y
_atom_site_fract_z
_atom_type_partial_charge
C1    C     C_R   0.353545 0.500840 0.509344 0.911468
C2    C     C_R   0.646386 0.499520 0.490052 0.922742
C3    C     C_R   0.883213 0.505509 0.431957 0.030644
C4    C     C_R   0.112089 0.508364 0.473550 0.032268
C5    C     C_1   0.963632 0.509457 0.437236 -0.008626
C6    C     C_1   0.031592 0.510207 0.450213 -0.006651
C7    C     C_R   0.452428 0.836168 0.413315 -0.251948
C8    C     C_R   0.553488 0.163989 0.577775 -0.227629
C9    C     C_R   0.551924 0.831735 0.581000 -0.258519
C10   C     C_R   0.448119 0.168191 0.419916 -0.247434
C11   C     C_R   0.450838 0.751882 0.414701 0.295793
C12   C     C_R   0.551489 0.248395 0.582292 0.261591
C13   C     C_R   0.550714 0.747459 0.583384 0.300742
C14   C     C_R   0.447954 0.252440 0.419041 0.273056
C15   C     C_R   0.502826 0.876517 0.496141 0.068576
C16   C     C_R   0.502008 0.123624 0.496664 0.050278
C17   C     C_1   0.502772 0.963742 0.496049 -0.020311
C18   C     C_1   0.502458 0.036383 0.496146 -0.023961
C19   C     C_R   0.509354 0.500595 0.260431 0.885784
C20   C     C_R   0.487961 0.499321 0.737769 0.894676
C21   C     C_R   0.529006 0.648424 0.099488 -0.250264
C22   C     C_R   0.459991 0.351892 0.892442 -0.185228
C23   C     C_R   0.435936 0.639471 0.875499 -0.215964
C24   C     C_R   0.551469 0.357565 0.118746 -0.138227
C25   C     C_R   0.504670 0.719245 0.032852 0.131811
C26   C     C_R   0.486297 0.279766 0.953314 0.136702
C27   C     C_R   0.447954 0.713853 0.929652 0.179030
C28   C     C_R   0.538775 0.283159 0.062787 0.148264
C29   C     C_R   0.471107 0.570173 0.932354 0.042895
C30   C     C_R   0.517871 0.428216 0.063006 0.026129
C31   C     C_R   0.505631 0.573528 0.055050 0.058267
C32   C     C_R   0.483146 0.425749 0.940436 0.029692
C33   C     C_R   0.471798 0.497553 0.870075 -0.187320
C34   C     C_R   0.519342 0.501623 0.125504 -0.188307
C35   C     C_R   0.838329 0.574095 0.411388 -0.179363
C36   C     C_R   0.150056 0.435590 0.498686 -0.172430
C37   C     C_R   0.150818 0.579149 0.489180 -0.183524
C38   C     C_R   0.850825 0.433064 0.455804 -0.169551
C39   C     C_R   0.760208 0.571771 0.422288 0.240722
C40   C     C_R   0.228940 0.432862 0.526771 0.231506
C41   C     C_R   0.229732 0.577340 0.517270 0.247053
C42   C     C_R   0.773056 0.428938 0.467908 0.235811
C43   C     C_R   0.727071 0.499767 0.461150 -0.195360
C44   C     C_R   0.270546 0.503612 0.520286 -0.182083
H1    H     H_    0.568694 0.651656 0.182987 0.213605
H2    H     H_    0.422567 0.351334 0.806139 0.208200
H3    H     H_    0.397489 0.635206 0.790407 0.204143
H4    H     H_    0.589027 0.361658 0.204443 0.187521
H5    H     H_    0.864157 0.629601 0.387257 0.178585
H6    H     H_    0.118042 0.381269 0.500883 0.179005
H7    H     H_    0.119452 0.635505 0.483805 0.178357
H8    H     H_    0.886505 0.379482 0.466571 0.180650
H9    H     H_    0.413921 0.871157 0.347751 0.160869
H10   H     H_    0.593008 0.128293 0.640415 0.165658
H11   H     H_    0.589497 0.863028 0.648529 0.159155
H12   H     H_    0.405793 0.136745 0.360712 0.167739
N1    N     N_R   0.500000 0.707230 0.500000 -0.126520
N2    N     N_R   0.500000 0.292770 0.500000 -0.143562
O1    O     O_R   0.389110 0.566570 0.499990 -0.602664
O2    O     O_R   0.610890 0.433430 0.500010 -0.606407
O3    O     O_R   0.610890 0.566570 0.500010 -0.591037
O4    O     O_R   0.389110 0.433430 0.499990 -0.611124
O5    O     O_R   0.499990 0.566540 0.316770 -0.633589
O6    O     O_R   0.500010 0.433460 0.683230 -0.642292
O7    O     O_R   0.500010 0.566540 0.683230 -0.639884
O8    O     O_R   0.499990 0.433460 0.316770 -0.637057
Zn1   Zn    Zn3+2 0.500000 0.588860 0.500000 0.954302
Zn2   Zn    Zn3+2 0.500000 0.411140 0.500000 0.934962
C45   C     C_3   0.577763 0.206804 0.119412 -0.480249
C46   C     C_3   0.634381 0.216392 0.235724 -0.758082
H13   H     H_    0.681455 0.255816 0.213681 0.275094
H14   H     H_    0.604644 0.240577 0.314279 0.278270
H15   H     H_    0.659785 0.157386 0.266559 0.256289
H16   H     H_    0.533800 0.164845 0.145814 0.207726
H17   H     H_    0.609449 0.178296 0.046513 0.214068
C47   C     C_3   0.394006 0.781895 0.883701 -0.385858
C48   C     C_3   0.423617 0.830842 0.778698 -0.829115
H18   H     H_    0.385834 0.884054 0.756978 0.256244
H19   H     H_    0.482536 0.850747 0.806193 0.249421
H20   H     H_    0.422284 0.794549 0.693179 0.281033
H21   H     H_    0.337707 0.758005 0.847534 0.232412
H22   H     H_    0.380572 0.820134 0.961843 0.211178
C49   C     C_3   0.462509 0.199193 0.900971 -0.475042
C50   C     C_3   0.398737 0.200951 0.792924 -0.772374
H23   H     H_    0.346635 0.230992 0.822292 0.288333
H24   H     H_    0.417452 0.231396 0.708559 0.271661
H25   H     H_    0.384228 0.139114 0.767073 0.249942
H26   H     H_    0.513172 0.168028 0.868847 0.211211
H27   H     H_    0.441728 0.162486 0.977621 0.211464
C51   C     C_3   0.547463 0.795142 0.064288 -0.359964
C52   C     C_3   0.498958 0.863946 0.107383 -0.885317
H28   H     H_    0.478480 0.903742 0.026475 0.258106
H29   H     H_    0.449295 0.842016 0.152477 0.254405
H30   H     H_    0.533997 0.900122 0.176070 0.261634
H31   H     H_    0.594493 0.782395 0.139908 0.233022
H32   H     H_    0.575821 0.814854 0.980834 0.198929
Br1   Br    Br    0.703928 0.668005 0.369030 -0.584700
Br2   Br    Br    0.272502 0.334801 0.598498 -0.604401
Br3   Br    Br    0.274443 0.675026 0.573972 -0.593034
Br4   Br    Br    0.736812 0.323112 0.484496 -0.596854
C53   C     C_3   0.397669 0.713512 0.314067 -0.351883
C54   C     C_3   0.318784 0.754755 0.287762 -0.873595
H33   H     H_    0.276525 0.711862 0.247028 0.268109
H34   H     H_    0.298433 0.779030 0.374544 0.307299
H35   H     H_    0.321208 0.804462 0.218414 0.233019
H36   H     H_    0.424822 0.714453 0.225750 0.201638
H37   H     H_    0.388718 0.651009 0.335238 0.270827
C55   C     C_3   0.599968 0.288139 0.688177 -0.318599
C56   C     C_3   0.664604 0.237613 0.759111 -0.896457
H38   H     H_    0.641222 0.190234 0.817004 0.233623
H39   H     H_    0.702096 0.210727 0.692699 0.302824
H40   H     H_    0.700036 0.275862 0.824031 0.269703
H41   H     H_    0.626587 0.341371 0.654781 0.276927
H42   H     H_    0.562198 0.307681 0.757459 0.217532
C57   C     C_3   0.601900 0.705258 0.687951 -0.360740
C58   C     C_3   0.684367 0.734265 0.701408 -0.865635
H43   H     H_    0.721856 0.690144 0.757971 0.257919
H44   H     H_    0.706315 0.742065 0.608293 0.309182
H45   H     H_    0.688112 0.791422 0.751426 0.242596
H46   H     H_    0.577035 0.714382 0.778365 0.193507
H47   H     H_    0.605863 0.641337 0.674911 0.272918
C59   C     C_3   0.383977 0.295063 0.335749 -0.329272
C60   C     C_3   0.366842 0.259424 0.205616 -0.932378
H48   H     H_    0.419659 0.236220 0.170630 0.271156
H49   H     H_    0.326285 0.209902 0.209715 0.259652
H50   H     H_    0.340243 0.305306 0.137910 0.273689
H51   H     H_    0.330753 0.292181 0.382564 0.244458
H52   H     H_    0.395429 0.357781 0.320568 0.265112

loop_
_geom_bond_atom_site_label_1
_geom_bond_atom_site_label_2
_ccdc_geom_bond_type
C53   H37   S    
O8    Zn2   S    
C4    C36   A    
C26   C49   S    
C57   H47   S    
C28   C45   S    
C50   H25   S    
C1    O4    A    
C60   H48   S    
C48   H18   S    
C58   H43   S    
C7    C11   A    
C21   C31   A    
C25   C51   S    
C53   C54   S    
C22   C32   A    
C54   H35   S    
C14   C59   S    
O6    Zn2   S    
C50   H24   S    
C38   C42   A    
C1    O1    A    
C40   Br2   S    
C5    C6    T    
C37   H7    S    
C2    O2    A    
C39   Br1   S    
C38   H8    S    
C57   C58   S    
C29   C33   A    
C55   C56   S    
C19   O8    A    
C55   H42   S    
C59   H51   S    
C9    C13   A    
O1    Zn1   S    
C3    C38   A    
C19   O5    A    
O7    Zn1   S    
C35   H5    S    
C41   Br3   S    
C46   H13   S    
C9    H11   S    
C23   C27   A    
C10   H12   S    
C2    O3    A    
C12   N2    A    
C7    C15   A    
C49   H26   S    
C8    C16   A    
C59   H52   S    
C45   C46   S    
N1    Zn1   S    
C14   N2    A    
C21   H1    S    
C48   H19   S    
C49   H27   S    
O5    Zn1   S    
C23   H3    S    
C30   C34   A    
C24   H4    S    
C20   O7    A    
C36   C40   A    
C47   C48   S    
C4    C6    S    
C10   C14   A    
C56   H40   S    
C47   H22   S    
C52   H28   S    
C12   C55   S    
C60   H50   S    
C39   C43   A    
C55   H41   S    
C20   O6    A    
C35   C39   A    
C42   Br4   S    
C52   H29   S    
O3    Zn1   S    
C1    C44   S    
C49   C50   S    
C3    C35   A    
C2    C43   S    
C8    C12   A    
C46   H15   S    
C17   C18   T    
C31   C34   A    
C45   H16   S    
C11   C53   S    
C50   H23   S    
C54   H34   S    
C13   C57   S    
C20   C33   S    
N2    Zn2   S    
C22   H2    S    
C41   C44   A    
C42   C43   A    
C7    H9    S    
C8    H10   S    
C27   C47   S    
C23   C29   A    
C36   H6    S    
C48   H20   S    
C53   H36   S    
C15   C17   S    
C21   C25   A    
C24   C28   A    
C3    C5    S    
C19   C34   S    
C51   H31   S    
C47   H21   S    
C51   H32   S    
C25   C27   A    
C26   C28   A    
C58   H45   S    
O4    Zn2   S    
C32   C33   A    
C56   H39   S    
C9    C15   A    
C29   C31   A    
C10   C16   A    
C56   H38   S    
C52   H30   S    
C30   C32   A    
C51   C52   S    
C58   H44   S    
C45   H17   S    
C37   C41   A    
C54   H33   S    
C24   C30   A    
C60   H49   S    
C40   C44   A    
C13   N1    A    
C4    C37   A    
O2    Zn2   S    
C16   C18   S    
C57   H46   S    
C22   C26   A    
C46   H14   S    
C59   C60   S    
C11   N1    A    
