data_mof_unit_pretest_1872.cif
_audit_creation_date              2012-12-10T22:10:08-0500
_audit_creation_method            fapswitch 2.2
_symmetry_space_group_name_H-M    P1
_symmetry_Int_Tables_number       1
_space_group_crystal_system       triclinic
_cell_length_a                    16.439236
_cell_length_b                    16.613492
_cell_length_c                    28.359982
_cell_angle_alpha                 90.604224
_cell_angle_beta                  90.092142
_cell_angle_gamma                 90.287691
_cell_volume                      7744.94403596

loop_
_atom_site_label
_atom_site_type_symbol
_atom_type_description
_atom_site_fract_x
_atom_site_fract_y
_atom_site_fract_z
_atom_type_partial_charge
C1    C     C_R   0.615487 0.998943 0.562408 0.899367
C2    C     C_R   0.384513 0.001057 0.437592 0.899395
C3    C     C_R   0.933373 0.690065 0.129649 0.149426
C4    C     C_R   0.066644 0.309920 0.870359 0.149439
C5    C     C_R   0.050049 0.812830 0.120312 -0.142144
C6    C     C_R   0.949929 0.187185 0.879678 -0.142147
C7    C     C_R   0.049010 0.748669 0.088477 -0.215389
C8    C     C_R   0.950970 0.251344 0.911514 -0.215385
C9    C     C_R   0.924905 0.236426 0.150327 -0.134876
C10   C     C_R   0.075095 0.763573 0.849673 -0.134870
C11   C     C_R   0.925150 0.297865 0.117351 -0.171362
C12   C     C_R   0.074850 0.702135 0.882649 -0.171370
C13   C     C_R   0.222745 0.928863 0.352766 0.164885
C14   C     C_R   0.777259 0.071136 0.647231 0.164884
C15   C     C_R   0.284710 0.928837 0.386286 -0.203365
C16   C     C_R   0.715293 0.071163 0.613711 -0.203373
C17   C     C_R   0.734878 0.052163 0.328177 0.168160
C18   C     C_R   0.265092 0.947780 0.671806 0.168135
C19   C     C_R   0.670613 0.051602 0.360995 0.118406
C20   C     C_R   0.329359 0.948342 0.638989 0.118433
C21   C     C_3   0.998160 0.006020 0.248119 -0.019900
C22   C     C_3   0.001838 0.993980 0.751881 -0.019898
C23   C     C_R   0.612888 0.000889 0.436946 0.898999
C24   C     C_R   0.387114 0.999110 0.563056 0.898992
C25   C     C_R   0.196168 0.002137 0.334185 0.016467
C26   C     C_R   0.803832 0.997863 0.665814 0.016467
C27   C     C_R   0.320298 0.001484 0.401636 -0.121105
C28   C     C_R   0.679703 0.998515 0.598364 -0.121112
C29   C     C_R   0.801971 0.001549 0.335297 0.042602
C30   C     C_R   0.198032 0.998452 0.664707 0.042606
C31   C     C_R   0.675739 0.001051 0.400703 -0.122557
C32   C     C_R   0.324265 0.998949 0.599300 -0.122602
C33   C     C_R   0.998513 0.206114 0.166916 0.137716
C34   C     C_R   0.001486 0.793885 0.833083 0.137719
C35   C     C_R   0.999216 0.329114 0.100688 -0.049575
C36   C     C_R   0.000784 0.670885 0.899311 -0.049577
C37   C     C_R   0.993200 0.815674 0.156715 0.105397
C38   C     C_R   0.006796 0.184325 0.843284 0.105406
C39   C     C_R   0.990782 0.687064 0.092656 -0.090631
C40   C     C_R   0.009217 0.312935 0.907343 -0.090647
C41   C     C_1   0.070558 0.003942 0.277184 0.039485
C42   C     C_1   0.929442 0.996056 0.722815 0.039497
C43   C     C_1   0.998052 0.079158 0.220804 0.029917
C44   C     C_1   0.001947 0.920841 0.779195 0.029918
C45   C     C_R   0.232415 0.075001 0.348674 0.166605
C46   C     C_R   0.767583 0.924999 0.651327 0.166602
C47   C     C_1   0.927239 0.004027 0.278280 0.032573
C48   C     C_1   0.072760 0.995973 0.721722 0.032571
C49   C     C_1   0.996578 0.937206 0.216319 0.009194
C50   C     C_1   0.003419 0.062792 0.783681 0.009173
C51   C     C_1   0.128846 0.002915 0.302487 0.045200
C52   C     C_1   0.871154 0.997084 0.697512 0.045199
C53   C     C_1   0.994929 0.881286 0.189375 -0.018981
C54   C     C_1   0.005067 0.118713 0.810624 -0.018985
C55   C     C_1   0.998215 0.138184 0.197007 -0.024619
C56   C     C_1   0.001784 0.861815 0.802993 -0.024613
C57   C     C_1   0.869553 0.002632 0.303931 0.018715
C58   C     C_1   0.130448 0.997369 0.696071 0.018710
C59   C     C_R   0.993614 0.619750 0.059113 0.887378
C60   C     C_R   0.006385 0.380250 0.940886 0.887375
C61   C     C_R   0.999461 0.391100 0.064259 0.869128
C62   C     C_R   0.000539 0.608900 0.935741 0.869120
C63   C     C_R   0.294250 0.074366 0.382307 -0.191579
C64   C     C_R   0.705747 0.925634 0.617694 -0.191595
C65   C     C_R   0.805084 0.950215 0.373826 -0.170707
C66   C     C_R   0.194957 0.049845 0.626202 -0.170720
C67   C     C_R   0.742207 0.949788 0.406309 -0.210873
C68   C     C_R   0.257833 0.050271 0.593719 -0.210860
C69   C     C_R   0.072459 0.238021 0.151497 -0.136814
C70   C     C_R   0.927541 0.761977 0.848502 -0.136817
C71   C     C_R   0.072910 0.299503 0.118519 -0.178775
C72   C     C_R   0.927090 0.700496 0.881480 -0.178777
C73   C     C_R   0.935002 0.754795 0.161412 -0.159373
C74   C     C_R   0.065014 0.245190 0.838597 -0.159392
H1    H     H_    0.856872 0.911168 0.379104 0.167888
H2    H     H_    0.143199 0.088941 0.620945 0.167888
H3    H     H_    0.891574 0.757106 0.190098 0.166042
H4    H     H_    0.108456 0.242868 0.809917 0.166037
H5    H     H_    0.095249 0.860051 0.116630 0.149361
H6    H     H_    0.904714 0.139975 0.883352 0.149362
H7    H     H_    0.867498 0.211413 0.162100 0.163828
H8    H     H_    0.132501 0.788586 0.837899 0.163828
H9    H     H_    0.746222 0.910557 0.436507 0.170708
H10   H     H_    0.253845 0.089549 0.563540 0.170741
H11   H     H_    0.130801 0.322717 0.106402 0.169025
H12   H     H_    0.869199 0.677282 0.893598 0.169025
H13   H     H_    0.093582 0.747261 0.060375 0.164778
H14   H     H_    0.906384 0.252763 0.939609 0.164791
H15   H     H_    0.867486 0.319871 0.104381 0.173711
H16   H     H_    0.132514 0.680129 0.895618 0.173711
H17   H     H_    0.304246 0.871957 0.400639 0.192257
H18   H     H_    0.695761 0.128042 0.599357 0.192257
O1    O     O_R   0.588360 0.066690 0.547410 -0.616821
O2    O     O_R   0.411640 0.933310 0.452590 -0.616816
O3    O     O_R   0.586040 0.933310 0.452590 -0.614554
O4    O     O_R   0.413960 0.066690 0.547410 -0.614575
O5    O     O_R   0.587420 0.068270 0.453900 -0.587558
O6    O     O_R   0.412580 0.931730 0.546100 -0.587549
O7    O     O_R   0.586980 0.931730 0.546100 -0.610517
O8    O     O_R   0.413020 0.068270 0.453900 -0.610515
O9    O     O_R   0.063560 0.593880 0.045280 -0.616207
O10   O     O_R   0.936440 0.406120 0.954720 -0.616215
O11   O     O_R   0.931210 0.414910 0.046840 -0.611172
O12   O     O_R   0.068790 0.585090 0.953160 -0.611175
O13   O     O_R   0.067840 0.419730 0.049340 -0.617068
O14   O     O_R   0.932160 0.580270 0.950660 -0.617070
O15   O     O_R   0.926930 0.589050 0.042780 -0.585375
O16   O     O_R   0.073070 0.410950 0.957220 -0.585371
Zn1   Zn    Zn3+2 0.500930 0.090750 0.500880 1.024490
Zn2   Zn    Zn3+2 0.499070 0.909250 0.499120 1.024516
Zn3   Zn    Zn3+2 0.091890 0.503230 0.001680 1.010798
Zn4   Zn    Zn3+2 0.908110 0.496770 0.998320 1.010787
H19   H     H_    0.321497 0.130947 0.393420 0.195988
H20   H     H_    0.678497 0.869053 0.606583 0.195992
H21   H     H_    0.129624 0.214209 0.164177 0.155144
H22   H     H_    0.870376 0.785789 0.835822 0.155143
I1    I     I_    0.170400 0.816664 0.332324 -0.322379
I2    I     I_    0.829610 0.183335 0.667670 -0.322394
I3    I     I_    0.732685 0.128703 0.267969 -0.291248
I4    I     I_    0.267237 0.871157 0.731984 -0.291233
I5    I     I_    0.847405 0.597039 0.142847 -0.305660
I6    I     I_    0.152645 0.402923 0.857173 -0.305656
I7    I     I_    0.563869 0.121837 0.348809 -0.248383
I8    I     I_    0.436069 0.878038 0.651158 -0.248345
I9    I     I_    0.195251 0.187766 0.321657 -0.314072
I10   I     I_    0.804741 0.812234 0.678347 -0.314070

loop_
_geom_bond_atom_site_label_1
_geom_bond_atom_site_label_2
_ccdc_geom_bond_type
C33   C55   S    
C66   C68   A    
C34   C56   S    
O6    Zn2   S    
C5    C37   A    
C17   C29   A    
O15   Zn4   S    
C22   C48   S    
C19   C31   A    
C1    O7    A    
C21   C49   S    
O14   Zn4   S    
C31   C67   A    
C19   I7    S    
C50   C54   T    
C23   O3    A    
C24   O6    A    
C12   H16   S    
C61   O11   A    
O1    Zn1   S    
C24   O4    A    
C20   C32   A    
C36   C62   S    
C69   C71   A    
C44   C56   T    
C21   C43   S    
C18   I4    S    
O10   Zn4   S    
C7    H13   S    
C4    C40   A    
C45   I9    S    
C14   I2    S    
C1    C28   S    
C6    C38   A    
C2    C27   S    
C18   C30   A    
C12   C36   A    
C61   O13   A    
C34   C70   A    
C4    C74   A    
C16   C28   A    
C60   O16   A    
C33   C69   A    
C22   C50   S    
C37   C53   S    
O13   Zn3   S    
C2    O8    A    
O8    Zn1   S    
C71   H11   S    
C9    C33   A    
C13   C25   A    
C60   O10   A    
C62   O12   A    
C22   C44   S    
C64   H20   S    
C59   O9    A    
C2    O2    A    
C35   C61   S    
C21   C41   S    
C5    C7    A    
C26   C46   A    
C6    C8    A    
C65   C67   A    
O7    Zn2   S    
C15   H17   S    
O2    Zn2   S    
C59   O15   A    
C46   C64   A    
O11   Zn4   S    
C8    H14   S    
C68   H10   S    
C24   C32   S    
C26   C52   S    
C47   C57   T    
O5    Zn1   S    
C11   H15   S    
C15   C27   A    
C38   C54   S    
C39   C59   S    
C4    I6    S    
C10   C34   A    
C67   H9    S    
C14   C26   A    
C9    C11   A    
C30   C66   A    
C10   C12   A    
C29   C65   A    
C28   C64   A    
C43   C55   T    
C23   O5    A    
C29   C57   S    
C16   H18   S    
C13   C15   A    
C6    H6    S    
C14   C16   A    
C5    H5    S    
C25   C45   A    
C38   C74   A    
C37   C73   A    
C69   H21   S    
C7    C39   A    
C46   I10   S    
O3    Zn2   S    
O12   Zn3   S    
C13   I1    S    
C48   C58   T    
C62   O14   A    
C72   H12   S    
O9    Zn3   S    
O4    Zn1   S    
C25   C51   S    
C65   H1    S    
O16   Zn3   S    
C32   C68   A    
C70   H22   S    
C11   C35   A    
C35   C71   A    
C22   C42   S    
C45   C63   A    
C49   C53   T    
C30   C58   S    
C17   C19   A    
C10   H8    S    
C18   C20   A    
C3    C73   A    
C20   I8    S    
C17   I3    S    
C3    C39   A    
C23   C31   S    
C63   H19   S    
C3    I5    S    
C1    O1    A    
C74   H4    S    
C42   C52   T    
C40   C60   S    
C73   H3    S    
C27   C63   A    
C70   C72   A    
C8    C40   A    
C41   C51   T    
C66   H2    S    
C36   C72   A    
C9    H7    S    
C21   C47   S    
