data_mof_unit_pretest_178.cif
_audit_creation_date              2012-12-10T18:19:55-0500
_audit_creation_method            fapswitch 2.2
_symmetry_space_group_name_H-M    P1
_symmetry_Int_Tables_number       1
_space_group_crystal_system       triclinic
_cell_length_a                    10.635691
_cell_length_b                    10.617665
_cell_length_c                    9.424181
_cell_angle_alpha                 89.681929
_cell_angle_beta                  89.633713
_cell_angle_gamma                 90.254788
_cell_volume                      1064.18814971

loop_
_atom_site_label
_atom_site_type_symbol
_atom_type_description
_atom_site_fract_x
_atom_site_fract_y
_atom_site_fract_z
_atom_type_partial_charge
C1    C     C_R   0.499846 0.259421 0.500395 0.827997
C2    C     C_R   0.500154 0.740579 0.499605 0.827997
C3    C     C_3   0.395346 0.956887 0.564825 -0.124794
C4    C     C_3   0.604653 0.043113 0.435175 -0.124794
C5    C     C_3   0.473885 0.610619 0.049886 -0.033114
C6    C     C_3   0.526115 0.389380 0.950114 -0.033114
C7    C     C_3   0.391256 0.532221 0.950039 -0.019854
C8    C     C_3   0.608744 0.467779 0.049961 -0.019854
C9    C     C_3   0.582718 0.578357 0.948350 -0.029324
C10   C     C_3   0.417282 0.421643 0.051650 -0.029324
C11   C     C_R   0.259676 0.499461 0.500483 0.919124
C12   C     C_R   0.740324 0.500539 0.499517 0.919125
C13   C     C_3   0.039882 0.493067 0.636127 -0.308950
C14   C     C_3   0.960118 0.506933 0.363872 -0.308950
C15   C     C_3   0.956911 0.394447 0.560579 0.360298
C16   C     C_3   0.043089 0.605553 0.439421 0.360298
C17   C     C_3   0.876855 0.500617 0.498463 -0.255845
C18   C     C_3   0.123145 0.499383 0.501537 -0.255845
C19   C     C_3   0.958706 0.599335 0.572226 0.357434
C20   C     C_3   0.041293 0.400665 0.427773 0.357434
C21   C     C_3   0.497059 0.039735 0.635114 -0.151002
C22   C     C_3   0.502941 0.960265 0.364886 -0.151002
C23   C     C_3   0.601912 0.958129 0.568951 -0.112352
C24   C     C_3   0.398087 0.041871 0.431049 -0.112352
C25   C     C_3   0.500198 0.877558 0.498790 -0.021215
C26   C     C_3   0.499802 0.122442 0.501210 -0.021215
Cu1   Cu    Cu3+1 0.500030 0.499990 0.643150 0.986746
Cu2   Cu    Cu3+1 0.499970 0.500010 0.356850 0.986746
N1    N     N_3   0.500090 0.499970 0.858290 -0.172570
N2    N     N_3   0.499910 0.500030 0.141710 -0.172571
O1    O     O_R   0.500060 0.316850 0.620870 -0.584353
O2    O     O_R   0.499940 0.683150 0.379130 -0.584353
O3    O     O_R   0.500000 0.316860 0.379090 -0.586397
O4    O     O_R   0.500000 0.683140 0.620910 -0.586396
O5    O     O_R   0.316880 0.499960 0.620870 -0.596959
O6    O     O_R   0.683120 0.500040 0.379130 -0.596959
O7    O     O_R   0.316830 0.499970 0.379090 -0.545868
O8    O     O_R   0.683170 0.500030 0.620910 -0.545868
Cl1   Cl    Cl    0.896367 0.253745 0.639815 -0.543742
Cl2   Cl    Cl    0.103632 0.746255 0.360185 -0.543742
H1    H     H_    0.073851 0.487373 0.747126 0.205740
H2    H     H_    0.926149 0.512627 0.252874 0.205740
Cl3   Cl    Cl    0.901423 0.731750 0.667784 -0.572584
Cl4   Cl    Cl    0.098577 0.268250 0.332216 -0.572584
H3    H     H_    0.685246 0.920982 0.625439 0.210172
H4    H     H_    0.314754 0.079018 0.374561 0.210172
H5    H     H_    0.494668 0.074844 0.745847 0.156553
H6    H     H_    0.505332 0.925156 0.254153 0.156553
H7    H     H_    0.309696 0.918369 0.617575 0.187082
H8    H     H_    0.690304 0.081631 0.382425 0.187082
H9    H     H_    0.299615 0.559659 0.903675 0.143838
H10   H     H_    0.700385 0.440341 0.096325 0.143838
H11   H     H_    0.451540 0.703874 0.096101 0.139936
H12   H     H_    0.548460 0.296126 0.903899 0.139936
H13   H     H_    0.652336 0.644253 0.899996 0.164004
H14   H     H_    0.347664 0.355747 0.100004 0.164003

loop_
_geom_bond_atom_site_label_1
_geom_bond_atom_site_label_2
_ccdc_geom_bond_type
C12   C17   S    
C6    C10   S    
C7    C10   S    
C22   H6    S    
C21   C26   S    
C11   C18   S    
C5    C9    S    
C11   O7    A    
C7    N1    S    
C14   C16   S    
Cu1   N1    S    
C4    C22   S    
C10   N2    S    
C4    C26   S    
C13   C15   S    
C9    N1    S    
C14   H2    S    
C8    N2    S    
Cu1   O5    S    
C2    O4    A    
Cu2   N2    S    
C3    H7    S    
C24   H4    S    
C16   C18   S    
C2    O2    A    
C14   C17   S    
C15   Cl1   S    
C3    C24   S    
C15   C20   S    
C11   O5    A    
C13   C18   S    
C16   Cl2   S    
C16   C19   S    
C9    H13   S    
Cu2   O7    S    
Cu2   O2    S    
C13   H1    S    
C17   C19   S    
C24   C26   S    
Cu2   O3    S    
C6    H12   S    
C2    C25   S    
C18   C20   S    
C23   C25   S    
Cu1   O4    S    
C12   O8    A    
C1    C26   S    
C22   C24   S    
C3    C21   S    
C12   O6    A    
C13   C19   S    
Cu1   O8    S    
C1    O3    A    
C14   C20   S    
C1    O1    A    
C3    C25   S    
C10   H14   S    
C6    N1    S    
Cu2   O6    S    
C15   C17   S    
C5    N2    S    
C7    H9    S    
C5    H11   S    
Cu1   Cu2   S    
C5    C7    S    
C4    C23   S    
C8    H10   S    
C6    C8    S    
C20   Cl4   S    
Cu1   O1    S    
C21   C23   S    
C23   H3    S    
C4    H8    S    
C8    C9    S    
C21   H5    S    
C22   C25   S    
C19   Cl3   S    
