data_mof_unit_pretest_297.cif
_audit_creation_date              2012-12-11T15:50:41-0500
_audit_creation_method            fapswitch 2.2
_symmetry_space_group_name_H-M    P1
_symmetry_Int_Tables_number       1
_space_group_crystal_system       monoclinic
_cell_length_a                    6.928168
_cell_length_b                    14.555182
_cell_length_c                    16.089588
_cell_angle_alpha                 90.0
_cell_angle_beta                  90.0
_cell_angle_gamma                 89.99984
_cell_volume                      1622.48605943

loop_
_atom_site_label
_atom_site_type_symbol
_atom_type_description
_atom_site_fract_x
_atom_site_fract_y
_atom_site_fract_z
_atom_type_partial_charge
O1    O     O_R   0.638140 0.833910 0.163320 -0.540441
O2    O     O_R   0.361860 0.166090 0.836680 -0.540441
O3    O     O_R   0.361860 0.166090 0.663320 -0.540441
O4    O     O_R   0.638140 0.833910 0.336680 -0.540441
O5    O     O_R   0.138140 0.666090 0.336680 -0.540440
O6    O     O_R   0.861860 0.333910 0.663320 -0.540440
O7    O     O_R   0.861860 0.333910 0.836680 -0.540440
O8    O     O_R   0.138140 0.666090 0.163320 -0.540440
O9    O     O_R   0.308390 0.844930 0.336080 -0.543468
O10   O     O_R   0.691610 0.155070 0.663920 -0.543468
O11   O     O_R   0.691610 0.155070 0.836080 -0.543468
O12   O     O_R   0.308390 0.844930 0.163920 -0.543468
O13   O     O_R   0.808390 0.655070 0.163920 -0.543468
O14   O     O_R   0.191610 0.344930 0.836080 -0.543468
O15   O     O_R   0.191610 0.344930 0.663920 -0.543468
O16   O     O_R   0.808390 0.655070 0.336080 -0.543468
C1    C     C_R   0.477480 0.867190 0.365043 0.687065
C2    C     C_R   0.522520 0.132809 0.634957 0.687065
C3    C     C_R   0.522520 0.132809 0.865043 0.687065
C4    C     C_R   0.477480 0.867190 0.134957 0.687065
C5    C     C_R   0.977480 0.632810 0.134957 0.687066
C6    C     C_R   0.022520 0.367190 0.865043 0.687065
C7    C     C_R   0.022520 0.367190 0.634957 0.687066
C8    C     C_R   0.977480 0.632810 0.365043 0.687065
O17   O     O_3   0.471620 0.691320 0.250000 -0.369487
O18   O     O_3   0.528380 0.308680 0.750000 -0.369487
O19   O     O_3   0.971620 0.808680 0.250000 -0.369489
O20   O     O_3   0.028380 0.191320 0.750000 -0.369489
V1    V     V_3+5 0.196770 0.760880 0.250000 1.399895
V2    V     V_3+5 0.803230 0.239120 0.750000 1.399895
V3    V     V_3+5 0.696770 0.739120 0.250000 1.399895
V4    V     V_3+5 0.303230 0.260880 0.750000 1.399895
C9    C     C_R   0.820535 0.524849 0.467196 -0.156095
C10   C     C_R   0.179465 0.475151 0.532803 -0.156095
C11   C     C_R   0.179465 0.475151 0.967197 -0.156095
C12   C     C_R   0.820535 0.524849 0.032803 -0.156095
C13   C     C_R   0.320524 0.975089 0.032752 -0.156086
C14   C     C_R   0.679476 0.024911 0.967248 -0.156086
C15   C     C_R   0.679476 0.024911 0.532752 -0.156086
C16   C     C_R   0.320524 0.975089 0.467248 -0.156086
H1    H     H_    0.679768 0.542927 0.443000 0.116774
H2    H     H_    0.320232 0.457073 0.557000 0.116774
H3    H     H_    0.320232 0.457072 0.943000 0.116774
H4    H     H_    0.679768 0.542928 0.057000 0.116774
H5    H     H_    0.179749 0.956957 0.056906 0.116760
H6    H     H_    0.820251 0.043043 0.943094 0.116760
H7    H     H_    0.820251 0.043043 0.556906 0.116760
H8    H     H_    0.179749 0.956957 0.443094 0.116760
C17   C     C_R   0.831683 0.461272 0.532377 -0.150688
C18   C     C_R   0.168317 0.538728 0.467623 -0.150688
C19   C     C_R   0.168317 0.538728 0.032377 -0.150688
C20   C     C_R   0.831683 0.461272 0.967623 -0.150688
C21   C     C_R   0.331673 0.038665 0.967571 -0.150687
C22   C     C_R   0.668327 0.961335 0.032429 -0.150687
C23   C     C_R   0.668327 0.961335 0.467571 -0.150687
C24   C     C_R   0.331673 0.038665 0.532429 -0.150687
C25   C     C_R   0.011302 0.435528 0.566135 -0.047067
C26   C     C_R   0.988698 0.564472 0.433865 -0.047067
C27   C     C_R   0.988698 0.564472 0.066135 -0.047067
C28   C     C_R   0.011302 0.435528 0.933865 -0.047067
C29   C     C_R   0.511302 0.064471 0.933864 -0.047069
C30   C     C_R   0.488698 0.935529 0.066136 -0.047069
C31   C     C_R   0.488698 0.935529 0.433864 -0.047069
C32   C     C_R   0.511302 0.064471 0.566136 -0.047069
H9    H     H_    0.698938 0.432174 0.556196 0.118719
H10   H     H_    0.301062 0.567826 0.443804 0.118719
H11   H     H_    0.301062 0.567826 0.056196 0.118720
H12   H     H_    0.698938 0.432174 0.943804 0.118720
H13   H     H_    0.198918 0.067711 0.943710 0.118719
H14   H     H_    0.801082 0.932288 0.056290 0.118719
H15   H     H_    0.801082 0.932288 0.443710 0.118719
H16   H     H_    0.198918 0.067711 0.556290 0.118719

loop_
_geom_bond_atom_site_label_1
_geom_bond_atom_site_label_2
_ccdc_geom_bond_type
O17   V3    S    
O18   V4    S    
C9    C26   A    
O12   V1    S    
O19   V1    S    
C10   H2    S    
C12   C27   A    
C21   H13   S    
C13   C30   A    
O15   V4    S    
O16   V3    S    
C15   C32   A    
O11   C3    A    
C16   C31   A    
C17   H9    S    
O8    V1    S    
C3    C29   S    
C5    C27   S    
C6    C28   S    
C9    C17   A    
O1    V3    S    
C17   C25   A    
O3    C2    A    
O2    V4    S    
C16   H8    S    
C20   C28   A    
C21   C29   A    
C15   C23   A    
O11   V2    S    
C24   H16   S    
C23   C31   A    
C10   C25   A    
C24   C32   A    
C11   H3    S    
C12   C20   A    
O9    V1    S    
C14   C29   A    
C13   C21   A    
O15   C7    A    
C14   C22   A    
O16   C8    A    
O7    V2    S    
O5    V1    S    
O17   V1    S    
C10   C18   A    
O19   V3    S    
C18   C26   A    
O20   V4    S    
C22   C30   A    
C16   C24   A    
C11   C28   A    
O10   V2    S    
C22   H14   S    
O12   C4    A    
O8    C5    A    
O13   C5    A    
C19   H11   S    
C18   H10   S    
O4    C1    A    
O9    C1    A    
O6    V2    S    
O18   V2    S    
C11   C19   A    
C12   H4    S    
C19   C27   A    
C13   H5    S    
C15   H7    S    
C7    C25   S    
O1    C4    A    
O2    C3    A    
O13   V3    S    
O14   V4    S    
C20   H12   S    
O7    C6    A    
C9    H1    S    
O14   C6    A    
O20   V2    S    
C1    C31   S    
C2    C32   S    
O5    C8    A    
O10   C2    A    
O6    C7    A    
C4    C30   S    
O3    V4    S    
C14   H6    S    
O4    V3    S    
C8    C26   S    
C23   H15   S    
