data_mof_unit_pretest_670.cif
_audit_creation_date              2012-12-10T18:31:48-0500
_audit_creation_method            fapswitch 2.2
_symmetry_space_group_name_H-M    P1
_symmetry_Int_Tables_number       1
_space_group_crystal_system       triclinic
_cell_length_a                    10.680922
_cell_length_b                    15.015154
_cell_length_c                    15.447726
_cell_angle_alpha                 82.506573
_cell_angle_beta                  90.465134
_cell_angle_gamma                 104.489749
_cell_volume                      2377.37808355

loop_
_atom_site_label
_atom_site_type_symbol
_atom_type_description
_atom_site_fract_x
_atom_site_fract_y
_atom_site_fract_z
_atom_type_partial_charge
C1    C     C_R   0.477050 0.442002 0.662109 0.919127
C2    C     C_3   0.120415 0.495766 0.502576 -0.026377
C3    C     C_3   0.094409 0.569647 0.427343 -0.166616
C4    C     C_3   0.084571 0.524495 0.590459 -0.460922
C5    C     C_R   0.441475 0.407106 0.753764 -0.068761
C6    C     C_R   0.507492 0.591147 0.245235 -0.055797
C7    C     C_R   0.357697 0.282610 0.870228 -0.144958
C8    C     C_R   0.396662 0.312327 0.783125 -0.190128
C9    C     C_R   0.441690 0.471381 0.810877 -0.235294
C10   C     C_R   0.400489 0.443868 0.897896 0.088991
C11   C     C_R   0.364315 0.347394 0.929756 0.084393
C12   C     C_R   0.741803 0.499658 0.502078 0.917926
C13   C     C_R   0.404771 0.511046 0.954864 0.061038
C14   C     C_R   0.397520 0.482128 0.045380 0.056465
C15   C     C_R   0.352356 0.386572 0.076113 -0.259974
C16   C     C_R   0.335262 0.319137 0.019702 -0.032142
C17   C     C_R   0.419591 0.606519 0.924613 -0.173606
C18   C     C_R   0.445849 0.672554 0.981960 -0.194248
C19   C     C_R   0.462043 0.645566 0.070170 0.146180
C20   C     C_R   0.438854 0.549950 0.102196 0.102111
C21   C     C_R   0.503759 0.712705 0.126581 -0.196790
C22   C     C_R   0.525680 0.685560 0.214102 -0.158331
C23   C     C_R   0.516532 0.557811 0.337727 0.881962
C24   C     C_R   0.467418 0.524902 0.188716 -0.241670
C25   C     C_R   0.681550 0.845805 0.641294 -0.326902
C26   C     C_R   0.647002 0.754796 0.624070 0.108447
C27   C     C_R   0.526017 0.796086 0.501928 -0.091587
C28   C     C_R   0.552909 0.889242 0.520241 0.004192
C29   C     C_R   0.637026 0.913042 0.589457 0.148372
C30   C     C_R   0.497953 0.958784 0.474775 0.085749
C31   C     C_R   0.531205 0.050397 0.499378 0.081648
C32   C     C_R   0.625016 0.071558 0.563376 -0.223782
C33   C     C_R   0.675175 0.003644 0.608320 -0.172339
C34   C     C_R   0.257758 0.498310 0.501417 0.829310
C35   C     C_R   0.408288 0.939511 0.407835 -0.230365
C36   C     C_R   0.349897 0.006699 0.368111 -0.183189
C37   C     C_R   0.377224 0.094767 0.394409 0.160723
C38   C     C_R   0.468192 0.117756 0.460316 0.000490
C39   C     C_R   0.313428 0.160189 0.355926 -0.282622
C40   C     C_R   0.339687 0.247285 0.383488 0.073795
C41   C     C_R   0.489641 0.207295 0.485779 -0.056118
C42   C     C_3   0.892499 0.399624 0.489877 -0.403520
C43   C     C_3   0.034222 0.396304 0.492745 -0.171684
C44   C     C_3   0.949733 0.568492 0.427756 -0.502245
C45   C     C_3   0.940353 0.525711 0.592260 -0.170207
C46   C     C_3   0.878077 0.497860 0.504378 0.044804
H1    H     H_    0.939506 0.639368 0.434310 0.181527
H2    H     H_    0.148447 0.639515 0.442173 0.154734
H3    H     H_    0.459153 0.745168 0.956536 0.159368
H4    H     H_    0.322654 0.208839 0.889791 0.182368
H5    H     H_    0.391294 0.261211 0.738903 0.170749
H6    H     H_    0.478627 0.543622 0.786859 0.178737
H7    H     H_    0.832189 0.344524 0.538153 0.224053
H8    H     H_    0.409262 0.631832 0.856931 0.168159
H9    H     H_    0.743323 0.022109 0.659443 0.156812
H10   H     H_    0.555273 0.231308 0.535740 0.138048
H11   H     H_    0.292181 0.298877 0.353550 0.145628
H12   H     H_    0.742614 0.864070 0.696125 0.175360
H13   H     H_    0.467008 0.772647 0.448501 0.147104
H14   H     H_    0.661257 0.139872 0.581676 0.150239
H15   H     H_    0.379730 0.872552 0.385356 0.152935
H16   H     H_    0.059509 0.377219 0.429194 0.187357
H17   H     H_    0.904325 0.550413 0.365040 0.193031
H18   H     H_    0.109619 0.478662 0.646734 0.219914
N1    N     N_R   0.573860 0.731700 0.552730 -0.137281
N2    N     N_R   0.426060 0.268290 0.447230 -0.101556
O1    O     O_R   0.462770 0.383110 0.605620 -0.601539
O2    O     O_R   0.510160 0.531900 0.639510 -0.613364
O3    O     O_R   0.661510 0.425600 0.483070 -0.621981
O4    O     O_R   0.708900 0.574390 0.516960 -0.587563
O5    O     O_R   0.489840 0.468100 0.360490 -0.630284
O6    O     O_R   0.537230 0.616890 0.394380 -0.616964
O7    O     O_R   0.291100 0.425610 0.483040 -0.606213
O8    O     O_R   0.338490 0.574400 0.516930 -0.626909
Zn1   Zn    Zn3+2 0.468350 0.400660 0.477370 0.982772
Zn2   Zn    Zn3+2 0.531650 0.599340 0.522630 0.975960
H19   H     H_    0.855000 0.383452 0.424661 0.190056
H20   H     H_    0.143912 0.595356 0.598016 0.186016
C47   C     C_2   0.296108 0.220346 0.059062 0.889372
O9    O     O_2   0.205925 0.194431 0.112238 -0.629016
O10   O     O_R   0.366080 0.158084 0.039198 -0.810828
H21   H     H_    0.331020 0.093371 0.071511 0.345697
H22   H     H_    0.462197 0.453377 0.212745 0.163113
H23   H     H_    0.555368 0.737946 0.257284 0.165953
H24   H     H_    0.329524 0.362664 0.144563 0.167851
H25   H     H_    0.519931 0.785955 0.102916 0.151288
H26   H     H_    0.280792 0.988964 0.317418 0.158313
C48   C     C_2   0.689968 0.687230 0.687668 0.917545
O11   O     O_2   0.747773 0.634318 0.663617 -0.625127
O12   O     O_R   0.673899 0.689860 0.776995 -0.839981
H27   H     H_    0.710152 0.642191 0.814741 0.355837
C49   C     C_2   0.052966 0.318991 0.562156 0.911833
O13   O     O_2   0.100872 0.258692 0.541242 -0.617225
O14   O     O_R   0.011566 0.314184 0.648653 -0.807247
H28   H     H_    0.029032 0.259112 0.687699 0.346569
H29   H     H_    0.244034 0.144145 0.305097 0.184450
C50   C     C_2   0.141078 0.561380 0.336962 0.897389
O15   O     O_2   0.095596 0.492373 0.301815 -0.633877
O16   O     O_R   0.232677 0.635813 0.292005 -0.820227
H30   H     H_    0.249858 0.625125 0.230250 0.354202
H31   H     H_    0.937569 0.598808 0.595204 0.168650
C51   C     C_2   0.871546 0.469379 0.675060 1.037089
O17   O     O_2   0.910482 0.491090 0.745945 -0.604307
O18   O     O_R   0.763486 0.394849 0.671693 -0.823822
H32   H     H_    0.726952 0.364550 0.731782 0.343685

loop_
_geom_bond_atom_site_label_1
_geom_bond_atom_site_label_2
_ccdc_geom_bond_type
C33   H9    S    
C12   O3    A    
C19   C20   A    
O6    Zn2   S    
C50   O15   D    
C7    C8    A    
C45   C46   S    
C7    C11   A    
N1    Zn2   S    
O8    Zn2   S    
C30   C35   A    
C1    C5    S    
C36   C37   A    
C19   C21   A    
C24   H22   S    
C18   C19   A    
C42   H7    S    
C30   C31   A    
C6    C23   S    
C15   C16   A    
C6    C22   A    
C29   C33   A    
C3    H2    S    
C1    O2    A    
C4    H20   S    
C42   C46   S    
C20   C24   A    
C31   C32   A    
C9    C10   A    
C44   H1    S    
C15   H24   S    
C2    C34   S    
C36   H26   S    
C40   N2    A    
C21   C22   A    
O7    Zn1   S    
O14   H28   S    
C9    H6    S    
O18   H32   S    
C50   O16   S    
C44   C46   S    
O10   H21   S    
C4    C45   S    
C44   H17   S    
C25   C29   A    
C3    C44   S    
C23   O5    A    
C38   C41   A    
C12   C46   S    
C45   C51   S    
C39   C40   A    
C47   O10   S    
C25   C26   A    
C35   C36   A    
C22   H23   S    
C2    C4    S    
C41   H10   S    
C5    C9    A    
C37   C38   A    
C27   N1    A    
C14   C20   A    
C11   C16   A    
C3    C50   S    
O16   H30   S    
C2    C43   S    
C6    C24   A    
C49   O14   S    
C17   C18   A    
C35   H15   S    
C51   O18   S    
C8    H5    S    
C45   H31   S    
C34   O8    A    
C48   O12   S    
O4    Zn2   S    
O1    Zn1   S    
C42   C43   S    
C32   H14   S    
C12   O4    A    
C21   H25   S    
C28   C29   A    
C40   H11   S    
C26   N1    A    
C23   O6    A    
C7    H4    S    
C10   C13   A    
C5    C8    A    
C41   N2    A    
O2    Zn2   S    
C4    H18   S    
C43   C49   S    
C31   C38   A    
C13   C17   A    
C16   C47   S    
C32   C33   A    
C28   C30   A    
C2    C3    S    
C37   C39   A    
C27   H13   S    
O5    Zn1   S    
O12   H27   S    
N2    Zn1   S    
C49   O13   D    
C1    O1    A    
O3    Zn1   S    
C51   O17   D    
C39   H29   S    
C10   C11   A    
C34   O7    A    
C47   O9    D    
C48   O11   D    
C43   H16   S    
C42   H19   S    
C26   C48   S    
C25   H12   S    
C27   C28   A    
C14   C15   A    
C13   C14   A    
C17   H8    S    
C18   H3    S    
