data_mof_unit_pretest_1219.cif
_audit_creation_date              2012-12-11T16:44:15-0500
_audit_creation_method            fapswitch 2.2
_symmetry_space_group_name_H-M    P1
_symmetry_Int_Tables_number       1
_space_group_crystal_system       triclinic
_cell_length_a                    28.071923
_cell_length_b                    7.134382
_cell_length_c                    23.649615
_cell_angle_alpha                 90.000015
_cell_angle_beta                  100.524919
_cell_angle_gamma                 90.0
_cell_volume                      4656.75802037

loop_
_atom_site_label
_atom_site_type_symbol
_atom_type_description
_atom_site_fract_x
_atom_site_fract_y
_atom_site_fract_z
_atom_type_partial_charge
O1    O     O_R   0.707300 0.594030 0.176840 -0.535081
O2    O     O_R   0.292700 0.405970 0.823160 -0.531617
O3    O     O_R   0.792700 0.094030 0.323160 -0.535082
O4    O     O_R   0.207300 0.905970 0.676840 -0.531617
O5    O     O_R   0.697330 0.262360 0.295660 -0.550003
O6    O     O_R   0.302670 0.737640 0.704340 -0.549517
O7    O     O_R   0.802670 0.762360 0.204340 -0.550002
O8    O     O_R   0.197330 0.237640 0.795660 -0.549517
C1    C     C_R   0.684348 0.432018 0.311539 0.681474
C2    C     C_R   0.315638 0.567825 0.688388 0.684199
C3    C     C_R   0.815652 0.932018 0.188461 0.681474
C4    C     C_R   0.184362 0.067825 0.811612 0.684199
O9    O     O_R   0.701410 0.264250 0.175600 -0.535879
O10   O     O_R   0.298590 0.735750 0.824400 -0.539798
O11   O     O_R   0.798590 0.764250 0.324400 -0.535880
O12   O     O_R   0.201410 0.235750 0.675600 -0.539798
O13   O     O_R   0.796800 0.094950 0.202240 -0.544755
O14   O     O_R   0.203200 0.905050 0.797760 -0.544763
O15   O     O_R   0.703200 0.594950 0.297760 -0.544754
O16   O     O_R   0.296800 0.405050 0.702240 -0.544763
C5    C     C_R   0.689492 0.432852 0.152936 0.683186
C6    C     C_R   0.310507 0.567339 0.847062 0.685647
C7    C     C_R   0.810508 0.932852 0.347064 0.683186
C8    C     C_R   0.189493 0.067339 0.652937 0.685647
O17   O     O_3   0.781290 0.427390 0.258880 -0.382683
O18   O     O_3   0.218710 0.572610 0.741120 -0.382481
O19   O     O_3   0.718710 0.927390 0.241120 -0.382683
O20   O     O_3   0.281290 0.072610 0.758880 -0.382481
V1    V     V_3+5 0.744190 0.152150 0.248350 1.421809
V2    V     V_3+5 0.255810 0.847850 0.751650 1.422719
V3    V     V_3+5 0.755810 0.652150 0.251650 1.421809
V4    V     V_3+5 0.244190 0.347850 0.748350 1.422719
C9    C     C_R   0.155369 0.058171 0.593836 -0.119892
C10   C     C_R   0.844702 0.941780 0.406089 -0.103688
C11   C     C_R   0.344631 0.558171 0.906164 -0.119892
C12   C     C_R   0.655298 0.441780 0.093911 -0.103688
C13   C     C_R   0.143208 0.058008 0.488268 0.273473
C14   C     C_R   0.856726 0.946425 0.511773 0.274445
C15   C     C_R   0.356792 0.558008 0.011732 0.273473
C16   C     C_R   0.643274 0.446425 0.988227 0.274444
C17   C     C_R   0.175260 0.065000 0.543189 -0.157081
C18   C     C_R   0.824796 0.934974 0.456797 -0.152042
C19   C     C_R   0.324740 0.565000 0.956811 -0.157080
C20   C     C_R   0.675204 0.434974 0.043203 -0.152042
C21   C     C_R   0.103696 0.043473 0.586323 -0.146828
C22   C     C_R   0.896532 0.965899 0.413301 -0.189951
C23   C     C_R   0.396303 0.543473 0.913676 -0.146829
C24   C     C_R   0.603468 0.465899 0.086699 -0.189951
C25   C     C_R   0.069527 0.026329 0.532862 0.014738
C26   C     C_R   0.930490 0.973952 0.467161 0.020625
C27   C     C_R   0.430472 0.526329 0.967138 0.014738
C28   C     C_R   0.569510 0.473952 0.032839 0.020625
C29   C     C_R   0.089976 0.035680 0.481998 0.012640
C30   C     C_R   0.910031 0.965021 0.518032 0.021208
C31   C     C_R   0.410024 0.535680 0.018002 0.012640
C32   C     C_R   0.589969 0.465022 0.981967 0.021208
C33   C     C_R   0.016428 0.008572 0.528392 -0.062992
C34   C     C_R   0.983413 0.990943 0.471564 -0.074662
C35   C     C_R   0.483572 0.508572 0.971608 -0.062992
C36   C     C_R   0.516587 0.490943 0.028436 -0.074662
C37   C     C_R   0.004865 0.988212 0.419477 0.224207
C38   C     C_R   0.995108 0.003657 0.580039 0.224554
C39   C     C_R   0.495135 0.488212 0.080523 0.224207
C40   C     C_R   0.504892 0.503657 0.919961 0.224554
C41   C     C_R   0.057040 0.020645 0.426605 0.223849
C42   C     C_R   0.942865 0.982785 0.573323 0.207909
C43   C     C_R   0.442960 0.520645 0.073395 0.223849
C44   C     C_R   0.557135 0.482785 0.926677 0.207909
H1    H     H_    0.909183 0.023315 0.377673 0.135102
H2    H     H_    0.091280 0.145987 0.621853 0.131360
H3    H     H_    0.590817 0.523315 0.122327 0.135102
H4    H     H_    0.408719 0.645986 0.878147 0.131360
H5    H     H_    0.784625 0.923980 0.452976 0.124748
H6    H     H_    0.215382 0.074939 0.547026 0.125737
H7    H     H_    0.715375 0.423980 0.047024 0.124748
H8    H     H_    0.284618 0.574939 0.952974 0.125737
C45   C     C_R   0.866971 0.125973 0.132137 -0.190747
C46   C     C_R   0.132841 0.873564 0.867993 -0.189703
C47   C     C_R   0.633029 0.625973 0.367863 -0.190747
C48   C     C_R   0.367158 0.373564 0.632007 -0.189703
H9    H     H_    0.852568 0.241612 0.154802 0.146748
H10   H     H_    0.147450 0.758472 0.845160 0.147375
H11   H     H_    0.647432 0.741612 0.345198 0.146748
H12   H     H_    0.352550 0.258472 0.654840 0.147375
C49   C     C_R   0.901203 0.139784 0.095713 -0.141232
C50   C     C_R   0.098846 0.859589 0.904228 -0.134594
C51   C     C_R   0.598797 0.639783 0.404287 -0.141232
C52   C     C_R   0.401153 0.359589 0.595772 -0.134594
H13   H     H_    0.908909 0.278445 0.081829 0.130630
H14   H     H_    0.088986 0.719866 0.918176 0.122399
H15   H     H_    0.591090 0.778445 0.418171 0.130630
H16   H     H_    0.411014 0.219866 0.581824 0.122399
C53   C     C_R   0.925161 0.977500 0.075009 0.054707
C54   C     C_R   0.074852 0.026295 0.923494 0.064922
C55   C     C_R   0.574838 0.477501 0.424990 0.054707
C56   C     C_R   0.425148 0.526295 0.576506 0.064922
C57   C     C_R   0.905151 0.803822 0.087990 -0.167513
C58   C     C_R   0.090154 0.200690 0.901695 -0.149001
C59   C     C_R   0.594849 0.303822 0.412010 -0.167513
C60   C     C_R   0.409846 0.700690 0.598305 -0.149001
H17   H     H_    0.919714 0.689642 0.075198 0.217457
H18   H     H_    0.077507 0.327317 0.910225 0.180924
H19   H     H_    0.580286 0.189642 0.424802 0.217457
H20   H     H_    0.422493 0.827317 0.589776 0.180925
C61   C     C_R   0.876502 0.780215 0.131370 0.237351
C62   C     C_R   0.123734 0.221244 0.866489 0.230184
C63   C     C_R   0.623498 0.280215 0.368630 0.237352
C64   C     C_R   0.376266 0.721244 0.633510 0.230183
C65   C     C_R   0.853459 0.945127 0.150411 -0.091189
C66   C     C_R   0.147045 0.054895 0.849117 -0.094316
C67   C     C_R   0.646541 0.445127 0.349589 -0.091189
C68   C     C_R   0.352955 0.554895 0.650883 -0.094316
C69   C     C_R   0.987217 0.812920 0.020151 0.302683
C70   C     C_R   0.013140 0.188843 0.980065 0.317983
C71   C     C_R   0.512783 0.312919 0.479849 0.302682
C72   C     C_R   0.486860 0.688842 0.519935 0.317983
C73   C     C_R   0.022130 0.838432 0.985229 -0.285123
C74   C     C_R   0.977950 0.166395 0.016650 -0.255514
C75   C     C_R   0.477870 0.338432 0.514771 -0.285124
C76   C     C_R   0.522050 0.666395 0.483350 -0.255515
H21   H     H_    0.042898 0.720526 0.977647 0.141826
H22   H     H_    0.959452 0.284834 0.029640 0.158797
H23   H     H_    0.457102 0.220526 0.522353 0.141825
H24   H     H_    0.540548 0.784834 0.470359 0.158799
C77   C     C_R   0.036139 0.016264 0.962987 0.011687
C78   C     C_R   0.963856 0.985337 0.037320 0.024781
C79   C     C_R   0.463861 0.516264 0.537013 0.011689
C80   C     C_R   0.536144 0.485337 0.462680 0.024781
N1    N     N_3   0.077972 0.015646 0.374599 -0.666965
H25   H     H_    0.054082 0.033848 0.336175 0.257388
H26   H     H_    0.109434 0.080884 0.369199 0.254618
N2    N     N_3   0.921670 0.976223 0.625577 -0.696680
H27   H     H_    0.946462 0.971886 0.663983 0.267225
H28   H     H_    0.891018 0.036849 0.627886 0.269028
N3    N     N_3   0.422028 0.515646 0.125401 -0.666965
H29   H     H_    0.445918 0.533848 0.163825 0.257387
H30   H     H_    0.390566 0.580884 0.130801 0.254618
N4    N     N_3   0.578330 0.476223 0.874423 -0.696680
H31   H     H_    0.553538 0.471886 0.836017 0.267225
H32   H     H_    0.608982 0.536849 0.872113 0.269028
N5    N     N_2   0.976824 0.618129 0.038067 -0.558799
H33   H     H_    0.993518 0.530138 0.015338 0.314014
C81   C     C_3   0.986827 0.553501 0.100301 -0.551970
H34   H     H_    0.970241 0.416018 0.111892 0.165277
H35   H     H_    0.972347 0.634786 0.134982 0.164456
H36   H     H_    0.023033 0.561731 0.119606 0.210088
N6    N     N_2   0.025249 0.378913 0.959328 -0.571966
H37   H     H_    0.057525 0.444235 0.978153 0.234905
C82   C     C_3   0.988409 0.492131 0.921229 -0.578537
H38   H     H_    0.000142 0.630136 0.904990 0.192048
H39   H     H_    0.956990 0.504031 0.941551 0.216807
H40   H     H_    0.972733 0.423614 0.881431 0.207979
N7    N     N_2   0.523176 0.118129 0.461933 -0.558799
H41   H     H_    0.506481 0.030140 0.484662 0.314014
C83   C     C_3   0.513173 0.053501 0.399699 -0.551970
H42   H     H_    0.529759 0.916018 0.388108 0.165278
H43   H     H_    0.527653 0.134786 0.365018 0.164456
H44   H     H_    0.476966 0.061731 0.380394 0.210087
N8    N     N_2   0.474751 0.878912 0.540672 -0.571966
H45   H     H_    0.442475 0.944235 0.521847 0.234905
C84   C     C_3   0.511591 0.992131 0.578771 -0.578538
H46   H     H_    0.499858 0.130136 0.595010 0.192048
H47   H     H_    0.543009 0.004030 0.558449 0.216809
H48   H     H_    0.527267 0.923615 0.618568 0.207979
N9    N     N_3   0.166850 0.063290 0.440245 -0.731610
H49   H     H_    0.184255 0.181992 0.430069 0.245463
H50   H     H_    0.167835 0.937997 0.417894 0.257129
N10   N     N_3   0.833572 0.930834 0.559632 -0.721042
H51   H     H_    0.810388 0.040484 0.569886 0.236430
H52   H     H_    0.840187 0.815433 0.585246 0.266531
N11   N     N_3   0.333150 0.563290 0.059755 -0.731609
H53   H     H_    0.315744 0.681992 0.069931 0.245463
H54   H     H_    0.332165 0.437997 0.082106 0.257129
N12   N     N_3   0.666428 0.430835 0.940368 -0.721042
H55   H     H_    0.689612 0.540484 0.930114 0.236430
H56   H     H_    0.659813 0.315433 0.914753 0.266531
N13   N     N_3   0.977911 0.949959 0.359167 -0.691481
H57   H     H_    0.955312 0.844899 0.343870 0.244467
H58   H     H_    0.964458 0.082094 0.336277 0.201419
N14   N     N_3   0.024069 0.017767 0.641369 -0.727193
H59   H     H_    0.047171 0.903857 0.655609 0.240049
H60   H     H_    0.028660 0.132787 0.666533 0.240237
N15   N     N_3   0.522089 0.449959 0.140833 -0.691481
H61   H     H_    0.544687 0.344899 0.156130 0.244466
H62   H     H_    0.535542 0.582094 0.163723 0.201419
N16   N     N_3   0.475930 0.517767 0.858631 -0.727193
H63   H     H_    0.452829 0.403857 0.844391 0.240049
H64   H     H_    0.471340 0.632787 0.833467 0.240237
N17   N     N_3   0.864249 0.590688 0.150033 -0.692106
H65   H     H_    0.888885 0.489904 0.169635 0.191868
H66   H     H_    0.839240 0.561389 0.174283 0.264641
N18   N     N_3   0.136304 0.410272 0.849214 -0.701676
H67   H     H_    0.111241 0.510168 0.830535 0.197896
H68   H     H_    0.160828 0.439115 0.825555 0.268624
N19   N     N_3   0.635751 0.090688 0.349967 -0.692106
H69   H     H_    0.611115 0.989904 0.330365 0.191868
H70   H     H_    0.660760 0.061389 0.325717 0.264641
N20   N     N_3   0.363696 0.910272 0.650786 -0.701676
H71   H     H_    0.388759 0.010168 0.669465 0.197896
H72   H     H_    0.339172 0.939115 0.674445 0.268624

loop_
_geom_bond_atom_site_label_1
_geom_bond_atom_site_label_2
_ccdc_geom_bond_type
O17   V3    S    
C81   H36   S    
C59   H19   S    
N11   H53   S    
C52   C56   A    
O1    C5    A    
N9    H49   S    
C51   H15   S    
C3    C65   S    
C9    C21   A    
C44   N4    S    
N6    H37   S    
C10   C18   A    
C62   N18   S    
C48   H12   S    
C11   C23   A    
C63   N19   S    
C84   H46   S    
C25   C33   A    
N3    H29   S    
C5    C12   S    
C14   N10   S    
C6    C11   S    
N11   H54   S    
C35   C40   A    
C26   C30   A    
C36   C39   A    
C40   C44   A    
O9    V1    S    
N6    C82   S    
C70   N6    S    
C14   C18   A    
N15   H62   S    
C38   N14   S    
O4    C8    A    
C55   C59   A    
N10   H52   S    
O19   V1    S    
C54   C58   A    
C81   H34   S    
O1    V3    S    
O13   V1    S    
C31   C43   A    
O2    V4    S    
C74   H22   S    
O3    V1    S    
C73   H21   S    
C53   C78   S    
C22   H1    S    
C15   N11   S    
C50   C54   A    
C17   H6    S    
N12   H55   S    
O3    C7    A    
C55   C80   S    
C1    O15   A    
C60   H20   S    
C15   C31   A    
C52   H16   S    
C2    O16   A    
N2    H27   S    
C16   C32   A    
C72   C79   A    
C51   C55   A    
O2    C6    A    
N8    C84   S    
C2    C68   S    
N20   H71   S    
C10   C22   A    
C45   H9    S    
N7    C83   S    
C11   C19   A    
C16   C20   A    
C42   N2    S    
C13   C29   A    
C46   C50   A    
C34   C37   A    
O11   C7    A    
O15   V3    S    
C35   C36   A    
O12   C8    A    
N3    H30   S    
C71   N7    S    
C83   H44   S    
C64   N20   S    
N9    H50   S    
C49   C53   A    
O10   V2    S    
O16   V4    S    
C47   C51   A    
C84   H47   S    
N14   H60   S    
O5    V1    S    
C39   C43   A    
C60   C64   A    
C39   N15   S    
C38   C42   A    
O8    V4    S    
C61   N17   S    
C33   C38   A    
O7    V3    S    
C72   N8    S    
C50   H14   S    
C82   H40   S    
C70   C77   A    
C49   H13   S    
O18   V4    S    
C15   C19   A    
C69   C78   A    
N13   H58   S    
C58   H18   S    
O4    V2    S    
C71   C80   A    
C72   C76   A    
C56   C79   S    
C76   H24   S    
N5    C81   S    
C26   C34   A    
C20   H7    S    
O7    C3    A    
N15   H61   S    
O5    C1    A    
C43   N3    S    
C23   C27   A    
C46   H10   S    
C41   N1    S    
N8    H45   S    
C14   C30   A    
C21   C25   A    
C37   N13   S    
O8    C4    A    
C7    C10   S    
C48   C68   A    
O9    C5    A    
C46   C66   A    
C1    C67   S    
C45   C65   A    
C83   H43   S    
C70   C74   A    
N4    H32   S    
O14   V2    S    
N2    H28   S    
N10   H51   S    
O6    V2    S    
C71   C75   A    
C69   C73   A    
C12   C20   A    
C27   C35   A    
C24   H3    S    
N16   H64   S    
C53   C57   A    
C84   H48   S    
C29   C41   A    
N14   H59   S    
N1    H25   S    
C62   C66   A    
C54   C77   S    
C19   H8    S    
C81   H35   S    
C61   C65   A    
C3    O13   A    
C18   H5    S    
C21   H2    S    
C63   C67   A    
O6    C2    A    
C13   N9    S    
C76   C80   A    
O11   V3    S    
C30   C42   A    
C75   H23   S    
O12   V4    S    
C59   C63   A    
C22   C26   A    
C8    C9    S    
C58   C62   A    
C47   C67   A    
C9    C17   A    
N18   H67   S    
O10   C6    A    
C82   H39   S    
N16   H63   S    
C57   C61   A    
C48   C52   A    
C32   C44   A    
N5    H33   S    
C47   H11   S    
C33   C34   A    
C25   C29   A    
C4    C66   S    
C56   C60   A    
O20   V2    S    
N12   H56   S    
C69   N5    S    
C12   C24   A    
C27   C31   A    
C37   C41   A    
C13   C17   A    
N17   H65   S    
C57   H17   S    
C23   H4    S    
N4    H31   S    
C45   C49   A    
N19   H69   S    
C64   C68   A    
N1    H26   S    
C24   C28   A    
C16   N12   S    
C28   C36   A    
N13   H57   S    
C4    O14   A    
C83   H42   S    
N20   H72   S    
C74   C78   A    
N17   H66   S    
N7    H41   S    
C82   H38   S    
C73   C77   A    
C40   N16   S    
C28   C32   A    
N18   H68   S    
N19   H70   S    
C75   C79   A    
