data_mof_unit_pretest_1744.cif
_audit_creation_date              2012-12-10T16:43:34-0500
_audit_creation_method            fapswitch 2.2
_symmetry_space_group_name_H-M    P1
_symmetry_Int_Tables_number       1
_space_group_crystal_system       triclinic
_cell_length_a                    18.473711
_cell_length_b                    18.487129
_cell_length_c                    18.473868
_cell_angle_alpha                 120.027251
_cell_angle_beta                  90.246481
_cell_angle_gamma                 119.827087
_cell_volume                      4461.51686798

loop_
_atom_site_label
_atom_site_type_symbol
_atom_type_description
_atom_site_fract_x
_atom_site_fract_y
_atom_site_fract_z
_atom_type_partial_charge
C1    C     C_R   0.361456 0.000320 0.138558 0.515201
C2    C     C_2   0.803259 0.998810 0.691064 -0.089030
C3    C     C_2   0.720925 0.939875 0.776947 -0.152411
C4    C     C_R   0.638794 0.000308 0.861786 0.515233
C5    C     C_2   0.696675 0.004322 0.808997 -0.088958
C6    C     C_2   0.277956 0.444982 0.742344 -0.158947
C7    C     C_2   0.190449 0.387393 0.702215 -0.078047
C8    C     C_2   0.326337 0.556375 0.806519 -0.164094
C9    C     C_2   0.309442 0.613354 0.794465 0.009240
C10   C     C_2   0.280905 0.059887 0.337331 -0.152438
C11   C     C_2   0.192169 0.995460 0.304434 -0.088747
C12   C     C_R   0.092625 0.801312 0.598684 -0.117989
C13   C     C_2   0.337190 0.057505 0.281259 -0.153539
C14   C     C_2   0.304649 0.001425 0.192435 -0.089031
C15   C     C_2   0.774635 0.936869 0.217971 -0.147330
C16   C     C_R   0.637778 0.277079 0.138850 0.517057
C17   C     C_2   0.810465 0.005855 0.306138 -0.085187
C18   C     C_2   0.722845 0.940932 0.162082 -0.152067
C19   C     C_2   0.689086 0.995422 0.195614 -0.086508
C20   C     C_2   0.753974 0.554149 0.219711 0.075559
C21   C     C_2   0.807287 0.611771 0.304424 -0.068547
C22   C     C_2   0.707309 0.442553 0.163188 -0.133621
C23   C     C_R   0.168967 0.895423 0.670334 0.022659
C24   C     C_2   0.687440 0.387726 0.196320 -0.115934
C25   C     C_R   0.138177 0.277007 0.640017 0.518296
C26   C     C_R   0.859986 0.722814 0.361010 0.525493
C27   C     C_R   0.861147 0.999817 0.638253 0.515305
C28   C     C_R   0.361866 0.723012 0.860732 0.500345
C29   C     C_R   0.138366 0.999536 0.361342 0.514008
C30   C     C_R   0.860857 0.000516 0.360365 0.522802
C31   C     C_R   0.140018 0.997443 0.637426 0.495229
C32   C     C_R   0.638974 0.999381 0.139709 0.517770
C33   C     C_R   0.359394 0.996370 0.856765 0.496653
C34   C     C_R   0.220758 0.894664 0.726790 0.003197
C35   C     C_R   0.189725 0.799621 0.712572 -0.077968
C36   C     C_R   0.108765 0.710147 0.647607 0.105320
C37   C     C_R   0.061761 0.710635 0.589405 -0.097850
C38   C     C_1   0.257444 0.574541 0.709096 0.213596
C39   C     C_R   0.301926 0.988591 0.794076 0.022425
C40   C     C_R   0.329708 0.078885 0.802641 -0.142161
C41   C     C_R   0.277129 0.079712 0.749918 -0.145310
C42   C     C_R   0.195961 0.989823 0.685708 0.027928
C43   C     C_2   0.779603 0.942480 0.723289 -0.151800
H1    H     H_    0.391365 0.150581 0.853019 0.145530
H2    H     H_    0.784519 0.876272 0.184988 0.177638
H3    H     H_    0.226264 0.791612 0.750103 0.171471
H4    H     H_    0.805558 0.069970 0.340820 0.114795
H5    H     H_    0.711339 0.896341 0.091255 0.163584
H6    H     H_    0.695386 0.036563 0.265029 0.111756
H7    H     H_    0.816379 0.577346 0.333623 0.076629
H8    H     H_    0.685299 0.404162 0.091786 0.180012
H9    H     H_    0.703013 0.423003 0.267105 0.111125
H10   H     H_    0.000975 0.640366 0.536509 0.140086
H11   H     H_    0.055878 0.795544 0.548231 0.144220
H12   H     H_    0.719930 0.063607 0.798505 0.111753
H13   H     H_    0.299032 0.151953 0.761159 0.140714
H14   H     H_    0.803033 0.894882 0.709223 0.162577
H15   H     H_    0.779477 0.044958 0.701352 0.111860
H16   H     H_    0.698024 0.883225 0.791161 0.161066
H17   H     H_    0.313433 0.410253 0.733016 0.159581
H18   H     H_    0.154361 0.422138 0.718813 0.140320
H19   H     H_    0.377716 0.592762 0.866163 0.141408
H20   H     H_    0.314571 0.116413 0.408547 0.161408
H21   H     H_    0.156152 0.936236 0.234299 0.113620
H22   H     H_    0.408189 0.104996 0.315119 0.160964
H23   H     H_    0.234742 0.955386 0.156305 0.113844
I1    I     I_    0.727735 0.612592 0.156247 -0.339005
I2    I     I_    0.054807 0.573375 0.637484 -0.335338
N1    N     N_1   0.217066 0.543156 0.640162 -0.253167
O1    O     O_3   0.500000 0.000000 0.000000 -0.448274
O2    O     O_R   0.054120 0.939900 0.325040 -0.533795
O3    O     O_R   0.884120 0.060070 0.444330 -0.534485
O4    O     O_R   0.325020 0.939940 0.054210 -0.532528
O5    O     O_R   0.175860 0.060090 0.615830 -0.545257
O6    O     O_R   0.884120 0.939900 0.324160 -0.527211
O7    O     O_R   0.055710 0.939940 0.615850 -0.549522
O8    O     O_R   0.885720 0.939940 0.614980 -0.536365
O9    O     O_R   0.174930 0.060060 0.445830 -0.540228
O10   O     O_R   0.054120 0.229160 0.614300 -0.531067
O11   O     O_R   0.885050 0.770830 0.325070 -0.499546
O12   O     O_R   0.614240 0.229150 0.054160 -0.537620
O13   O     O_R   0.614240 0.060060 0.885070 -0.536968
O14   O     O_R   0.614900 0.229170 0.174980 -0.536094
O15   O     O_R   0.445840 0.770840 0.885740 -0.544237
O16   O     O_R   0.615830 0.060100 0.175880 -0.538234
O17   O     O_R   0.324090 0.939910 0.884220 -0.552343
O18   O     O_R   0.615830 0.939930 0.055710 -0.542104
O19   O     O_R   0.444240 0.060060 0.884190 -0.539291
O20   O     O_R   0.325020 0.770840 0.885120 -0.532114
O21   O     O_R   0.445840 0.060100 0.175010 -0.540415
O22   O     O_R   0.614900 0.939900 0.885710 -0.539621
O23   O     O_3   0.999960 0.000000 0.500040 -0.452483
O24   O     O_R   0.174930 0.229160 0.614920 -0.539784
O25   O     O_R   0.885720 0.770850 0.445880 -0.552066
O26   O     O_R   0.885050 0.060100 0.614330 -0.537067
Zn1   Zn    Zn3+2 0.542440 0.085830 0.956610 0.949568
Zn2   Zn    Zn3+2 0.543390 0.085850 0.129220 0.950674
Zn3   Zn    Zn3+2 0.543390 0.914160 0.957530 0.942476
Zn4   Zn    Zn3+2 0.370780 0.914160 0.956640 0.953893
Zn5   Zn    Zn3+2 0.957510 0.914170 0.543430 0.937386
Zn6   Zn    Zn3+2 0.956570 0.085840 0.542520 0.965007
Zn7   Zn    Zn3+2 0.956570 0.914150 0.370820 0.976014
Zn8   Zn    Zn3+2 0.129180 0.085840 0.543400 0.939445

loop_
_geom_bond_atom_site_label_1
_geom_bond_atom_site_label_2
_ccdc_geom_bond_type
C24   H9    S    
C15   C18   S    
C21   C26   S    
O19   Zn1   S    
C25   O24   A    
C1    O21   A    
C31   C42   S    
C28   O15   A    
C41   C42   A    
C20   I1    S    
C27   O26   A    
C35   C36   A    
O24   Zn8   S    
C13   H22   S    
C12   C23   A    
C3    C43   S    
C33   C39   S    
C23   C42   A    
O20   Zn4   S    
C36   C37   A    
C33   O19   A    
C18   C19   D    
C22   H8    S    
O3    Zn6   S    
O8    Zn5   S    
O4    Zn4   S    
C34   C35   A    
C12   C37   A    
C7    H18   S    
O23   Zn8   S    
C29   O9    A    
C10   H20   S    
C8    C9    D    
O6    Zn7   S    
C2    C27   S    
O21   Zn2   S    
O1    Zn2   S    
O23   Zn7   S    
C4    O22   A    
C37   H10   S    
C38   N1    T    
C16   C24   S    
C13   C14   D    
C17   C30   S    
C19   C32   S    
C21   H7    S    
O13   Zn1   S    
C34   C39   A    
C6    H17   S    
C11   H21   S    
C39   C40   A    
O12   Zn1   S    
C31   O5    A    
C6    C8    S    
C3    C5    D    
C32   O18   A    
C16   O14   A    
C26   O11   A    
O11   Zn7   S    
O1    Zn1   S    
C33   O17   A    
C41   H13   S    
C19   H6    S    
O25   Zn5   S    
C2    C43   D    
C23   C34   A    
C2    H15   S    
C14   H23   S    
O17   Zn4   S    
C28   O20   A    
O23   Zn6   S    
C40   C41   A    
O2    Zn7   S    
C20   C22   S    
C26   O25   A    
C22   C24   D    
C15   H2    S    
O1    Zn4   S    
O23   Zn5   S    
C15   C17   D    
O9    Zn8   S    
C25   O10   A    
C5    H12   S    
C17   H4    S    
C4    C5    S    
C27   O8    A    
C10   C13   S    
C18   H5    S    
C30   O3    A    
C36   I2    S    
C6    C7    D    
O7    Zn5   S    
C7    C25   S    
O15   Zn3   S    
O18   Zn3   S    
C1    O4    A    
C30   O6    A    
C31   O7    A    
C32   O16   A    
C16   O12   A    
O22   Zn3   S    
O16   Zn2   S    
C10   C11   D    
C43   H14   S    
O26   Zn6   S    
C40   H1    S    
C4    O13   A    
C20   C21   D    
C11   C29   S    
O14   Zn2   S    
O10   Zn6   S    
C9    C38   S    
C1    C14   S    
C35   H3    S    
C12   H11   S    
O1    Zn3   S    
C9    C28   S    
C8    H19   S    
O5    Zn8   S    
C29   O2    A    
C3    H16   S    
