data_mof_unit_pretest_985.cif
_audit_creation_date              2012-12-10T18:42:42-0500
_audit_creation_method            fapswitch 2.2
_symmetry_space_group_name_H-M    P1
_symmetry_Int_Tables_number       1
_space_group_crystal_system       triclinic
_cell_length_a                    10.87292
_cell_length_b                    15.100143
_cell_length_c                    13.852931
_cell_angle_alpha                 89.808619
_cell_angle_beta                  90.923735
_cell_angle_gamma                 89.320421
_cell_volume                      2273.94114994

loop_
_atom_site_label
_atom_site_type_symbol
_atom_type_description
_atom_site_fract_x
_atom_site_fract_y
_atom_site_fract_z
_atom_type_partial_charge
C1    C     C_R   0.500115 0.330243 0.500085 0.777100
C2    C     C_R   0.501804 0.670362 0.499753 0.791570
C3    C     C_R   0.871832 0.500868 0.502731 -0.178507
C4    C     C_R   0.128104 0.498996 0.497537 -0.177755
C5    C     C_R   0.940033 0.456421 0.576464 -0.217014
C6    C     C_R   0.059960 0.545618 0.425413 -0.206195
C7    C     C_R   0.399507 0.096777 0.540472 0.012112
C8    C     C_R   0.505610 0.905340 0.406586 0.065715
C9    C     C_R   0.403842 0.189436 0.543834 -0.120929
C10   C     C_R   0.508489 0.812656 0.409890 -0.112964
C11   C     C_R   0.499611 0.234471 0.499941 -0.039154
C12   C     C_R   0.505759 0.767295 0.498389 -0.073780
C13   C     C_R   0.593731 0.188096 0.454323 -0.120685
C14   C     C_R   0.506310 0.815020 0.584804 -0.168878
C15   C     C_R   0.594772 0.096290 0.455396 -0.084625
C16   C     C_R   0.506006 0.906929 0.582775 -0.136094
C17   C     C_R   0.497564 0.049948 0.496653 -0.022582
C18   C     C_R   0.502304 0.952671 0.494508 -0.007979
C19   C     C_R   0.571970 0.559728 0.108731 -0.278788
C20   C     C_R   0.473911 0.422635 0.892269 -0.276952
C21   C     C_R   0.570014 0.559127 0.210153 0.102807
C22   C     C_R   0.473307 0.424415 0.790802 0.128304
C23   C     C_R   0.262153 0.500036 0.499096 0.866877
C24   C     C_R   0.737820 0.499859 0.500995 0.871751
C25   C     C_R   0.431174 0.440152 0.209087 0.107393
C26   C     C_R   0.526381 0.575407 0.791248 0.094400
C27   C     C_R   0.429373 0.439062 0.107630 -0.243867
C28   C     C_R   0.524765 0.577014 0.892646 -0.224908
C29   C     C_R   0.500318 0.499484 0.054975 0.068288
C30   C     C_R   0.499450 0.499727 0.945668 0.109337
C31   C     C_R   0.200597 0.734343 0.283158 0.027896
C32   C     C_R   0.775577 0.300405 0.748524 0.044210
C33   C     C_R   0.153791 0.684412 0.360986 -0.005754
C34   C     C_R   0.829654 0.333966 0.663505 0.008567
C35   C     C_R   0.121860 0.594694 0.346405 -0.071978
C36   C     C_R   0.879017 0.420491 0.664158 -0.069818
C37   C     C_R   0.133408 0.554995 0.254055 0.028329
C38   C     C_R   0.880650 0.471091 0.750407 0.028665
C39   C     C_R   0.178318 0.606453 0.176550 0.008895
C40   C     C_R   0.828109 0.435943 0.835133 0.030381
C41   C     C_R   0.214448 0.693736 0.193222 -0.331343
C42   C     C_R   0.778038 0.351114 0.832850 -0.355782
C43   C     C_R   0.930795 0.547096 0.428786 0.383784
C44   C     C_R   0.068821 0.452246 0.571042 0.388507
Cu1   Cu    Cu3+1 0.500000 0.499990 0.596430 0.977415
Cu2   Cu    Cu3+1 0.500000 0.500010 0.403570 0.964496
H1    H     H_    0.249013 0.732245 0.133417 0.139743
H2    H     H_    0.735960 0.325196 0.897423 0.129304
H3    H     H_    0.670658 0.061026 0.422585 0.156446
H4    H     H_    0.506446 0.942819 0.650395 0.158171
H5    H     H_    0.630960 0.606474 0.073336 0.176606
H6    H     H_    0.456222 0.360430 0.928026 0.136761
H7    H     H_    0.625502 0.605823 0.250135 0.165804
H8    H     H_    0.451997 0.364343 0.752301 0.146337
H9    H     H_    0.376659 0.393162 0.248365 0.159308
H10   H     H_    0.548703 0.635409 0.753176 0.125708
H11   H     H_    0.370553 0.392087 0.071267 0.179018
H12   H     H_    0.542843 0.639025 0.928684 0.146294
H13   H     H_    0.330583 0.227079 0.577341 0.180322
H14   H     H_    0.508876 0.775730 0.342955 0.174404
H15   H     H_    0.667633 0.222991 0.419780 0.128792
H16   H     H_    0.506137 0.781490 0.654012 0.151042
N1    N     N_R   0.500000 0.500020 0.258690 -0.192929
N2    N     N_R   0.500000 0.499980 0.741310 -0.181062
O1    O     O_R   0.500010 0.371450 0.581430 -0.582908
O2    O     O_R   0.499990 0.628550 0.418570 -0.591207
O3    O     O_R   0.500010 0.371460 0.418560 -0.600657
O4    O     O_R   0.499990 0.628540 0.581440 -0.605507
O5    O     O_R   0.319640 0.500000 0.581430 -0.520175
O6    O     O_R   0.680360 0.500000 0.418570 -0.536382
O7    O     O_R   0.319640 0.500010 0.418560 -0.599070
O8    O     O_R   0.680360 0.499990 0.581440 -0.598569
C45   C     C_2   0.234320 0.829426 0.289573 0.395349
H17   H     H_    0.263088 0.864055 0.225110 0.095971
O9    O     O_2   0.231803 0.870534 0.365145 -0.529444
C46   C     C_2   0.710784 0.214509 0.753456 0.430314
H18   H     H_    0.699325 0.182331 0.822881 0.059879
O10   O     O_2   0.663996 0.180913 0.682072 -0.515004
C47   C     C_2   0.132245 0.724304 0.457036 0.466661
H19   H     H_    0.172221 0.693481 0.521270 0.029501
O11   O     O_2   0.063300 0.788091 0.465548 -0.472108
C48   C     C_2   0.844027 0.278619 0.575751 0.429437
H20   H     H_    0.838181 0.308810 0.504653 0.022201
O12   O     O_2   0.869445 0.199822 0.581974 -0.470943
C49   C     C_2   0.097867 0.460431 0.241433 0.414783
H21   H     H_    0.029911 0.431068 0.287740 0.076126
O13   O     O_2   0.146972 0.412900 0.181975 -0.544776
C50   C     C_2   0.943010 0.558213 0.750671 0.481899
H22   H     H_    0.931750 0.602712 0.689396 0.051985
O14   O     O_2   0.013056 0.578698 0.816422 -0.471857
C51   C     C_2   0.181528 0.575678 0.074990 0.486238
H23   H     H_    0.251088 0.600924 0.027093 0.058537
O15   O     O_2   0.102675 0.527038 0.041858 -0.467175
C52   C     C_2   0.817840 0.485590 0.927209 0.477308
H24   H     H_    0.803883 0.449697 0.994119 0.068436
O16   O     O_2   0.818319 0.566365 0.929523 -0.521884
O17   O     O_3   0.858348 0.595486 0.363517 -0.723259
H25   H     H_    0.908353 0.629483 0.317944 0.341357
O18   O     O_3   0.140060 0.403317 0.636392 -0.705926
H26   H     H_    0.088872 0.360921 0.671921 0.345059
C53   C     C_2   0.290552 0.050644 0.578961 0.389547
H27   H     H_    0.277975 0.980413 0.566866 0.121515
O19   O     O_2   0.212234 0.090902 0.624027 -0.502066
C54   C     C_2   0.499804 0.950964 0.311271 0.342804
H28   H     H_    0.476050 0.020741 0.306024 0.087447
O20   O     O_2   0.520682 0.910765 0.236833 -0.553971

loop_
_geom_bond_atom_site_label_1
_geom_bond_atom_site_label_2
_ccdc_geom_bond_type
C38   C40   A    
C53   H27   S    
C27   C29   A    
C45   H17   S    
C23   O5    A    
C1    C11   S    
C2    C12   S    
C54   O20   D    
O17   H25   S    
C24   O6    A    
C39   C41   A    
C20   C30   A    
Cu1   Cu2   S    
C3    C43   A    
C37   C49   S    
C35   C37   A    
C46   O10   D    
Cu2   O2    S    
C2    O4    A    
C44   O18   S    
C31   C45   S    
C14   H16   S    
C5    C36   S    
C6    C35   S    
C7    C9    A    
C25   N1    A    
C26   N2    A    
C33   C35   A    
C7    C17   A    
C1    O1    A    
C31   C33   A    
C40   C42   A    
C53   O19   D    
Cu1   O8    S    
C45   O9    D    
C3    C24   S    
C39   C51   S    
C54   H28   S    
C49   O13   D    
C37   C39   A    
C21   N1    A    
Cu1   O5    S    
C23   O7    A    
C46   H18   S    
C22   H8    S    
C27   H11   S    
C40   C52   S    
C51   H23   S    
C47   O11   D    
C4    C23   S    
C33   C47   S    
C4    C44   A    
C2    O2    A    
C49   H21   S    
C8    C18   A    
C38   C50   S    
C9    H13   S    
C32   C34   A    
C10   H14   S    
C29   C30   S    
C51   O15   D    
C8    C54   S    
O18   H26   S    
Cu1   O4    S    
C17   C18   S    
C41   H1    S    
C42   H2    S    
C52   O16   D    
C9    C11   A    
Cu2   O7    S    
C10   C12   A    
C4    C6    A    
C5    C44   A    
C12   C14   A    
C48   O12   D    
C6    C43   A    
C13   C15   A    
Cu1   O1    S    
C14   C16   A    
C19   C29   A    
C24   O8    A    
C15   C17   A    
C50   O14   D    
C31   C41   A    
C19   C21   A    
C8    C10   A    
C43   O17   S    
C20   C22   A    
C3    C5    A    
C26   H10   S    
C32   C46   S    
C28   H12   S    
C25   C27   A    
Cu1   N2    S    
C26   C28   A    
Cu2   N1    S    
C28   C30   A    
Cu2   O3    S    
C20   H6    S    
C21   H7    S    
C11   C13   A    
C36   C38   A    
C1    O3    A    
C25   H9    S    
C34   C36   A    
C15   H3    S    
C52   H24   S    
C16   H4    S    
Cu2   O6    S    
C22   N2    A    
C47   H19   S    
C19   H5    S    
C13   H15   S    
C50   H22   S    
C16   C18   A    
C48   H20   S    
C7    C53   S    
C32   C42   A    
C34   C48   S    
