data_mof_unit_pretest_1005.cif
_audit_creation_date              2012-12-10T17:18:13-0500
_audit_creation_method            fapswitch 2.2
_symmetry_space_group_name_H-M    P1
_symmetry_Int_Tables_number       1
_space_group_crystal_system       triclinic
_cell_length_a                    10.234834
_cell_length_b                    10.474519
_cell_length_c                    14.821398
_cell_angle_alpha                 91.502438
_cell_angle_beta                  82.158484
_cell_angle_gamma                 94.876592
_cell_volume                      1568.19971405

loop_
_atom_site_label
_atom_site_type_symbol
_atom_type_description
_atom_site_fract_x
_atom_site_fract_y
_atom_site_fract_z
_atom_type_partial_charge
Br1   Br    Br    0.407982 0.227873 0.272383 -0.402134
Br2   Br    Br    0.870186 0.667644 0.578516 -0.392904
Br3   Br    Br    0.622330 0.746812 0.755962 -0.403408
Br4   Br    Br    0.595234 0.754934 0.234472 -0.353730
Br5   Br    Br    0.307908 0.277023 0.758188 -0.466030
Br6   Br    Br    0.852638 0.721790 0.085772 -0.252636
Br7   Br    Br    0.378102 0.085933 0.904117 -0.296903
Br8   Br    Br    0.869100 0.706505 0.863840 -0.297849
Br9   Br    Br    0.240134 0.151801 0.112567 -0.247329
Br10  Br    Br    0.137131 0.576399 0.350152 -0.367793
C1    C     C_R   0.553975 0.734070 0.501357 0.980153
C2    C     C_2   0.076257 0.536087 0.475002 0.296335
C3    C     C_R   0.500711 0.498276 0.673115 0.939150
C4    C     C_R   0.498921 0.498660 0.327221 0.989173
C5    C     C_R   0.449121 0.374252 0.192814 0.231490
C6    C     C_R   0.585946 0.579022 0.810021 0.256830
C7    C     C_R   0.497670 0.489400 0.231201 -0.191028
C8    C     C_R   0.504468 0.487983 0.769023 -0.205447
C9    C     C_R   0.568108 0.586903 0.178619 0.235572
C10   C     C_R   0.441734 0.379449 0.815246 0.196985
C11   C     C_R   0.601843 0.564448 0.085625 -0.048034
C12   C     C_R   0.446165 0.266376 0.511719 0.969046
C13   C     C_R   0.460864 0.362190 0.906320 -0.032909
C14   C     C_R   0.531869 0.461301 0.044119 -0.056541
C15   C     C_R   0.536264 0.459358 0.949296 -0.059890
C16   C     C_R   0.451952 0.365577 0.097497 -0.040763
C17   C     C_R   0.611929 0.558793 0.898168 -0.048137
C18   C     C_R   0.704386 0.638631 0.032554 0.266103
C19   C     C_R   0.402624 0.255444 0.957703 0.277004
C20   C     C_3   0.621007 0.138324 0.619734 -0.704619
C21   C     C_3   0.368755 0.872677 0.635937 -0.662205
C22   C     C_3   0.107230 0.513481 0.630319 -0.515313
C23   C     C_R   0.710559 0.634249 0.937711 0.275579
C24   C     C_3   0.888664 0.347118 0.401843 -0.584804
C25   C     C_R   0.384076 0.264056 0.052796 0.271349
C26   C     C_2   0.578990 0.869744 0.521247 -0.262195
C27   C     C_2   0.421214 0.132023 0.534076 -0.273389
C28   C     C_2   0.490949 0.933564 0.578409 0.148368
C29   C     C_2   0.506537 0.072075 0.577175 0.155881
C30   C     C_2   0.927957 0.531082 0.497627 0.307393
H1    H     H_    0.335530 0.078963 0.511122 0.162857
H2    H     H_    0.123891 0.595685 0.677305 0.245957
H3    H     H_    0.001846 0.476189 0.642035 0.187890
H4    H     H_    0.806018 0.272444 0.397952 0.235663
H5    H     H_    0.920239 0.384809 0.332335 0.255396
H6    H     H_    0.970679 0.301384 0.426985 0.197491
H7    H     H_    0.667598 0.920450 0.485878 0.162620
H8    H     H_    0.659578 0.071764 0.664961 0.265726
H9    H     H_    0.703636 0.169424 0.566360 0.232389
H10   H     H_    0.588332 0.221629 0.662018 0.241090
H11   H     H_    0.330916 0.940507 0.690268 0.271400
H12   H     H_    0.288858 0.848139 0.593214 0.240600
H13   H     H_    0.391282 0.785718 0.669894 0.253663
H14   H     H_    0.161218 0.433099 0.648628 0.258638
N1    N     N_2   0.842700 0.448880 0.462930 -0.097839
N2    N     N_2   0.157300 0.551120 0.537070 -0.101601
O1    O     O_R   0.431060 0.692470 0.507460 -0.601428
O2    O     O_R   0.568940 0.307530 0.492540 -0.616355
O3    O     O_R   0.651120 0.659650 0.483670 -0.547726
O4    O     O_R   0.348880 0.340350 0.516330 -0.590907
O5    O     O_R   0.389960 0.516440 0.644050 -0.613028
O6    O     O_R   0.610040 0.483560 0.355950 -0.586635
O7    O     O_R   0.610030 0.483620 0.620260 -0.589557
O8    O     O_R   0.389970 0.516380 0.379740 -0.549094
Zn1   Zn    Zn3+2 0.353060 0.521920 0.515880 1.019905
Zn2   Zn    Zn3+2 0.646940 0.478080 0.484120 1.032461

loop_
_geom_bond_atom_site_label_1
_geom_bond_atom_site_label_2
_ccdc_geom_bond_type
C12   O2    A    
C21   C28   S    
C2    C30   S    
Br1   C5    S    
O5    Zn1   S    
C15   C17   A    
C19   C25   A    
C3    O7    A    
C10   C13   A    
C21   H12   S    
C30   N1    D    
C4    O8    A    
O8    Zn1   S    
C6    C17   A    
C26   C28   D    
C20   H10   S    
O7    Zn2   S    
C24   H4    S    
C24   N1    S    
C27   C29   D    
C24   H5    S    
C1    O1    A    
C24   H6    S    
C17   C23   A    
C12   O4    A    
C12   C27   S    
C4    C7    S    
C2    N2    D    
Br10  C2    S    
C3    C8    S    
Br7   C19   S    
C13   C19   A    
C20   H8    S    
C1    C26   S    
C9    C11   A    
C11   C18   A    
O2    Zn2   S    
O4    Zn1   S    
C8    C10   A    
Br8   C23   S    
C13   C15   A    
O3    Zn2   S    
C27   H1    S    
C28   C29   S    
C1    O3    A    
C21   H13   S    
C18   C23   A    
O6    Zn2   S    
C20   H9    S    
N2    Zn1   S    
C4    O6    A    
Br2   C30   S    
C16   C25   A    
N1    Zn2   S    
C3    O5    A    
C14   C15   A    
C26   H7    S    
Br9   C25   S    
C11   C14   A    
C22   H14   S    
C20   C29   S    
Br5   C10   S    
C22   H3    S    
C5    C16   A    
C22   H2    S    
C7    C9    A    
C5    C7    A    
Br4   C9    S    
C22   N2    S    
C6    C8    A    
Br6   C18   S    
Br3   C6    S    
C14   C16   A    
C21   H11   S    
O1    Zn1   S    
