data_mof_unit_pretest_1959.cif
_audit_creation_date              2012-12-10T18:57:57-0500
_audit_creation_method            fapswitch 2.2
_symmetry_space_group_name_H-M    P1
_symmetry_Int_Tables_number       1
_space_group_crystal_system       triclinic
_cell_length_a                    36.991457
_cell_length_b                    30.276455
_cell_length_c                    21.489653
_cell_angle_alpha                 90.002275
_cell_angle_beta                  54.940057
_cell_angle_gamma                 90.015024
_cell_volume                      19700.7093292

loop_
_atom_site_label
_atom_site_type_symbol
_atom_type_description
_atom_site_fract_x
_atom_site_fract_y
_atom_site_fract_z
_atom_type_partial_charge
C1    C     C_R   0.913739 0.499923 0.585282 0.893921
C2    C     C_R   0.203961 0.467674 0.263594 -0.199942
C3    C     C_R   0.001058 0.842525 0.942393 -0.214176
C4    C     C_R   0.500015 0.365653 0.999982 -0.046773
C5    C     C_R   0.000015 0.865653 0.999982 -0.046776
C6    C     C_R   0.500039 0.273900 0.999958 0.287225
C7    C     C_R   0.000038 0.773900 0.999958 0.287222
C8    C     C_R   0.034918 0.296876 0.993314 -0.250829
C9    C     C_R   0.965053 0.296843 0.006895 -0.250902
C10   C     C_R   0.534900 0.796879 0.993383 -0.250823
C11   C     C_R   0.465073 0.796844 0.006829 -0.250891
C12   C     C_R   0.035101 0.342648 0.993017 0.580885
C13   C     C_R   0.295680 0.967627 0.672681 -0.195312
C14   C     C_R   0.964856 0.342613 0.007203 0.580866
C15   C     C_R   0.535081 0.842651 0.993087 0.580847
C16   C     C_R   0.464876 0.842615 0.007136 0.580828
C17   C     C_R   0.999983 0.365758 0.000083 -0.329886
C18   C     C_R   0.499983 0.865760 0.000085 -0.329847
C19   C     C_3   0.980163 0.542974 0.231862 -0.450790
C20   C     C_3   0.018792 0.543328 0.769264 -0.451653
C21   C     C_3   0.480054 0.042937 0.231979 -0.450699
C22   C     C_3   0.518863 0.043305 0.769187 -0.451594
C23   C     C_R   0.999994 0.273961 0.000085 -0.088639
C24   C     C_R   0.703959 0.967675 0.263583 -0.199957
C25   C     C_R   0.499995 0.773963 0.000086 -0.088614
C26   C     C_R   0.492758 0.703100 0.951608 -0.160311
C27   C     C_R   0.507267 0.703084 0.048459 -0.160885
C28   C     C_R   0.992728 0.203098 0.951643 -0.160310
C29   C     C_R   0.007293 0.203083 0.048425 -0.160883
C30   C     C_R   0.492896 0.657333 0.951381 -0.191210
C31   C     C_R   0.507131 0.657317 0.048642 -0.193186
C32   C     C_R   0.992867 0.157331 0.951416 -0.191222
C33   C     C_R   0.007158 0.157317 0.048609 -0.193180
C34   C     C_R   0.500011 0.634238 0.000004 -0.037221
C35   C     C_R   0.841510 0.466333 0.625870 -0.022506
C36   C     C_R   0.000010 0.134237 0.000005 -0.037212
C37   C     C_R   0.500009 0.726013 0.000048 0.184425
C38   C     C_R   0.000008 0.226011 0.000048 0.184423
C39   C     C_3   0.046791 0.497559 0.242488 0.297154
C40   C     C_3   0.953198 0.496436 0.757555 0.302410
C41   C     C_3   0.546795 0.997703 0.242488 0.297087
C42   C     C_3   0.453195 0.996528 0.757554 0.302341
C43   C     C_3   0.972884 0.458699 0.311719 0.481948
C44   C     C_3   0.027912 0.459222 0.687396 0.482339
C45   C     C_3   0.472999 0.958630 0.311594 0.482077
C46   C     C_R   0.158119 0.466103 0.309242 -0.025984
C47   C     C_3   0.527840 0.959175 0.687473 0.482419
C48   C     C_3   0.997999 0.499933 0.312550 -0.112197
C49   C     C_3   0.001933 0.499922 0.687523 -0.119018
C50   C     C_3   0.497996 0.999934 0.312554 -0.112188
C51   C     C_3   0.501937 0.999922 0.687518 -0.118986
C52   C     C_3   0.000531 0.498828 0.189086 -0.054067
C53   C     C_3   0.999464 0.498708 0.810927 -0.054094
C54   C     C_3   0.500534 0.998842 0.189085 -0.054126
C55   C     C_3   0.499463 0.998717 0.810927 -0.054124
C56   C     C_3   0.048485 0.494384 0.168959 -0.264060
C57   C     C_R   0.341507 0.966366 0.625825 -0.022695
C58   C     C_3   0.951614 0.493185 0.830987 -0.266720
C59   C     C_3   0.548498 0.994516 0.168952 -0.264091
C60   C     C_3   0.451605 0.993270 0.830991 -0.266740
C61   C     C_1   0.070399 0.453087 0.126874 0.356414
C62   C     C_1   0.930657 0.451403 0.872165 0.355804
C63   C     C_1   0.570509 0.953264 0.126795 0.356609
C64   C     C_1   0.430584 0.951515 0.872217 0.355923
C65   C     C_1   0.862433 0.431112 0.570668 0.256897
C66   C     C_1   0.136789 0.430156 0.297833 0.264994
C67   C     C_1   0.362430 0.931178 0.570556 0.256662
C68   C     C_R   0.658117 0.966107 0.309229 -0.025880
C69   C     C_1   0.636784 0.930170 0.297806 0.265232
C70   C     C_1   0.931245 0.550244 0.372723 0.337957
C71   C     C_1   0.067642 0.551671 0.628676 0.340430
C72   C     C_1   0.431098 0.050048 0.372868 0.337674
C73   C     C_1   0.567743 0.051545 0.628580 0.340222
C74   C     C_R   0.865746 0.499865 0.632314 -0.057304
C75   C     C_R   0.134266 0.499980 0.363113 -0.066998
C76   C     C_R   0.365746 0.999865 0.632332 -0.057268
C77   C     C_R   0.086263 0.499936 0.412678 0.897972
C78   C     C_R   0.634265 0.999980 0.363110 -0.066956
C79   C     C_R   0.843650 0.534116 0.685091 -0.174594
C80   C     C_R   0.156777 0.534903 0.369664 -0.167925
C81   C     C_R   0.343654 0.034083 0.685185 -0.174416
C82   C     C_R   0.656778 0.034898 0.369670 -0.167996
C83   C     C_R   0.797923 0.534932 0.731819 -0.162487
C84   C     C_R   0.202497 0.536000 0.324172 -0.160899
C85   C     C_R   0.297927 0.034900 0.731920 -0.162496
C86   C     C_R   0.702498 0.035993 0.324179 -0.160866
C87   C     C_R   0.773941 0.501733 0.725562 0.092876
C88   C     C_R   0.413740 0.999923 0.585287 0.893906
C89   C     C_R   0.226089 0.502420 0.271139 0.090824
C90   C     C_R   0.273942 0.001737 0.725588 0.092823
C91   C     C_R   0.726088 0.002415 0.271138 0.090821
C92   C     C_R   0.703484 0.507543 0.852533 -0.163097
C93   C     C_R   0.296967 0.497183 0.145127 -0.167483
C94   C     C_R   0.203484 0.007436 0.852574 -0.163095
C95   C     C_R   0.796967 0.997189 0.145124 -0.167463
C96   C     C_R   0.657682 0.506670 0.898635 -0.182237
C97   C     C_R   0.342699 0.496334 0.100045 -0.180050
C98   C     C_R   0.157683 0.006561 0.898667 -0.182225
C99   C     C_R   0.586263 0.999936 0.412677 0.898081
C100  C     C_R   0.842699 0.996342 0.100042 -0.180057
C101  C     C_R   0.634233 0.501129 0.866080 -0.037775
C102  C     C_R   0.365783 0.501350 0.133339 -0.037513
C103  C     C_R   0.134235 0.001137 0.866085 -0.037803
C104  C     C_R   0.865783 0.001347 0.133339 -0.037517
C105  C     C_R   0.997832 0.499986 0.380901 0.949310
C106  C     C_R   0.002103 0.499994 0.619169 0.959025
C107  C     C_R   0.497827 0.999986 0.380907 0.949448
C108  C     C_R   0.502109 0.999994 0.619163 0.959107
C109  C     C_R   0.656966 0.496767 0.787086 -0.176599
C110  C     C_3   0.971315 0.460313 0.241920 -0.445686
C111  C     C_R   0.342700 0.507741 0.212024 -0.179161
C112  C     C_R   0.156972 0.996894 0.787072 -0.176626
C113  C     C_R   0.842699 0.007725 0.212028 -0.179156
C114  C     C_R   0.702666 0.497454 0.741191 -0.163664
C115  C     C_R   0.296933 0.508811 0.257025 -0.159695
C116  C     C_R   0.202672 0.997581 0.741185 -0.163685
C117  C     C_R   0.796932 0.008793 0.257028 -0.159707
C118  C     C_R   0.725997 0.502627 0.773825 0.114788
C119  C     C_R   0.274031 0.503242 0.223674 0.114887
C120  C     C_R   0.226000 0.002636 0.773846 0.114756
C121  C     C_3   0.029558 0.460899 0.757119 -0.445602
C122  C     C_R   0.774031 0.003235 0.223674 0.114883
C123  C     C_R   0.000006 0.586195 0.999994 1.031057
C124  C     C_R   0.500006 0.086195 0.999994 1.031011
C125  C     C_R   0.000238 0.499129 0.121140 0.879667
C126  C     C_R   0.999764 0.499009 0.878866 0.879784
C127  C     C_R   0.500238 0.999142 0.121140 0.879725
C128  C     C_R   0.499764 0.999018 0.878865 0.879826
C129  C     C_R   0.999994 0.413699 0.000025 0.948950
C130  C     C_R   0.499994 0.913700 0.000026 0.949091
C131  C     C_R   0.500002 0.413702 0.999996 0.888713
C132  C     C_3   0.471415 0.960253 0.241812 -0.445807
C133  C     C_R   0.000002 0.913702 0.999996 0.888724
C134  C     C_R   0.586232 0.500229 0.913958 0.871283
C135  C     C_R   0.413773 0.500260 0.085991 0.871200
C136  C     C_R   0.086233 0.000231 0.913958 0.871288
C137  C     C_R   0.913773 0.000260 0.085991 0.871199
C138  C     C_R   0.500004 0.586242 0.999999 0.871099
C139  C     C_R   0.000003 0.086241 0.999999 0.871101
C140  C     C_R   0.034766 0.703081 0.937184 0.513876
C141  C     C_R   0.965293 0.703075 0.062755 0.513878
C142  C     C_R   0.534767 0.203081 0.937186 0.513872
C143  C     C_3   0.529496 0.960858 0.757186 -0.445689
C144  C     C_R   0.465291 0.203075 0.062753 0.513876
C145  C     C_3   0.977291 0.543437 0.306310 -0.263556
C146  C     C_3   0.021711 0.543864 0.694781 -0.261328
C147  C     C_3   0.477167 0.043382 0.306443 -0.263659
C148  C     C_3   0.521794 0.043829 0.694692 -0.261410
C149  C     C_R   0.034834 0.657277 0.937152 0.496169
C150  C     C_R   0.965210 0.657271 0.062806 0.496214
C151  C     C_R   0.534835 0.157277 0.937154 0.496167
C152  C     C_R   0.465209 0.157271 0.062804 0.496204
C153  C     C_R   0.000018 0.634163 0.999984 -0.530948
C154  C     C_R   0.795683 0.467591 0.672725 -0.195363
C155  C     C_R   0.500018 0.134163 0.999984 -0.530929
C156  C     C_R   0.000033 0.725988 0.999965 -0.414575
C157  C     C_R   0.500033 0.225988 0.999965 -0.414572
C158  C     C_R   0.498975 0.296752 0.057514 -0.071947
C159  C     C_R   0.501095 0.296749 0.942409 -0.072939
C160  C     C_R   0.998976 0.796751 0.057513 -0.071945
C161  C     C_R   0.001093 0.796749 0.942411 -0.072936
C162  C     C_R   0.498987 0.342527 0.057556 -0.211732
C163  C     C_R   0.501059 0.342526 0.942391 -0.214188
C164  C     C_R   0.998988 0.842527 0.057555 -0.211739
F1    F     F_    0.068490 0.462419 0.249377 -0.670486
F2    F     F_    0.931620 0.635620 0.124760 -0.592560
F3    F     F_    0.568418 0.135631 0.875211 -0.592846
F4    F     F_    0.431618 0.135621 0.124757 -0.592571
F5    F     F_    0.069077 0.364189 0.987360 -0.637350
F6    F     F_    0.930853 0.364117 0.012933 -0.637248
F7    F     F_    0.569036 0.864194 0.987503 -0.637377
F8    F     F_    0.430893 0.864121 0.012797 -0.637281
F9    F     F_    0.930377 0.456380 0.377529 -0.668742
F10   F     F_    0.070405 0.457694 0.621362 -0.660397
F11   F     F_    0.430502 0.956183 0.377401 -0.668664
F12   F     F_    0.932196 0.460853 0.749923 -0.660586
F13   F     F_    0.570329 0.957561 0.621438 -0.660344
F14   F     F_    0.568600 0.962637 0.249293 -0.670619
F15   F     F_    0.432125 0.960991 0.749976 -0.660653
F16   F     F_    0.068821 0.725144 0.876533 -0.603985
F17   F     F_    0.931243 0.725131 0.123396 -0.603342
F18   F     F_    0.568823 0.225144 0.876536 -0.603991
F19   F     F_    0.431241 0.225131 0.123393 -0.603348
F20   F     F_    0.068416 0.635630 0.875208 -0.592839
H1    H     H_    0.996593 0.572354 0.304127 0.150870
H2    H     H_    0.222545 0.441632 0.222479 0.142583
H3    H     H_    0.276808 0.941910 0.668319 0.143036
H4    H     H_    0.722542 0.941636 0.222462 0.142581
H5    H     H_    0.861803 0.559995 0.690802 0.156706
H6    H     H_    0.138977 0.561128 0.410663 0.168259
H7    H     H_    0.361811 0.059934 0.690946 0.156671
H8    H     H_    0.638978 0.061120 0.410674 0.168226
H9    H     H_    0.781239 0.561629 0.772275 0.140331
H10   H     H_    0.219482 0.563149 0.329892 0.143867
H11   H     H_    0.281244 0.061569 0.772437 0.140350
H12   H     H_    0.001833 0.572368 0.697506 0.148282
H13   H     H_    0.719484 0.063137 0.329905 0.143867
H14   H     H_    0.721356 0.511257 0.878225 0.142130
H15   H     H_    0.279447 0.493178 0.118848 0.142050
H16   H     H_    0.221355 0.011056 0.878282 0.142181
H17   H     H_    0.779448 0.993194 0.118843 0.142071
H18   H     H_    0.640723 0.510280 0.959484 0.162035
H19   H     H_    0.359885 0.491467 0.039385 0.162800
H20   H     H_    0.140724 0.010074 0.959532 0.162065
H21   H     H_    0.859885 0.991486 0.039380 0.162804
H22   H     H_    0.639532 0.492578 0.760713 0.164928
H23   H     H_    0.496379 0.072354 0.304362 0.150943
H24   H     H_    0.359922 0.511877 0.238784 0.164060
H25   H     H_    0.139540 0.992801 0.760677 0.164941
H26   H     H_    0.859920 0.011852 0.238789 0.164063
H27   H     H_    0.719858 0.494031 0.680233 0.145520
H28   H     H_    0.279377 0.513160 0.317887 0.146464
H29   H     H_    0.219868 0.994248 0.680212 0.145531
H30   H     H_    0.779376 0.013132 0.317892 0.146461
H31   H     H_    0.498425 0.279114 0.101924 0.159472
H32   H     H_    0.501649 0.279110 0.897994 0.158828
H33   H     H_    0.998428 0.779114 0.101922 0.159475
H34   H     H_    0.501974 0.072371 0.697351 0.148336
H35   H     H_    0.001647 0.779110 0.897996 0.158831
H36   H     H_    0.498206 0.359708 0.102518 0.169776
H37   H     H_    0.501831 0.359705 0.897439 0.168899
H38   H     H_    0.998209 0.859708 0.102516 0.169774
H39   H     H_    0.001828 0.859705 0.897442 0.168903
H40   H     H_    0.062164 0.279269 0.987652 0.182231
H41   H     H_    0.937809 0.279208 0.012568 0.182497
H42   H     H_    0.562131 0.779272 0.987773 0.182221
H43   H     H_    0.437844 0.779211 0.012449 0.182488
H44   H     H_    0.487447 0.720647 0.913561 0.146245
H45   H     H_    0.982763 0.428239 0.211104 0.141306
H46   H     H_    0.512574 0.720618 0.086526 0.145835
H47   H     H_    0.987396 0.220646 0.913624 0.146250
H48   H     H_    0.012622 0.220618 0.086464 0.145842
H49   H     H_    0.487262 0.640113 0.913491 0.164999
H50   H     H_    0.512765 0.640087 0.086519 0.164298
H51   H     H_    0.987212 0.140111 0.913553 0.164991
H52   H     H_    0.012813 0.140086 0.086458 0.164294
H53   H     H_    0.947000 0.547997 0.243233 0.227881
H54   H     H_    0.051796 0.549153 0.758151 0.227702
H55   H     H_    0.446882 0.047885 0.243352 0.227896
H56   H     H_    0.018911 0.428561 0.787198 0.140899
H57   H     H_    0.551874 0.049083 0.758074 0.227714
H58   H     H_    0.001130 0.571024 0.195221 0.173542
H59   H     H_    0.997147 0.570858 0.806542 0.172504
H60   H     H_    0.500956 0.071040 0.195418 0.173571
H61   H     H_    0.497259 0.070870 0.806413 0.172518
H62   H     H_    0.064283 0.528187 0.239976 0.105521
H63   H     H_    0.935067 0.526697 0.760767 0.101307
H64   H     H_    0.564194 0.028387 0.240055 0.105695
H65   H     H_    0.435123 0.026827 0.760715 0.101387
H66   H     H_    0.069006 0.522277 0.131209 0.130565
H67   H     H_    0.482936 0.928210 0.210908 0.141378
H68   H     H_    0.930474 0.520594 0.869371 0.131263
H69   H     H_    0.568956 0.022453 0.131253 0.130511
H70   H     H_    0.430505 0.020708 0.869342 0.131220
H71   H     H_    0.990383 0.427984 0.308639 0.155034
H72   H     H_    0.010964 0.428165 0.690036 0.153231
H73   H     H_    0.490590 0.927965 0.308406 0.154993
H74   H     H_    0.510831 0.928148 0.690186 0.153217
H75   H     H_    0.936562 0.464966 0.260682 0.241007
H76   H     H_    0.064221 0.466407 0.738303 0.242058
H77   H     H_    0.436649 0.964826 0.260596 0.240966
H78   H     H_    0.518801 0.928539 0.787322 0.140949
H79   H     H_    0.564168 0.966315 0.738354 0.242032
H80   H     H_    0.776815 0.441843 0.668418 0.143002
N1    N     N_1   0.087490 0.420835 0.094009 -0.112023
N2    N     N_1   0.103570 0.557793 0.576927 -0.184147
N3    N     N_1   0.395075 0.055254 0.424927 -0.170077
N4    N     N_1   0.603685 0.057595 0.576826 -0.184169
N5    N     N_1   0.914309 0.418768 0.904328 -0.108707
N6    N     N_1   0.587676 0.921048 0.093875 -0.112151
N7    N     N_1   0.414186 0.918903 0.904418 -0.108743
N8    N     N_1   0.879107 0.402847 0.526574 -0.122215
N9    N     N_1   0.119800 0.401311 0.288618 -0.120946
N10   N     N_1   0.379102 0.902938 0.526410 -0.121733
N11   N     N_1   0.619792 0.901334 0.288578 -0.121137
N12   N     N_1   0.895241 0.555559 0.424773 -0.169930
O1    O     O_R   0.934520 0.536930 0.565470 -0.631972
O2    O     O_R   0.434550 0.499990 0.013170 -0.625282
O3    O     O_R   0.065450 0.999990 0.986830 -0.624390
O4    O     O_R   0.934550 0.999990 0.013170 -0.625284
O5    O     O_R   0.500010 0.565460 0.947720 -0.623281
O6    O     O_R   0.499990 0.565460 0.052280 -0.625448
O7    O     O_R   0.000010 0.065460 0.947720 -0.623290
O8    O     O_R   0.999990 0.065460 0.052280 -0.625435
O9    O     O_R   0.934480 0.463010 0.565510 -0.602210
O10   O     O_R   0.065520 0.463010 0.434490 -0.602724
O11   O     O_R   0.434480 0.963010 0.565510 -0.602182
O12   O     O_R   0.065480 0.536930 0.434530 -0.633489
O13   O     O_R   0.565520 0.963010 0.434490 -0.602759
O14   O     O_R   0.999990 0.536930 0.407410 -0.658715
O15   O     O_R   0.000010 0.536930 0.592590 -0.661796
O16   O     O_R   0.499990 0.036930 0.407410 -0.658725
O17   O     O_R   0.500010 0.036930 0.592590 -0.661820
O18   O     O_R   0.999940 0.463010 0.407450 -0.576668
O19   O     O_R   0.000060 0.463010 0.592550 -0.570710
O20   O     O_R   0.499940 0.963010 0.407450 -0.576713
O21   O     O_R   0.500060 0.963010 0.592550 -0.570728
O22   O     O_R   0.963000 0.565420 0.036990 -0.573089
O23   O     O_R   0.434520 0.036930 0.565470 -0.631986
O24   O     O_R   0.037000 0.565420 0.963010 -0.572930
O25   O     O_R   0.463000 0.065420 0.036990 -0.573104
O26   O     O_R   0.537000 0.065420 0.963010 -0.572945
O27   O     O_R   0.963020 0.499940 0.129580 -0.621213
O28   O     O_R   0.036980 0.499940 0.870420 -0.620951
O29   O     O_R   0.463020 0.999940 0.129580 -0.621231
O30   O     O_R   0.536980 0.999940 0.870420 -0.620964
O31   O     O_R   0.036940 0.500000 0.055660 -0.636049
O32   O     O_R   0.963060 0.500000 0.944340 -0.636209
O33   O     O_R   0.536940 0.000000 0.055660 -0.636036
O34   O     O_R   0.565480 0.036930 0.434530 -0.633477
O35   O     O_R   0.463060 1.000000 0.944340 -0.636200
O36   O     O_R   0.963020 0.434470 0.036970 -0.574323
O37   O     O_R   0.036980 0.434470 0.963030 -0.574082
O38   O     O_R   0.463020 0.934470 0.036970 -0.574350
O39   O     O_R   0.536980 0.934470 0.963030 -0.574106
O40   O     O_R   0.499930 0.434510 0.947790 -0.624194
O41   O     O_R   0.500070 0.434510 0.052210 -0.621903
O42   O     O_R   0.999930 0.934510 0.947790 -0.624179
O43   O     O_R   0.000070 0.934510 0.052210 -0.621912
O44   O     O_R   0.565440 0.499980 0.882290 -0.623265
O45   O     O_R   0.434560 0.499980 0.117710 -0.622194
O46   O     O_R   0.065440 0.999980 0.882290 -0.623263
O47   O     O_R   0.934560 0.999980 0.117710 -0.622194
O48   O     O_R   0.565450 0.499990 0.986830 -0.624373
Zn1   Zn    Zn3+2 0.000000 0.549330 0.500000 0.964577
Zn2   Zn    Zn3+2 0.500030 0.499980 0.069780 0.968913
Zn3   Zn    Zn3+2 0.999970 0.999980 0.930220 0.967835
Zn4   Zn    Zn3+2 0.000030 0.999980 0.069780 0.968906
Zn5   Zn    Zn3+2 0.500000 0.049330 0.500000 0.964567
Zn6   Zn    Zn3+2 0.000000 0.450610 0.500000 1.076831
Zn7   Zn    Zn3+2 0.500000 0.950610 0.500000 1.076809
Zn8   Zn    Zn3+2 0.950610 0.499940 0.049380 1.051885
Zn9   Zn    Zn3+2 0.049390 0.499940 0.950620 1.052673
Zn10  Zn    Zn3+2 0.450610 0.999940 0.049380 1.051859
Zn11  Zn    Zn3+2 0.549390 0.999940 0.950620 1.052667
Zn12  Zn    Zn3+2 0.499970 0.499980 0.930220 0.967836

loop_
_geom_bond_atom_site_label_1
_geom_bond_atom_site_label_2
_ccdc_geom_bond_type
C50   C147  S    
O41   Zn2   S    
C137  O4    A    
O36   Zn8   S    
O5    Zn12  S    
C35   C154  A    
C14   F6    S    
C115  H28   S    
C57   C76   A    
C63   N6    T    
C113  H26   S    
C123  C153  S    
C29   C33   A    
C44   C121  S    
C100  C104  A    
C8    C23   A    
C149  C153  A    
C91   C122  S    
C43   C110  S    
C151  C155  A    
C102  C111  A    
O8    Zn4   S    
C129  O36   A    
C163  H37   S    
C127  O33   A    
C31   H50   S    
C128  O30   A    
C73   C148  S    
C27   C31   A    
C28   C32   A    
C136  O3    A    
C70   N12   T    
C105  O18   A    
C87   C118  S    
O39   Zn11  S    
C107  O20   A    
C85   H11   S    
C103  C112  A    
C142  C151  A    
C39   F1    S    
O31   Zn9   S    
C1    O1    A    
C78   C82   A    
C48   C105  S    
C52   C110  S    
C108  O17   A    
C60   H70   S    
C88   O23   A    
C49   C106  S    
C33   H52   S    
C140  C156  A    
C95   C122  A    
C142  F18   S    
C22   C148  S    
C74   C79   A    
C161  H35   S    
C50   C107  S    
O6    Zn2   S    
C20   C146  S    
C18   C130  S    
C23   C38   S    
O17   Zn5   S    
C29   H48   S    
C53   C58   S    
C141  C156  A    
C96   H18   S    
O12   Zn1   S    
C54   C132  S    
C59   C63   S    
C60   C64   S    
C112  H25   S    
O2    Zn12  S    
C43   F9    S    
C45   C50   S    
C20   H54   S    
C138  O5    A    
C140  F16   S    
C49   C146  S    
C141  F17   S    
C30   H49   S    
O38   Zn10  S    
C121  H76   S    
C45   C132  S    
C79   H5    S    
C78   C99   S    
C35   C65   S    
C66   N9    T    
C22   H57   S    
C98   C103  A    
C20   H59   S    
C13   H3    S    
C47   C143  S    
C59   H69   S    
C135  O2    A    
C103  C136  S    
C106  O19   A    
C33   C36   A    
C108  O21   A    
C5    C133  S    
C7    C161  A    
C1    C74   S    
C32   C36   A    
O33   Zn11  S    
C44   F10   S    
O27   Zn8   S    
C45   F11   S    
O26   Zn11  S    
C151  F3    S    
C13   C57   A    
C11   C25   A    
C47   H74   S    
C40   C49   S    
C150  F2    S    
C92   C96   A    
O29   Zn10  S    
O19   Zn6   S    
C92   C118  A    
C102  C135  S    
C81   H7    S    
C124  O25   A    
C94   C120  A    
C7    C156  S    
C160  H33   S    
C42   H65   S    
C84   H10   S    
C29   C38   A    
C149  F20   S    
C131  O40   A    
C14   C17   A    
C92   H14   S    
C46   C75   A    
C6    C158  A    
C141  C150  A    
C54   C59   S    
C69   N11   T    
C162  H36   S    
C4    C163  A    
C55   C143  S    
C30   C34   A    
C133  O43   A    
C40   F12   S    
C24   C68   A    
C9    C23   A    
C62   N5    T    
C34   C138  S    
C116  C120  A    
C145  H1    S    
C90   C120  S    
C114  H27   S    
C83   H9    S    
C117  C122  A    
C73   N4    T    
C39   H62   S    
C8    C12   A    
C48   C145  S    
C31   C34   A    
C143  H78   S    
C75   C77   S    
C109  C114  A    
C113  C117  A    
C10   C25   A    
C21   H55   S    
C26   C30   A    
C71   N2    T    
C115  C119  A    
C41   H64   S    
C93   C97   A    
C112  C116  A    
C40   H63   S    
C107  O16   A    
C3    H39   S    
O3    Zn4   S    
C116  H29   S    
C100  H21   S    
C137  O47   A    
C12   F5    S    
C129  O37   A    
C95   H17   S    
C72   C147  S    
C67   N10   T    
C144  C152  A    
C51   C148  S    
C36   C139  S    
C154  H80   S    
C104  C113  A    
C125  O27   A    
C126  O28   A    
O48   Zn2   S    
C124  C155  S    
C99   O34   A    
C9    H41   S    
C93   C119  A    
C144  C157  A    
C96   C101  A    
C148  H34   S    
C140  C149  A    
C81   C85   A    
C132  H67   S    
C58   C62   S    
C83   C87   A    
C130  O38   A    
C35   C74   A    
C13   C90   A    
C15   C18   A    
C80   C84   A    
O30   Zn11  S    
C1    O9    A    
C128  O35   A    
C139  O8    A    
C160  C164  A    
O24   Zn9   S    
C93   H15   S    
C46   C66   S    
C86   C91   A    
C19   H53   S    
C21   C54   S    
O10   Zn6   S    
C94   C98   A    
C101  C109  A    
O45   Zn2   S    
C104  C137  S    
C65   N8    T    
C19   C52   S    
C89   C119  S    
C26   H44   S    
C68   C69   S    
C150  C153  A    
C56   H66   S    
C12   C17   A    
O25   Zn10  S    
C97   C102  A    
C8    H40   S    
C144  F19   S    
C55   C60   S    
C97   H19   S    
C152  F4    S    
C68   C78   A    
C40   C58   S    
C88   O11   A    
C134  O44   A    
O35   Zn10  S    
C95   C100  A    
C47   C51   S    
C7    C160  A    
C82   C86   A    
O1    Zn1   S    
O28   Zn9   S    
C125  O31   A    
C2    C89   A    
C9    C14   A    
C126  O32   A    
C110  H45   S    
C11   C16   A    
C27   H46   S    
C152  C155  A    
C42   F15   S    
C138  O6    A    
C87   C154  A    
C15   F7    S    
O14   Zn1   S    
C131  O41   A    
C4    C162  A    
C143  H79   S    
C142  C157  A    
C41   C50   S    
O7    Zn3   S    
O18   Zn6   S    
C82   H8    S    
C44   H72   S    
C20   C53   S    
C3    C5    A    
C26   C37   A    
C45   H73   S    
C22   C55   S    
O9    Zn6   S    
C135  O45   A    
C121  H56   S    
C24   H4    S    
C110  H75   S    
C53   C121  S    
C79   C83   A    
O42   Zn3   S    
C94   H16   S    
C117  H30   S    
C124  O26   A    
O16   Zn5   S    
C3    C161  A    
C86   H13   S    
O15   Zn1   S    
C56   C61   S    
C39   C48   S    
C32   H51   S    
C44   C49   S    
O23   Zn5   S    
C58   H68   S    
C123  O24   A    
C77   O10   A    
C6    C159  A    
C101  C134  S    
C2    C46   A    
C19   C145  S    
C21   C147  S    
C98   H20   S    
C133  O42   A    
C10   C15   A    
C127  O29   A    
O47   Zn4   S    
C105  O14   A    
C19   H58   S    
C25   C37   S    
O13   Zn7   S    
C39   C56   S    
C51   C108  S    
C136  O46   A    
C43   C48   S    
C76   C88   S    
C42   C51   S    
O44   Zn12  S    
C57   C67   S    
C4    C131  S    
C17   C129  S    
C5    C164  A    
O37   Zn9   S    
C41   F14   S    
C41   C59   S    
C42   C60   S    
C158  H31   S    
C72   N3    T    
C2    H2    S    
C64   N7    T    
O21   Zn7   S    
O34   Zn5   S    
C16   F8    S    
O11   Zn7   S    
O46   Zn3   S    
C28   C38   A    
C134  O48   A    
C70   C145  S    
C55   C128  S    
C147  H23   S    
C28   H47   S    
C61   N1    T    
C114  C118  A    
C21   H60   S    
C11   H43   S    
C159  C163  A    
C85   C90   A    
C123  O22   A    
C84   C89   A    
C77   O12   A    
C146  H12   S    
C24   C91   A    
C6    C157  S    
C75   C80   A    
C43   H71   S    
C130  O39   A    
O40   Zn12  S    
C159  H32   S    
C80   H6    S    
O32   Zn8   S    
C76   C81   A    
C22   H61   S    
C52   C125  S    
C54   C127  S    
O22   Zn8   S    
O20   Zn7   S    
C139  O7    A    
C47   F13   S    
C106  O15   A    
C27   C37   A    
C109  H22   S    
C53   C126  S    
C158  C162  A    
C164  H38   S    
C71   C146  S    
O43   Zn4   S    
O4    Zn3   S    
C16   C18   A    
C10   H42   S    
C111  C115  A    
C99   O13   A    
C111  H24   S    
C52   C56   S    
C132  H77   S    
