data_mof_unit_pretest_569.cif
_audit_creation_date              2013-03-05T16:08:13-0500
_audit_creation_method            fapswitch 2.2
_symmetry_space_group_name_H-M    P1
_symmetry_Int_Tables_number       1
_space_group_crystal_system       triclinic
_cell_length_a                    6.954302
_cell_length_b                    14.51788
_cell_length_c                    16.16696
_cell_angle_alpha                 90.134236
_cell_angle_beta                  90.604216
_cell_angle_gamma                 90.06773
_cell_volume                      1632.14769257

loop_
_atom_site_label
_atom_site_type_symbol
_atom_site_description
_atom_site_fract_x
_atom_site_fract_y
_atom_site_fract_z
_atom_type_partial_charge
O1    O     O_R   0.505720 0.583900 0.413310 -0.595529
O2    O     O_R   0.175940 0.594920 0.586080 -0.584629
O3    O     O_R   0.005640 0.416100 0.586690 -0.615318
C1    C     C_R   0.345521 0.617293 0.614418 0.987378
O4    O     O_R   0.176000 0.594930 0.413930 -0.602494
O5    O     O_R   0.005700 0.416110 0.413310 -0.597568
C2    C     C_R   0.344353 0.616909 0.385041 0.932343
O6    O     O_R   0.505660 0.583890 0.586690 -0.589583
O7    O     O_3   0.339200 0.441330 0.500000 -0.283601
V1    V     V_3+5 0.064350 0.510880 0.500000 1.166119
O8    O     O_R   0.675980 0.405080 0.413920 -0.601950
C3    C     C_R   0.844698 0.381881 0.386019 0.927004
O9    O     O_R   0.675920 0.405070 0.586070 -0.581345
C4    C     C_R   0.847165 0.382729 0.614588 1.009309
V2    V     V_3+5 0.564340 0.489120 0.500000 1.170613
O10   O     O_3   0.839360 0.558670 0.500000 -0.277147
H1    H     H_    0.494659 0.100335 0.537666 0.120054
C5    C     C_R   0.128238 0.398409 0.755067 -0.069490
C6    C     C_R   0.229945 0.418182 0.827263 -0.090062
C7    C     C_R   0.181925 0.374776 0.900064 -0.141807
C8    C     C_R   0.040751 0.305879 0.900257 0.330320
C9    C     C_R   0.965667 0.271961 0.823602 -0.050194
C10   C     C_R   0.987201 0.327627 0.752043 0.116160
C11   C     C_R   0.870952 0.185507 0.816797 -0.287977
C12   C     C_R   0.769226 0.163253 0.742362 0.136156
C13   C     C_R   0.762699 0.227477 0.675691 0.111080
C14   C     C_R   0.866173 0.311770 0.681398 -0.281106
C15   C     C_R   0.674835 0.077229 0.731977 -0.106785
C16   C     C_R   0.575416 0.055657 0.659339 -0.064471
C17   C     C_R   0.569339 0.118087 0.594614 -0.089580
C18   C     C_R   0.663242 0.202459 0.601957 -0.184475
H2    H     H_    0.166611 0.440349 0.703384 0.169247
H3    H     H_    0.247312 0.399102 0.957133 0.190775
H4    H     H_    0.677179 0.024589 0.778841 0.138586
H5    H     H_    0.505054 0.989434 0.652879 0.136201
H6    H     H_    0.661977 0.245792 0.547762 0.117752
C19   C     C_R   0.726555 0.179639 0.243000 0.126721
C20   C     C_R   0.885524 0.176206 0.190634 -0.201570
C21   C     C_R   0.042361 0.233038 0.211992 -0.061097
H7    H     H_    0.170213 0.231492 0.175256 0.174812
C22   C     C_R   0.028711 0.299233 0.275483 -0.154982
H8    H     H_    0.146859 0.346488 0.285303 0.143125
C23   C     C_R   0.859283 0.309007 0.321632 -0.219748
C24   C     C_R   0.713648 0.244193 0.306901 0.172802
C25   C     C_3   0.505177 0.258900 0.290756 -0.487593
C26   C     C_3   0.519444 0.188153 0.221622 -0.445429
H9    H     H_    0.475296 0.329720 0.268045 0.203110
H10   H     H_    0.497199 0.217762 0.158859 0.229830
C27   C     C_R   0.490600 0.679416 0.746492 0.070284
C28   C     C_R   0.354733 0.685859 0.682348 -0.245785
C29   C     C_R   0.222455 0.758904 0.685259 -0.215145
H11   H     H_    0.116859 0.765961 0.635915 0.151986
C30   C     C_R   0.233165 0.827618 0.747370 0.382702
C31   C     C_R   0.372204 0.819832 0.812735 -0.377738
C32   C     C_R   0.496995 0.744277 0.810575 0.068773
C33   C     C_3   0.711811 0.747061 0.811418 0.051525
C34   C     C_3   0.705639 0.677573 0.740530 0.062821
H12   H     H_    0.768644 0.815337 0.793631 0.116348
C35   C     C_R   0.505607 0.681943 0.258673 0.178635
C36   C     C_R   0.351984 0.682223 0.314262 -0.231471
C37   C     C_R   0.201635 0.744899 0.298277 -0.150470
H13   H     H_    0.079624 0.747769 0.338997 0.139323
C38   C     C_R   0.213575 0.809112 0.233046 -0.151541
H14   H     H_    0.099474 0.859005 0.225400 0.126646
C39   C     C_R   0.376582 0.813032 0.181807 -0.234281
C40   C     C_R   0.517780 0.745633 0.194348 0.239261
C41   C     C_3   0.729304 0.756416 0.206098 -0.469666
C42   C     C_3   0.716246 0.686682 0.275810 -0.476175
H15   H     H_    0.768385 0.826749 0.227758 0.173488
H16   H     H_    0.811163 0.730793 0.152040 0.236162
O11   O     O_R   0.229140 0.916090 0.913340 -0.525120
O12   O     O_R   0.558860 0.905090 0.086080 -0.598616
O13   O     O_R   0.729100 0.083920 0.086690 -0.594001
C43   C     C_R   0.390254 0.883115 0.115005 0.946685
O14   O     O_R   0.558860 0.905090 0.913930 -0.599689
O15   O     O_R   0.729100 0.083920 0.913310 -0.593161
C44   C     C_R   0.388910 0.887099 0.882124 1.018877
O16   O     O_R   0.229140 0.916080 0.086720 -0.603814
O17   O     O_3   0.395570 0.058660 0.000020 -0.281629
V3    V     V_3+5 0.670450 0.989140 0.000000 1.231666
O18   O     O_R   0.058810 0.094980 0.913910 -0.587775
C45   C     C_R   0.888376 0.116275 0.884795 1.084512
O19   O     O_R   0.058810 0.094980 0.086060 -0.610017
C46   C     C_R   0.891203 0.114269 0.117040 1.007569
V4    V     V_3+5 0.170450 0.010950 0.999970 1.239124
O20   O     O_3   0.895460 0.941370 0.999990 -0.251987
H17   H     H_    0.415648 0.235497 0.343266 0.188844
H18   H     H_    0.438888 0.123578 0.234206 0.169692
N1    N     N_R   0.121650 0.909881 0.735237 0.202954
O21   O     O_R   0.006057 0.939149 0.791978 -0.449496
O22   O     O_R   0.109154 0.946052 0.661805 -0.455316
N2    N     N_R   0.796380 0.712253 0.888746 0.295284
O23   O     O_R   0.688539 0.685962 0.949702 -0.367676
O24   O     O_R   0.981599 0.716823 0.899999 -0.338136
N3    N     N_R   0.790677 0.588668 0.761617 0.279199
O25   O     O_R   0.686015 0.514644 0.767432 -0.420333
O26   O     O_R   0.976493 0.582534 0.768202 -0.389199
H19   H     H_    0.759716 0.705276 0.681009 0.061311
H20   H     H_    0.748639 0.716314 0.337872 0.192679
H21   H     H_    0.789854 0.620594 0.261883 0.206492
H22   H     H_    0.336321 0.472667 0.828005 0.198489
N4    N     N_R   0.953137 0.283522 0.977692 0.217313
O27   O     O_R   0.767941 0.271081 0.980777 -0.417132
O28   O     O_R   0.044774 0.302395 0.046061 -0.447240

loop_
_geom_bond_atom_site_label_1
_geom_bond_atom_site_label_2
_geom_bond_distance
_ccdc_geom_bond_type
C32   C33   1.494308 S    
C38   C39   1.412232 A    
C22   H8    1.079983 S    
N3    O25   1.301378 A    
O11   C44   1.295491 A    
C1    O6    1.298897 A    
O18   C45   1.308334 A    
C21   C22   1.408478 A    
V4    O20   2.161711 S    
C12   C15   1.418992 A    
C13   C14   1.421223 A    
C16   C17   1.386299 A    
C15   C16   1.391327 A    
C25   H17   1.111638 S    
C3    C23   1.486765 S    
C35   C40   1.396336 A    
O5    C3    1.297105 A    
C20   C21   1.406480 A    
V2    O10   2.161687 S    
C27   C34   1.499824 S    
C33   C34   1.525250 S    
C5    C6    1.387649 A    
C37   C38   1.412227 A    
C11   C45   1.495348 S    
V3    O20   1.712336 S    
O11   V4    2.007247 S    
O8    V2    2.011252 S    
C6    C7    1.380274 A    
O1    V2    2.005525 S    
C10   C14   1.429633 A    
C4    C14   1.499308 S    
N1    O22   1.301360 A    
O7    V1    2.162754 S    
O13   C46   1.300718 A    
C43   O16   1.298084 A    
C19   C26   1.483022 S    
C31   C44   1.489119 S    
C40   C41   1.489247 S    
C15   H4    1.077413 S    
C35   C36   1.403314 A    
C8    C9    1.426122 A    
H1    C17   1.082720 S    
C22   C23   1.408372 A    
N4    O27   1.301789 A    
O4    V1    2.014094 S    
C26   H18   1.111829 S    
C25   H9    1.111646 S    
C26   H10   1.112291 S    
C41   C42   1.520081 S    
C11   C12   1.425718 A    
O12   C43   1.306404 A    
O15   C45   1.292521 A    
C21   H7    1.074663 S    
O4    C2    1.304617 A    
C12   C13   1.427243 A    
C27   C32   1.398701 A    
C39   C43   1.489182 S    
C5    C10   1.420107 A    
C1    C28   1.481326 S    
C36   C37   1.409114 A    
C41   H15   1.111196 S    
O2    C1    1.301220 A    
C23   C24   1.399819 A    
C42   H21   1.111700 S    
C19   C20   1.400371 A    
C35   C42   1.489424 S    
O19   C46   1.303950 A    
C33   N2    1.467086 S    
N2    O24   1.300540 A    
C28   C29   1.405701 A    
N4    O28   1.298549 A    
O14   C44   1.309697 A    
O3    C4    1.289563 A    
C8    N4    1.435742 S    
O16   V4    2.007199 S    
O19   V4    2.011275 S    
C39   C40   1.400626 A    
O6    V2    2.007016 S    
O9    V2    2.003681 S    
C30   N1    1.437453 S    
C9    C11   1.420280 A    
O17   V3    2.162738 S    
C5    H2    1.070886 S    
C7    H3    1.082583 S    
O2    V1    1.998636 S    
C2    C36   1.489150 S    
O17   V4    1.711176 S    
C24   C25   1.486122 S    
O14   V3    1.998612 S    
C31   C32   1.400097 A    
C20   C46   1.490569 S    
O1    C2    1.299739 A    
C9    C10   1.421853 A    
O15   V3    2.010909 S    
O5    V1    2.000294 S    
O8    C3    1.305739 A    
N3    O26   1.298653 A    
C30   C31   1.429584 A    
C16   H5    1.082598 S    
C41   H16   1.111633 S    
C19   C24   1.396874 A    
O7    V2    1.711781 S    
C42   H20   1.111536 S    
C29   H11   1.083683 S    
O12   V3    2.014042 S    
O3    V1    2.010996 S    
V1    O10   1.712326 S    
C6    H22   1.082351 S    
C17   C18   1.391658 A    
C34   H19   1.112765 S    
N2    O23   1.302292 A    
O13   V3    2.000393 S    
C33   H12   1.106448 S    
C37   H13   1.080184 S    
C38   H14   1.081340 S    
C25   C26   1.520276 S    
C13   C18   1.418202 A    
C7    C8    1.400761 A    
C27   C28   1.398896 A    
C34   N3    1.459976 S    
C18   H6    1.079790 S    
C29   C30   1.415125 A    
N1    O21   1.297228 A    
O9    C4    1.313778 A    
O18   V4    2.003550 S    
