data_mof_unit_pretest_1125.cif
_audit_creation_date              2012-12-10T17:28:38-0500
_audit_creation_method            fapswitch 2.2
_symmetry_space_group_name_H-M    P1
_symmetry_Int_Tables_number       1
_space_group_crystal_system       triclinic
_cell_length_a                    10.562523
_cell_length_b                    12.194754
_cell_length_c                    12.772432
_cell_angle_alpha                 90.691884
_cell_angle_beta                  94.860557
_cell_angle_gamma                 90.126392
_cell_volume                      1639.13893533

loop_
_atom_site_label
_atom_site_type_symbol
_atom_type_description
_atom_site_fract_x
_atom_site_fract_y
_atom_site_fract_z
_atom_type_partial_charge
Br1   Br    Br    0.478643 0.975194 0.221662 -0.133154
Br2   Br    Br    0.511575 0.026304 0.777313 -0.132631
Br3   Br    Br    0.843914 0.086515 0.353340 -0.413641
Br4   Br    Br    0.162690 0.911542 0.656389 -0.410405
C1    C     C_R   0.486803 0.518474 0.699072 0.936381
C2    C     C_R   0.540499 0.565978 0.129074 0.418823
C3    C     C_R   0.503114 0.445713 0.976857 -0.197235
C4    C     C_R   0.498112 0.552526 0.023181 -0.183165
C5    C     C_R   0.454788 0.944807 0.365604 0.356852
C6    C     C_R   0.542266 0.055447 0.634545 0.345706
C7    C     C_R   0.437602 0.833751 0.386055 -0.128118
C8    C     C_R   0.561241 0.166199 0.614114 -0.074110
C9    C     C_R   0.529697 0.862278 0.560687 0.500767
C10   C     C_R   0.468664 0.138117 0.439580 0.495435
C11   C     C_R   0.516266 0.978890 0.550183 -0.205976
C12   C     C_R   0.513118 0.481365 0.300892 0.934407
C13   C     C_R   0.481472 0.021399 0.449900 -0.206661
C14   C     C_R   0.738872 0.502506 0.487987 0.882780
C15   C     C_R   0.262113 0.497614 0.513957 0.906259
C16   C     C_R   0.877231 0.314910 0.407570 -0.139893
C17   C     C_R   0.127479 0.683746 0.600563 -0.137373
C18   C     C_R   0.930611 0.210710 0.418144 0.312306
C19   C     C_R   0.074440 0.788105 0.591673 0.311703
C20   C     C_R   0.044229 0.197126 0.480138 -0.106974
C21   C     C_R   0.960083 0.802472 0.531043 -0.113071
C22   C     C_R   0.108747 0.288638 0.524576 -0.107471
C23   C     C_R   0.537379 0.472989 0.190992 -0.267531
C24   C     C_R   0.894775 0.711557 0.486137 -0.060614
C25   C     C_R   0.059780 0.395603 0.507598 0.055618
C26   C     C_R   0.942970 0.604128 0.501486 0.071370
C27   C     C_R   0.936566 0.406736 0.460304 0.020229
C28   C     C_R   0.066576 0.592605 0.547997 0.010854
C29   C     C_R   0.129277 0.491950 0.535976 -0.148292
C30   C     C_R   0.873505 0.507879 0.470943 -0.143661
C31   C     C_R   0.462735 0.525988 0.809004 -0.256977
C32   C     C_R   0.449966 0.640892 0.961411 0.484167
C33   C     C_R   0.552004 0.357690 0.038901 0.489886
C34   C     C_R   0.434902 0.626721 0.853492 -0.189226
C35   C     C_R   0.565559 0.371978 0.146949 -0.181511
C36   C     C_R   0.461752 0.432526 0.870654 0.452875
H1    H     H_    0.920776 0.883790 0.519649 0.202488
H2    H     H_    0.409639 0.777610 0.322315 0.233450
H3    H     H_    0.651273 0.743630 0.305611 0.347993
H4    H     H_    0.145194 0.351317 0.762777 0.389297
H5    H     H_    0.268152 0.893271 0.961817 0.427183
H6    H     H_    0.750815 0.115384 0.037720 0.426036
H7    H     H_    0.216002 0.306312 0.287825 0.389746
H8    H     H_    0.778909 0.693365 0.714555 0.388563
H9    H     H_    0.083835 0.116049 0.492510 0.203441
H10   H     H_    0.787995 0.323514 0.359984 0.173233
H11   H     H_    0.217837 0.674397 0.646373 0.173744
H12   H     H_    0.195553 0.274387 0.573569 0.212499
H13   H     H_    0.808367 0.727130 0.437790 0.179777
H14   H     H_    0.599295 0.305200 0.196600 0.235421
H15   H     H_    0.400974 0.693597 0.804126 0.237829
H16   H     H_    0.589485 0.222226 0.677835 0.228773
N1    N     N_R   0.523130 0.207800 0.519340 -0.190969
N2    N     N_R   0.476870 0.792200 0.480660 -0.196969
O1    O     O_R   0.506170 0.421700 0.658830 -0.596437
O2    O     O_2   0.721249 0.697767 0.061498 -0.176088
O3    O     O_3   0.627436 0.763373 0.231784 -0.469795
O4    O     O_2   0.378282 0.251852 0.762074 -0.270652
O5    O     O_2   0.293240 0.284610 0.932373 -0.205751
O6    O     O_3   0.213728 0.406618 0.775724 -0.592153
O7    O     O_2   0.361316 0.752320 0.121815 -0.287635
O8    O     O_2   0.511734 0.846290 0.015327 -0.132371
O9    O     O_3   0.280004 0.817587 0.935419 -0.499669
O10   O     O_2   0.502495 0.148455 0.990460 -0.140599
O11   O     O_2   0.641340 0.247373 0.877465 -0.299539
O12   O     O_R   0.493830 0.578300 0.341170 -0.625708
O13   O     O_3   0.734010 0.190450 0.063508 -0.505177
O14   O     O_2   0.421556 0.200993 0.237332 -0.255443
O15   O     O_2   0.256635 0.095603 0.312761 -0.274972
O16   O     O_3   0.273837 0.298453 0.352516 -0.530363
O17   O     O_2   0.740864 0.905154 0.688301 -0.282462
O18   O     O_2   0.574759 0.801458 0.763666 -0.252186
O19   O     O_3   0.721988 0.701712 0.649410 -0.536422
O20   O     O_R   0.491330 0.609310 0.646410 -0.566036
O21   O     O_R   0.508670 0.390690 0.353590 -0.563815
O22   O     O_R   0.690650 0.406190 0.506220 -0.627713
O23   O     O_R   0.309350 0.593810 0.493780 -0.621989
O24   O     O_R   0.675800 0.593810 0.493800 -0.577848
O25   O     O_R   0.324200 0.406190 0.506200 -0.556452
O26   O     O_2   0.775743 0.595724 0.222017 -0.340720
S1    S     S_3+6 0.670795 0.656182 0.160237 0.102794
S2    S     S_3+6 0.336628 0.338049 0.836103 0.083562
S3    S     S_3+6 0.402236 0.767258 0.013131 0.135924
S4    S     S_3+6 0.605818 0.232937 0.987827 0.126957
S5    S     S_3+6 0.355207 0.184017 0.334791 0.078366
S6    S     S_3+6 0.641900 0.817049 0.666427 0.071436
Zn1   Zn    Zn3+2 0.509910 0.374730 0.508290 1.052306
Zn2   Zn    Zn3+2 0.490090 0.625270 0.491710 1.026386

loop_
_geom_bond_atom_site_label_1
_geom_bond_atom_site_label_2
_ccdc_geom_bond_type
C9    S6    S    
C33   S4    S    
C3    C4    A    
C14   O22   A    
H4    O6    S    
C21   C24   A    
O4    S2    D    
C2    S1    S    
O16   S5    S    
C20   C22   A    
C6    C11   A    
O3    S1    S    
C35   H14   S    
C25   C29   A    
O24   Zn2   S    
C7    H2    S    
C4    C32   A    
C36   S2    S    
C16   H10   S    
O17   S6    D    
O23   Zn2   S    
C34   H15   S    
C23   C35   A    
H5    O9    S    
C3    C36   A    
C7    N2    A    
O21   Zn1   S    
C12   C23   S    
C10   C13   A    
C15   O25   A    
O6    S2    S    
O7    S3    D    
C32   S3    S    
C17   C28   A    
O19   S6    S    
C26   C30   A    
C31   C34   A    
C12   O12   A    
O26   S1    D    
C15   C29   S    
C21   H1    S    
O8    S3    D    
Br4   C19   S    
C1    O1    A    
C2    C4    A    
C9    N2    A    
O20   Zn2   S    
H8    O19   S    
C10   S5    S    
C22   H12   S    
C14   C30   S    
C2    C23   A    
O2    S1    D    
C3    C33   A    
C27   C30   A    
Br1   C5    S    
O1    Zn1   S    
C5    C7    A    
H6    O13   S    
C8    H16   S    
O11   S4    D    
C6    C8    A    
C8    N1    A    
C5    C13   A    
C16   C18   A    
C9    C11   A    
O5    S2    D    
O10   S4    D    
C18   C20   A    
Br2   C6    S    
C17   H11   S    
H3    O3    S    
C20   H9    S    
C11   C13   A    
C10   N1    A    
N1    Zn1   S    
O12   Zn2   S    
H7    O16   S    
C24   H13   S    
O25   Zn1   S    
O9    S3    S    
C12   O21   A    
C28   C29   A    
O22   Zn1   S    
C17   C19   A    
C31   C36   A    
O15   S5    D    
C24   C26   A    
C33   C35   A    
C26   C28   A    
O14   S5    D    
C1    C31   S    
C32   C34   A    
C14   O24   A    
C19   C21   A    
O13   S4    S    
C22   C25   A    
C25   C27   A    
Br3   C18   S    
C1    O20   A    
C15   O23   A    
N2    Zn2   S    
O18   S6    D    
C16   C27   A    
