data_mof_unit_pretest_1448.cif
_audit_creation_date              2012-12-10T17:03:00-0500
_audit_creation_method            fapswitch 2.2
_symmetry_space_group_name_H-M    P1
_symmetry_Int_Tables_number       1
_space_group_crystal_system       triclinic
_cell_length_a                    9.796789
_cell_length_b                    11.052657
_cell_length_c                    13.414154
_cell_angle_alpha                 94.547399
_cell_angle_beta                  80.786469
_cell_angle_gamma                 111.866388
_cell_volume                      1330.29497869

loop_
_atom_site_label
_atom_site_type_symbol
_atom_type_description
_atom_site_fract_x
_atom_site_fract_y
_atom_site_fract_z
_atom_type_partial_charge
C1    C     C_R   0.557750 0.745830 0.506413 0.851475
C2    C     C_R   0.435909 0.484501 0.971904 0.088989
C3    C     C_R   0.468415 0.531548 0.871893 0.078104
C4    C     C_R   0.546736 0.534220 0.037425 0.085468
C5    C     C_R   0.683280 0.634953 0.004135 0.130983
C6    C     C_R   0.707171 0.688149 0.909275 -0.204581
C7    C     C_R   0.600735 0.638904 0.844881 -0.173279
C8    C     C_R   0.525818 0.487874 0.135458 -0.233740
C9    C     C_R   0.771719 0.637412 0.164320 -0.020707
C10   C     C_R   0.367786 0.471025 0.801132 -0.175625
C11   C     C_2   0.590430 0.885517 0.510917 -0.330275
C12   C     C_R   0.420689 0.488427 0.691172 0.780712
C13   C     C_2   0.494122 0.930466 0.482780 -0.097655
C14   C     C_2   0.406712 0.112431 0.487859 -0.174087
C15   C     C_2   0.514984 0.067997 0.495619 -0.226821
C16   C     C_2   0.922756 0.490092 0.491087 -0.019735
C17   C     C_2   0.077926 0.511179 0.508003 -0.034595
C18   C     C_R   0.442421 0.253720 0.492325 0.801571
C19   C     C_R   0.580178 0.515845 0.309287 0.798616
C20   C     C_R   0.794556 0.683517 0.066550 -0.215205
C21   C     C_R   0.632169 0.542596 0.200872 -0.127782
C22   C     C_R   0.225299 0.378175 0.835664 -0.010612
C23   C     C_R   0.190435 0.340373 0.936001 -0.172850
C24   C     C_R   0.293843 0.390109 0.002514 -0.186140
Cu1   Cu    Cu3+1 0.362000 0.479240 0.482530 1.000854
Cu2   Cu    Cu3+1 0.638000 0.520760 0.517470 0.977098
H1    H     H_    0.398020 0.864228 0.450405 0.205001
H2    H     H_    0.690285 0.950906 0.539975 0.167735
H3    H     H_    0.127227 0.580920 0.565851 0.190936
H4    H     H_    0.873622 0.420712 0.432997 0.171998
H5    H     H_    0.105390 0.382700 0.401569 0.209015
H6    H     H_    0.894912 0.617871 0.598042 0.204537
H7    H     H_    0.808925 0.768654 0.884583 0.162711
H8    H     H_    0.899775 0.758714 0.039089 0.166284
H9    H     H_    0.424976 0.411063 0.165028 0.155483
H10   H     H_    0.256793 0.353837 0.078047 0.147616
H11   H     H_    0.082047 0.269322 0.962953 0.161886
H12   H     H_    0.622892 0.687660 0.774017 0.163598
H13   H     H_    0.624482 0.135318 0.509096 0.183340
N1    N     N_2   0.845330 0.551960 0.543750 -0.281596
N2    N     N_2   0.154690 0.448120 0.456210 -0.277758
O1    O     O_R   0.426290 0.668220 0.490680 -0.575680
O2    O     O_R   0.659360 0.703290 0.520190 -0.573583
O3    O     O_R   0.326580 0.473880 0.629020 -0.546287
O4    O     O_R   0.559660 0.508940 0.658530 -0.571516
O5    O     O_R   0.340640 0.296710 0.479810 -0.534428
O6    O     O_R   0.573710 0.331780 0.509320 -0.587503
O7    O     O_R   0.440340 0.491060 0.341470 -0.570879
O8    O     O_R   0.673420 0.526120 0.370980 -0.544445
C25   C     C_2   0.894684 0.694498 0.225412 0.853756
O9    O     O_2   0.938337 0.623675 0.266595 -0.585152
O10   O     O_R   0.966701 0.829845 0.230742 -0.751743
H14   H     H_    0.050859 0.857277 0.272917 0.357655
C26   C     C_2   0.251679 0.023702 0.477014 0.867798
O11   O     O_2   0.183765 0.049893 0.418253 -0.587125
O12   O     O_R   0.182025 0.912749 0.536206 -0.759529
H15   H     H_    0.077061 0.860969 0.522010 0.332365
C27   C     C_2   0.110039 0.315001 0.769604 0.867283
O13   O     O_2   0.066813 0.196945 0.754918 -0.591735
O14   O     O_R   0.045825 0.389537 0.728238 -0.749937
H16   H     H_    0.966140 0.334884 0.686200 0.329720

loop_
_geom_bond_atom_site_label_1
_geom_bond_atom_site_label_2
_ccdc_geom_bond_type
Cu1   O1    S    
C22   C27   S    
C2    C4    A    
C23   C24   A    
C26   O12   S    
C6    C7    A    
C12   O4    A    
C17   H3    S    
C14   C18   S    
C9    C20   A    
C25   O10   S    
C14   C15   D    
C6    H7    S    
C4    C8    A    
C20   H8    S    
C18   O6    A    
H6    N1    S    
C25   O9    D    
C27   O13   D    
C12   O3    A    
C3    C10   A    
C10   C22   A    
C11   C13   D    
Cu1   O7    S    
Cu2   N1    S    
C24   H10   S    
C10   C12   S    
C11   H2    S    
C16   N1    D    
C18   O5    A    
Cu1   O3    S    
C14   C26   S    
C7    H12   S    
Cu2   O2    S    
C8    C21   A    
C3    C7    A    
C2    C3    A    
C13   C15   S    
C2    C24   A    
C5    C6    A    
C17   N2    D    
C19   O8    A    
C16   C17   S    
O12   H15   S    
C16   H4    S    
C9    C21   A    
C1    O1    A    
O10   H14   S    
Cu2   O8    S    
Cu1   N2    S    
C5    C20   A    
Cu2   O6    S    
C26   O11   D    
C4    C5    A    
H5    N2    S    
Cu2   O4    S    
C19   C21   S    
Cu1   Cu2   S    
C23   H11   S    
C27   O14   S    
Cu1   O5    S    
C1    O2    A    
C22   C23   A    
C13   H1    S    
C9    C25   S    
C15   H13   S    
C19   O7    A    
O14   H16   S    
C8    H9    S    
C1    C11   S    
