data_mof_unit_pretest_1678.cif
_audit_creation_date              2012-12-10T21:41:35-0500
_audit_creation_method            fapswitch 2.2
_symmetry_space_group_name_H-M    P1
_symmetry_Int_Tables_number       1
_space_group_crystal_system       triclinic
_cell_length_a                    23.575714
_cell_length_b                    23.771978
_cell_length_c                    16.170201
_cell_angle_alpha                 90.996447
_cell_angle_beta                  94.449418
_cell_angle_gamma                 90.417418
_cell_volume                      9033.43181118

loop_
_atom_site_label
_atom_site_type_symbol
_atom_type_description
_atom_site_fract_x
_atom_site_fract_y
_atom_site_fract_z
_atom_type_partial_charge
C1    C     C_R   0.575166 0.078394 0.511965 0.932834
C2    C     C_R   0.423863 0.923238 0.487893 0.992867
C3    C     C_R   0.424869 0.077831 0.489189 0.986744
C4    C     C_R   0.575809 0.923140 0.510867 0.952027
C5    C     C_R   0.076059 0.576793 0.512085 0.972508
C6    C     C_R   0.925209 0.421274 0.488169 0.948559
C7    C     C_R   0.924971 0.577794 0.489317 0.940520
C8    C     C_R   0.076373 0.423276 0.511082 0.973233
C9    C     C_R   0.516545 0.004884 0.110858 0.112965
C10   C     C_R   0.487377 0.013630 0.889808 0.113887
C11   C     C_R   0.012606 0.492855 0.110198 0.147148
C12   C     C_R   0.986048 0.505711 0.889260 0.150801
C13   C     C_R   0.564112 0.017153 0.166683 0.296492
C14   C     C_R   0.437888 0.018708 0.835530 0.294826
C15   C     C_R   0.062131 0.486002 0.163724 0.290365
C16   C     C_R   0.935973 0.504516 0.835518 0.294421
C17   C     C_R   0.559636 0.014748 0.252731 -0.109944
C18   C     C_R   0.440415 0.012294 0.749214 -0.096405
C19   C     C_R   0.059750 0.489977 0.250086 -0.102364
C20   C     C_R   0.939115 0.501396 0.749313 -0.113443
C21   C     C_R   0.618732 0.880012 0.515435 -0.206987
C22   C     C_R   0.392400 0.129744 0.485444 -0.206943
C23   C     C_R   0.384744 0.876255 0.478575 -0.211020
C24   C     C_R   0.612347 0.128258 0.519139 -0.214870
C25   C     C_R   0.121865 0.382004 0.516878 -0.198423
C26   C     C_R   0.887618 0.626160 0.486477 -0.207221
C27   C     C_R   0.889109 0.370571 0.481644 -0.219403
C28   C     C_R   0.115150 0.623728 0.521374 -0.195785
C29   C     C_R   0.660569 0.883433 0.458935 -0.293508
C30   C     C_R   0.403288 0.168947 0.550808 -0.310363
C31   C     C_R   0.402564 0.824888 0.511672 -0.285422
C32   C     C_R   0.622208 0.155649 0.445256 -0.296693
C33   C     C_R   0.160685 0.383419 0.455673 -0.268916
C34   C     C_R   0.853065 0.632732 0.552598 -0.293813
C35   C     C_R   0.878830 0.344116 0.556131 -0.274326
C36   C     C_R   0.097484 0.674985 0.487743 -0.292770
C37   C     C_R   0.698634 0.840358 0.451264 0.384769
C38   C     C_R   0.373739 0.219017 0.552148 0.377621
C39   C     C_R   0.365566 0.779197 0.507995 0.391089
C40   C     C_R   0.658532 0.201425 0.445782 0.382335
C41   C     C_R   0.202408 0.343238 0.452248 0.389295
C42   C     C_R   0.822476 0.681157 0.561847 0.380354
C43   C     C_R   0.843463 0.297667 0.556278 0.377765
C44   C     C_R   0.134526 0.720633 0.491514 0.391751
C45   C     C_R   0.696389 0.793694 0.503206 0.200651
C46   C     C_R   0.332365 0.230064 0.488322 0.219056
C47   C     C_R   0.309981 0.785289 0.472571 0.196303
C48   C     C_R   0.686668 0.220060 0.520778 0.204429
C49   C     C_R   0.207083 0.301329 0.512885 0.196700
C50   C     C_R   0.823594 0.722940 0.501842 0.203811
C51   C     C_R   0.816389 0.277545 0.481341 0.202259
C52   C     C_R   0.190001 0.714559 0.527422 0.197398
C53   C     C_R   0.654384 0.789404 0.559682 -0.001025
C54   C     C_R   0.322982 0.192780 0.419924 -0.022884
C55   C     C_R   0.292733 0.835962 0.434424 -0.010165
C56   C     C_R   0.673870 0.196825 0.596071 -0.015160
C57   C     C_R   0.168726 0.299431 0.574970 -0.013997
C58   C     C_R   0.858607 0.717896 0.436000 -0.012199
C59   C     C_R   0.829992 0.299616 0.405658 -0.016258
C60   C     C_R   0.207085 0.663958 0.565947 -0.011689
C61   C     C_R   0.615165 0.832947 0.566383 0.302811
C62   C     C_R   0.353124 0.142178 0.418304 0.338157
C63   C     C_R   0.330361 0.881994 0.438047 0.297867
C64   C     C_R   0.636464 0.150565 0.595992 0.329932
C65   C     C_R   0.125831 0.340049 0.577582 0.326530
C66   C     C_R   0.891275 0.669247 0.427990 0.307131
C67   C     C_R   0.866820 0.346319 0.405089 0.331540
C68   C     C_R   0.169360 0.618000 0.562421 0.306349
C69   C     C_R   0.462869 0.987005 0.230479 0.110111
C70   C     C_R   0.539189 0.994151 0.767630 0.162472
C71   C     C_R   0.960578 0.506451 0.234362 0.192214
C72   C     C_R   0.039834 0.501551 0.765837 0.144747
C73   C     C_R   0.465460 0.988681 0.144040 0.307323
C74   C     C_R   0.539267 0.002616 0.853856 0.305204
C75   C     C_R   0.960595 0.502542 0.146915 0.223651
C76   C     C_R   0.039015 0.505081 0.853209 0.217890
H1    H     H_    0.434739 0.160501 0.601491 0.227026
H2    H     H_    0.662577 0.919208 0.418495 0.218325
H3    H     H_    0.602061 0.141316 0.386049 0.229641
H4    H     H_    0.445051 0.820654 0.541444 0.238526
H5    H     H_    0.850847 0.600552 0.598980 0.222398
H6    H     H_    0.157825 0.415377 0.408532 0.219202
H7    H     H_    0.055071 0.679164 0.457548 0.229172
H8    H     H_    0.897910 0.359669 0.615331 0.239327
H9    H     H_    0.596333 0.024607 0.294979 0.194883
H10   H     H_    0.402435 0.017761 0.708228 0.199460
H11   H     H_    0.097886 0.484149 0.290627 0.189315
H12   H     H_    0.900559 0.500904 0.708362 0.188937
N1    N     N_2   0.735811 0.750134 0.499792 -0.085023
N2    N     N_2   0.295596 0.275395 0.497515 -0.043829
N3    N     N_2   0.270587 0.741633 0.481320 -0.084298
N4    N     N_2   0.731950 0.258495 0.520607 -0.078218
N5    N     N_2   0.247009 0.257901 0.508926 -0.105423
N6    N     N_2   0.785708 0.767882 0.503226 -0.065613
N7    N     N_2   0.771167 0.239010 0.481678 -0.077878
N8    N     N_2   0.229455 0.758171 0.518810 -0.085336
N9    N     N_R   0.509690 0.000000 0.283730 -0.156601
N10   N     N_R   0.490310 0.000000 0.716270 -0.150571
N11   N     N_R   0.009690 0.500000 0.283730 -0.120464
N12   N     N_R   0.990310 0.500000 0.716270 -0.123737
N13   N     N_2   0.523515 0.002484 0.023653 -0.025295
N14   N     N_2   0.482114 0.019253 0.977749 -0.023345
N15   N     N_2   0.017006 0.486232 0.022243 -0.019225
N16   N     N_2   0.981149 0.512367 0.976885 -0.020250
O1    O     O_R   0.554580 0.058040 0.577230 -0.587564
O2    O     O_R   0.445420 0.941960 0.422770 -0.638152
O3    O     O_R   0.445420 0.058040 0.422770 -0.586647
O4    O     O_R   0.554580 0.941960 0.577230 -0.614874
O5    O     O_R   0.054580 0.558040 0.577230 -0.588600
O6    O     O_R   0.945420 0.441960 0.422770 -0.553570
O7    O     O_R   0.945420 0.558040 0.422770 -0.556007
O8    O     O_R   0.054580 0.441960 0.577230 -0.545934
O9    O     O_R   0.560810 0.058060 0.438340 -0.633710
O10   O     O_R   0.439190 0.941940 0.561660 -0.583811
O11   O     O_R   0.439190 0.058060 0.561660 -0.624340
O12   O     O_R   0.560810 0.941940 0.438340 -0.614395
O13   O     O_R   0.060810 0.558060 0.438340 -0.597375
O14   O     O_R   0.939190 0.441940 0.561660 -0.623472
O15   O     O_R   0.939190 0.558060 0.561660 -0.633842
O16   O     O_R   0.060810 0.441940 0.438340 -0.635282
Zn1   Zn    Zn3+2 0.495820 0.000000 0.592740 1.011133
Zn2   Zn    Zn3+2 0.504180 0.000000 0.407260 0.982979
Zn3   Zn    Zn3+2 0.995820 0.500000 0.592740 1.024061
Zn4   Zn    Zn3+2 0.004180 0.500000 0.407260 1.045955
Cl1   Cl    Cl    0.386327 0.265747 0.637273 -0.459807
Cl2   Cl    Cl    0.745769 0.844889 0.372109 -0.497545
Cl3   Cl    Cl    0.668991 0.234101 0.351172 -0.496941
Cl4   Cl    Cl    0.388497 0.715703 0.553207 -0.486620
Cl5   Cl    Cl    0.783723 0.688760 0.650250 -0.496125
Cl6   Cl    Cl    0.244712 0.344820 0.366941 -0.473746
Cl7   Cl    Cl    0.111789 0.784044 0.445854 -0.498246
Cl8   Cl    Cl    0.832804 0.266115 0.651650 -0.492295
N17   N     N_3   0.652235 0.740358 0.609750 -0.337907
H13   H     H_    0.612491 0.720928 0.597314 0.252878
H14   H     H_    0.656327 0.753090 0.672157 0.269181
N18   N     N_3   0.281388 0.206389 0.354005 -0.346462
H15   H     H_    0.301365 0.207095 0.298525 0.263817
H16   H     H_    0.250153 0.174808 0.349259 0.250845
N19   N     N_3   0.236759 0.840079 0.393612 -0.345366
H17   H     H_    0.240619 0.850806 0.331863 0.254263
H18   H     H_    0.215244 0.872381 0.422369 0.272470
N20   N     N_3   0.701273 0.219279 0.671928 -0.334235
H19   H     H_    0.669935 0.232556 0.710054 0.255334
H20   H     H_    0.724653 0.187261 0.701735 0.271914
N21   N     N_3   0.173762 0.255462 0.634627 -0.373005
H21   H     H_    0.135725 0.232342 0.630640 0.248032
H22   H     H_    0.179636 0.273908 0.693869 0.260525
N22   N     N_3   0.859729 0.762212 0.377142 -0.330750
H23   H     H_    0.901466 0.777388 0.377262 0.257680
H24   H     H_    0.847471 0.745482 0.318180 0.262295
N23   N     N_3   0.803960 0.275530 0.329972 -0.336247
H25   H     H_    0.836079 0.261844 0.293521 0.252553
H26   H     H_    0.780702 0.306768 0.298101 0.270906
N24   N     N_3   0.262969 0.659844 0.607047 -0.346229
H27   H     H_    0.258942 0.649318 0.668835 0.251947
H28   H     H_    0.284475 0.627392 0.578620 0.274063
Cl9   Cl    Cl    0.560269 0.825871 0.634136 -0.591523
Cl10  Cl    Cl    0.338243 0.094098 0.334893 -0.519026
Cl11  Cl    Cl    0.307844 0.947236 0.397028 -0.552478
Cl12  Cl    Cl    0.622727 0.121675 0.692579 -0.558889
Cl13  Cl    Cl    0.076023 0.335259 0.653589 -0.555263
Cl14  Cl    Cl    0.937846 0.665024 0.347454 -0.580413
Cl15  Cl    Cl    0.882683 0.372911 0.308065 -0.575239
Cl16  Cl    Cl    0.191411 0.552816 0.604329 -0.592299
N25   N     N_3   0.591733 0.978464 0.735557 -0.340514
H29   H     H_    0.600339 0.003840 0.686303 0.266531
H30   H     H_    0.589219 0.936116 0.717635 0.251671
N26   N     N_3   0.410438 0.969776 0.261004 -0.311618
H31   H     H_    0.400860 0.996936 0.308961 0.299585
H32   H     H_    0.414771 0.928532 0.281493 0.232079
N27   N     N_3   0.092571 0.501011 0.727726 -0.317742
H33   H     H_    0.115099 0.537881 0.745348 0.246288
H34   H     H_    0.116187 0.466585 0.749787 0.253721
N28   N     N_3   0.908739 0.516350 0.272562 -0.335529
H35   H     H_    0.879348 0.484815 0.253323 0.259839
H36   H     H_    0.892370 0.554862 0.252055 0.242332
Cl17  Cl    Cl    0.606375 0.001381 0.911557 -0.389517
Cl18  Cl    Cl    0.405378 0.964917 0.080132 -0.414509
Cl19  Cl    Cl    0.104247 0.513570 0.913942 -0.457446
Cl20  Cl    Cl    0.894403 0.505475 0.087725 -0.441808
Cl21  Cl    Cl    0.629948 0.035759 0.130378 -0.402075
Cl22  Cl    Cl    0.371916 0.033804 0.874305 -0.413829
Cl23  Cl    Cl    0.127973 0.471578 0.124132 -0.397022
Cl24  Cl    Cl    0.868453 0.507392 0.874351 -0.397861

loop_
_geom_bond_atom_site_label_1
_geom_bond_atom_site_label_2
_ccdc_geom_bond_type
N10   Zn1   S    
N27   H33   S    
N25   H29   S    
O11   Zn1   S    
C57   N21   S    
C10   C74   A    
C14   C18   A    
C34   C42   A    
C17   N9    A    
C63   Cl11  S    
O4    Zn1   S    
C72   C76   A    
C76   Cl19  S    
C43   C51   A    
N21   H21   S    
C49   C57   A    
C31   H4    S    
C44   Cl7   S    
C15   C19   A    
N27   H34   S    
C30   C38   A    
N13   N14   D    
C7    C26   S    
O12   Zn2   S    
C17   H9    S    
C47   C55   A    
C43   Cl8   S    
C28   C68   A    
O13   Zn4   S    
N22   H24   S    
C12   N16   S    
C19   H11   S    
C8    O8    A    
C41   Cl6   S    
C58   N22   S    
C1    O1    A    
C36   H7    S    
C55   N19   S    
C66   Cl14  S    
C48   C56   A    
N1    N6    D    
C9    C13   A    
N28   H35   S    
C52   C60   A    
O6    Zn4   S    
N3    N8    D    
C30   H1    S    
C11   C15   A    
C58   C66   A    
O9    Zn2   S    
C12   C16   A    
C7    O7    A    
C15   Cl23  S    
C70   C74   A    
N23   H25   S    
C56   C64   A    
C69   C73   A    
C47   N3    S    
C34   H5    S    
C45   N1    S    
C33   H6    S    
N24   H28   S    
C59   C67   A    
C44   C52   A    
N26   H32   S    
C45   C53   A    
C24   C64   A    
N23   H26   S    
C8    C25   S    
O10   Zn1   S    
C46   C54   A    
C70   N10   A    
C1    O9    A    
C41   C49   A    
C14   Cl22  S    
C26   C34   A    
N28   H36   S    
C68   Cl16  S    
N19   H17   S    
C29   H2    S    
O1    Zn1   S    
C26   C66   A    
C72   N27   S    
C7    O15   A    
C10   N14   S    
C53   N17   S    
N22   H23   S    
O8    Zn3   S    
N18   H16   S    
C10   C14   A    
C70   N25   S    
C19   N11   A    
O5    Zn3   S    
C54   C62   A    
C27   C35   A    
C40   Cl3   S    
C21   C29   A    
C2    O2    A    
N4    N7    D    
C55   C63   A    
C5    O13   A    
C6    O6    A    
O2    Zn2   S    
C24   C32   A    
N9    Zn2   S    
C61   Cl9   S    
C22   C62   A    
C5    C28   S    
C4    O4    A    
C6    C27   S    
C20   N12   A    
C16   C20   A    
C54   N18   S    
C64   Cl12  S    
C25   C33   A    
C62   Cl10  S    
C50   C58   A    
C25   C65   A    
C18   H10   S    
N19   H18   S    
C75   Cl20  S    
C60   C68   A    
N24   H27   S    
C42   C50   A    
C73   Cl18  S    
C9    N13   S    
N26   H31   S    
C59   N23   S    
C12   C76   A    
N17   H13   S    
N20   H20   S    
C36   C44   A    
C51   C59   A    
C53   C61   A    
C69   N9    A    
N15   N16   D    
C38   Cl1   S    
C35   C43   A    
C8    O16   A    
N2    N5    D    
C39   C47   A    
C37   Cl2   S    
C72   N12   A    
C40   C48   A    
C39   Cl4   S    
C22   C30   A    
O7    Zn4   S    
C21   C61   A    
C9    C73   A    
C50   N6    S    
C57   C65   A    
N18   H15   S    
C11   N15   S    
C35   H8    S    
C16   Cl24  S    
C46   N2    S    
O15   Zn3   S    
C18   N10   A    
C13   Cl21  S    
C71   N28   S    
C13   C17   A    
N12   Zn3   S    
C33   C41   A    
C69   N26   S    
C4    O12   A    
C11   C75   A    
C51   N7    S    
C32   H3    S    
C71   C75   A    
C4    C21   S    
C2    O10   A    
C65   Cl13  S    
C74   Cl17  S    
C71   N11   A    
N21   H22   S    
C20   H12   S    
C23   C63   A    
C31   C39   A    
C52   N8    S    
C42   Cl5   S    
O14   Zn3   S    
C32   C40   A    
C60   N24   S    
C38   C46   A    
C27   C67   A    
C56   N20   S    
C67   Cl15  S    
C28   C36   A    
C1    C24   S    
N25   H30   S    
C48   N4    S    
C29   C37   A    
C2    C23   S    
N17   H14   S    
N20   H19   S    
C3    C22   S    
C3    O11   A    
C5    O5    A    
O3    Zn2   S    
C49   N5    S    
C37   C45   A    
C6    O14   A    
O16   Zn4   S    
C23   C31   A    
N11   Zn4   S    
C3    O3    A    
