data_mof_unit_pretest_1946.cif
_audit_creation_date              2012-12-10T20:02:54-0500
_audit_creation_method            fapswitch 2.2
_symmetry_space_group_name_H-M    P1
_symmetry_Int_Tables_number       1
_space_group_crystal_system       triclinic
_cell_length_a                    38.685712
_cell_length_b                    32.081092
_cell_length_c                    21.509536
_cell_angle_alpha                 89.997439
_cell_angle_beta                  56.032576
_cell_angle_gamma                 90.002338
_cell_volume                      22139.6851002

loop_
_atom_site_label
_atom_site_type_symbol
_atom_type_description
_atom_site_fract_x
_atom_site_fract_y
_atom_site_fract_z
_atom_type_partial_charge
C1    C     C_R   0.919282 0.499982 0.580734 0.892575
C2    C     C_R   0.080718 0.499986 0.419270 0.892291
C3    C     C_R   0.419282 0.999983 0.580730 0.891851
C4    C     C_R   0.580718 0.999986 0.419272 0.891776
C5    C     C_3   0.958030 0.516050 0.329241 -0.366565
C6    C     C_3   0.042005 0.515914 0.670721 -0.367027
C7    C     C_3   0.457674 0.014665 0.329665 -0.367453
C8    C     C_3   0.542033 0.015816 0.670685 -0.367229
C9    C     C_3   0.000783 0.500047 0.309491 -0.071947
C10   C     C_3   0.999203 0.500043 0.690521 -0.071251
C11   C     C_3   0.500915 0.000029 0.309363 -0.071697
C12   C     C_3   0.499194 0.000042 0.690531 -0.071215
C13   C     C_3   0.000033 0.501901 0.189519 -0.049923
C14   C     C_3   0.999966 0.501886 0.810482 -0.049395
C15   C     C_3   0.500038 0.001775 0.189520 -0.049570
C16   C     C_3   0.499966 0.001877 0.810481 -0.049245
C17   C     C_3   0.011199 0.457344 0.200900 0.391764
C18   C     C_3   0.988654 0.457366 0.799246 0.391806
C19   C     C_3   0.512645 0.957615 0.199511 0.391132
C20   C     C_3   0.488557 0.957383 0.799340 0.391678
C21   C     C_3   0.956340 0.513743 0.259757 -0.347060
C22   C     C_3   0.043697 0.513593 0.740205 -0.347757
C23   C     C_3   0.456003 0.012232 0.260174 -0.346468
C24   C     C_3   0.543720 0.013493 0.740171 -0.347793
C25   C     C_R   0.727882 0.489223 0.822486 -0.213841
C26   C     C_R   0.272121 0.484196 0.180598 -0.214158
C27   C     C_R   0.227875 0.985844 0.820571 -0.214124
C28   C     C_R   0.772119 0.983549 0.181097 -0.214188
C29   C     C_R   0.706504 0.500842 0.789994 0.076429
C30   C     C_R   0.293497 0.501238 0.209790 0.076592
C31   C     C_R   0.206503 0.001103 0.790124 0.076547
C32   C     C_R   0.793497 0.001287 0.209754 0.076639
C33   C     C_R   0.728638 0.512487 0.713609 0.054959
C34   C     C_R   0.271361 0.518316 0.282863 0.055299
C35   C     C_R   0.228642 0.016392 0.715792 0.055365
C36   C     C_R   0.771361 0.019061 0.282291 0.055244
C37   C     C_R   0.772339 0.512153 0.671152 0.637025
C38   C     C_R   0.227659 0.517827 0.325408 0.636302
C39   C     C_R   0.272344 0.015950 0.673281 0.636224
C40   C     C_R   0.727660 0.018554 0.324852 0.636224
C41   C     C_R   0.793327 0.500456 0.704375 -0.012750
C42   C     C_R   0.206673 0.500673 0.295506 -0.012925
C43   C     C_R   0.293326 0.000592 0.704445 -0.012790
C44   C     C_R   0.706673 0.000700 0.295488 -0.012986
C45   C     C_R   0.000731 0.499906 0.377630 0.891030
C46   C     C_R   0.999254 0.499905 0.622384 0.890466
C47   C     C_R   0.500878 0.999907 0.377488 0.889150
C48   C     C_R   0.499244 0.999905 0.622394 0.890278
C49   C     C_R   0.771198 0.489030 0.779790 -0.280950
C50   C     C_R   0.228804 0.483912 0.223341 -0.280264
C51   C     C_R   0.271192 0.985588 0.777845 -0.280481
C52   C     C_R   0.728803 0.983253 0.223848 -0.280062
C53   C     C_1   0.661985 0.500451 0.836323 -0.015621
C54   C     C_1   0.338016 0.500676 0.163583 -0.015461
C55   C     C_1   0.161984 0.000599 0.836379 -0.015551
C56   C     C_1   0.838016 0.000703 0.163567 -0.015403
C57   C     C_1   0.837758 0.500183 0.661047 0.051066
C58   C     C_1   0.162243 0.500274 0.338897 0.051045
C59   C     C_1   0.337757 0.000235 0.661079 0.050835
C60   C     C_1   0.662242 0.000284 0.338890 0.051086
C61   C     C_1   0.875053 0.500037 0.624447 -0.157219
C62   C     C_1   0.124947 0.500062 0.375533 -0.157158
C63   C     C_1   0.375053 0.000047 0.624457 -0.157600
C64   C     C_1   0.624947 0.000064 0.375532 -0.156944
C65   C     C_1   0.624684 0.500164 0.874754 -0.183210
C66   C     C_1   0.375316 0.500261 0.125226 -0.183164
C67   C     C_1   0.124684 0.000228 0.874766 -0.183198
C68   C     C_1   0.875316 0.000273 0.125222 -0.183123
C69   C     C_1   0.499993 0.661958 0.000005 -0.036144
C70   C     C_1   0.999993 0.161956 0.000005 -0.035895
C71   C     C_R   0.000002 0.580657 0.999999 0.876278
C72   C     C_R   0.500001 0.080657 0.999991 0.876569
C73   C     C_R   0.999897 0.501552 0.121605 0.937305
C74   C     C_R   0.000104 0.501535 0.878394 0.937439
C75   C     C_R   0.499892 0.001399 0.121619 0.939118
C76   C     C_R   0.500104 0.001525 0.878393 0.937572
C77   C     C_1   0.999992 0.337865 0.000008 -0.034780
C78   C     C_1   0.499992 0.837863 0.000007 -0.035986
C79   C     C_R   0.999998 0.419299 0.000002 0.985140
C80   C     C_R   0.499999 0.919298 0.000001 0.985766
C81   C     C_1   0.999995 0.375140 0.000005 -0.144399
C82   C     C_1   0.499995 0.875139 0.000004 -0.144132
C83   C     C_R   0.500000 0.419527 0.000001 0.900002
C84   C     C_R   0.000000 0.919527 0.000001 0.900010
C85   C     C_R   0.580450 0.499955 0.919455 0.900467
C86   C     C_R   0.419550 0.499955 0.080544 0.900123
C87   C     C_R   0.080450 0.999955 0.919456 0.900295
C88   C     C_R   0.919550 0.999955 0.080543 0.900142
C89   C     C_R   0.499999 0.580483 1.000000 0.900723
C90   C     C_R   0.999999 0.080482 0.999999 0.900666
C91   C     C_R   0.513238 0.271795 0.933801 -0.176780
C92   C     C_R   0.486773 0.271789 0.066197 -0.176863
C93   C     C_R   0.009208 0.771793 0.935981 -0.176893
C94   C     C_R   0.990803 0.771789 0.064014 -0.176927
C95   C     C_R   0.500005 0.293440 1.000000 0.164439
C96   C     C_R   0.000005 0.793439 0.999998 0.164586
C97   C     C_R   0.990808 0.728343 0.064010 -0.179159
C98   C     C_R   0.009205 0.728348 0.935982 -0.179066
C99   C     C_R   0.486779 0.228343 0.066193 -0.178941
C100  C     C_R   0.513235 0.228349 0.933801 -0.178900
C101  C     C_R   0.000007 0.706703 0.999996 0.167468
C102  C     C_R   0.500007 0.206703 0.999996 0.166981
C103  C     C_1   0.500002 0.337900 0.000002 -0.065592
C104  C     C_1   0.000003 0.837899 1.000000 -0.065792
C105  C     C_1   0.000007 0.662254 0.999996 -0.066135
C106  C     C_1   0.500006 0.162253 0.999994 -0.065912
C107  C     C_1   0.000005 0.624928 0.999997 -0.178343
C108  C     C_1   0.500004 0.124928 0.999992 -0.178475
C109  C     C_1   0.499996 0.624679 0.000002 -0.171375
C110  C     C_1   0.999996 0.124679 0.000001 -0.171357
C111  C     C_1   0.500001 0.375234 0.000002 -0.169871
C112  C     C_1   0.000002 0.875234 0.000001 -0.170064
C113  C     C_R   0.500741 0.727796 0.055549 -0.189483
C114  C     C_R   0.499238 0.727799 0.944470 -0.189448
C115  C     C_R   0.002708 0.227794 0.053438 -0.189490
C116  C     C_R   0.997269 0.227797 0.946582 -0.189452
C117  C     C_R   0.499990 0.706339 0.000009 0.079836
C118  C     C_R   0.999990 0.206337 0.000009 0.079586
C119  C     C_R   0.999989 0.293273 0.000010 0.142541
C120  C     C_R   0.499990 0.793273 0.000009 0.142423
C121  C     C_R   0.997234 0.271329 0.945797 0.141194
C122  C     C_R   0.002742 0.271326 0.054225 0.141299
C123  C     C_R   0.499228 0.771330 0.943654 0.140178
C124  C     C_R   0.500752 0.771327 0.056365 0.139261
C125  C     C_3   0.035473 0.529780 0.250879 -0.533771
C126  C     C_3   0.964607 0.529878 0.749044 -0.533888
C127  C     C_3   0.534646 0.030824 0.251584 -0.532093
C128  C     C_3   0.464667 0.029954 0.748996 -0.533498
C129  C     C_3   0.033875 0.532840 0.180813 -0.055371
C130  C     C_3   0.966225 0.532928 0.819091 -0.055559
C131  C     C_3   0.532897 0.033782 0.181666 -0.057696
C132  C     C_3   0.466288 0.032993 0.819039 -0.056246
C133  C     C_3   0.008849 0.455541 0.274660 0.499587
C134  C     C_3   0.990997 0.455559 0.725491 0.499287
C135  C     C_3   0.510356 0.955775 0.273213 0.499744
C136  C     C_3   0.490891 0.955574 0.725594 0.499352
H1    H     H_    0.066501 0.517736 0.234392 0.140645
H2    H     H_    0.933544 0.517922 0.765569 0.140297
H3    H     H_    0.566046 0.019772 0.234692 0.140916
H4    H     H_    0.433575 0.018074 0.765546 0.140552
H5    H     H_    0.932873 0.489922 0.269504 0.243492
H6    H     H_    0.067078 0.489690 0.730540 0.242836
H7    H     H_    0.433316 0.987649 0.269207 0.242345
H8    H     H_    0.567055 0.989544 0.730552 0.242637
H9    H     H_    0.787441 0.479980 0.805534 0.173494
H10   H     H_    0.212565 0.470636 0.200165 0.174136
H11   H     H_    0.287430 0.973701 0.801998 0.173889
H12   H     H_    0.712564 0.969436 0.201089 0.174311
H13   H     H_    0.710986 0.480281 0.881019 0.168156
H14   H     H_    0.289019 0.471080 0.124610 0.168054
H15   H     H_    0.210976 0.974102 0.877526 0.168044
H16   H     H_    0.789018 0.969900 0.125522 0.168028
H17   H     H_    0.016340 0.711673 0.886309 0.142054
H18   H     H_    0.983675 0.711666 0.113683 0.141929
H19   H     H_    0.523497 0.211675 0.882437 0.142425
H20   H     H_    0.476517 0.211664 0.117555 0.142440
H21   H     H_    0.523507 0.288469 0.882434 0.145049
H22   H     H_    0.476502 0.288458 0.117566 0.145009
H23   H     H_    0.016349 0.788466 0.886302 0.144880
H24   H     H_    0.983662 0.788458 0.113694 0.144821
H25   H     H_    0.032050 0.561178 0.275799 0.242812
H26   H     H_    0.968130 0.561267 0.724028 0.242821
H27   H     H_    0.530255 0.062124 0.277398 0.243387
H28   H     H_    0.468262 0.061338 0.723917 0.242977
H29   H     H_    0.501324 0.710585 0.098376 0.160104
H30   H     H_    0.498656 0.710590 0.901642 0.160117
H31   H     H_    0.004806 0.210583 0.094634 0.160125
H32   H     H_    0.995172 0.210588 0.905384 0.160139
H33   H     H_    0.064955 0.523071 0.131627 0.173089
H34   H     H_    0.935116 0.523252 0.868314 0.172926
H35   H     H_    0.564252 0.024987 0.132145 0.172902
H36   H     H_    0.435160 0.023379 0.868280 0.173005
H37   H     H_    0.038876 0.443215 0.262800 0.016747
H38   H     H_    0.960933 0.443328 0.737374 0.016900
H39   H     H_    0.540744 0.944402 0.261035 0.015264
H40   H     H_    0.460797 0.943411 0.737513 0.016648
H41   H     H_    0.043459 0.449346 0.153548 0.019235
H42   H     H_    0.956363 0.449475 0.846618 0.019415
H43   H     H_    0.545151 0.950654 0.151941 0.021104
H44   H     H_    0.456253 0.949555 0.846733 0.019686
H45   H     H_    0.932275 0.497102 0.375248 0.219386
H46   H     H_    0.067696 0.496889 0.624769 0.217834
H47   H     H_    0.432538 0.994937 0.375127 0.218346
H48   H     H_    0.567681 0.996732 0.624777 0.217597
H49   H     H_    0.953133 0.548877 0.349286 0.189036
H50   H     H_    0.047000 0.548729 0.650577 0.189757
H51   H     H_    0.451772 0.047335 0.350679 0.189343
H52   H     H_    0.547104 0.048618 0.650463 0.189841
H53   H     H_    0.945460 0.544017 0.251469 0.173142
H54   H     H_    0.054676 0.543830 0.748397 0.173486
H55   H     H_    0.444132 0.042126 0.252867 0.174463
H56   H     H_    0.554766 0.043708 0.748291 0.173486
O1    O     O_R   0.939010 0.534400 0.560970 -0.617768
O2    O     O_R   0.060990 0.534400 0.439030 -0.615755
O3    O     O_R   0.439010 0.034400 0.560970 -0.616189
O4    O     O_R   0.560990 0.034400 0.439030 -0.615570
O5    O     O_R   0.560960 0.500010 0.886780 -0.614833
O6    O     O_R   0.439040 0.500010 0.113220 -0.614519
O7    O     O_R   0.060960 0.000010 0.886780 -0.614568
O8    O     O_R   0.939040 0.000010 0.113220 -0.614394
O9    O     O_R   0.560970 0.499940 0.991330 -0.613593
O10   O     O_R   0.439030 0.499940 0.008670 -0.613507
O11   O     O_R   0.060970 0.999940 0.991330 -0.613637
O12   O     O_R   0.939030 0.999940 0.008670 -0.613569
O13   O     O_R   0.500000 0.561000 0.947810 -0.614096
O14   O     O_R   0.500000 0.561000 0.052190 -0.614274
O15   O     O_R   0.000000 0.061000 0.947810 -0.614130
O16   O     O_R   1.000000 0.061000 0.052190 -0.614204
O17   O     O_R   0.938970 0.465540 0.561010 -0.606773
O18   O     O_R   0.061030 0.465540 0.438990 -0.608241
O19   O     O_R   0.438970 0.965540 0.561010 -0.608239
O20   O     O_R   0.561030 0.965540 0.438990 -0.608200
O21   O     O_R   0.999990 0.534400 0.407410 -0.637034
O22   O     O_R   0.000010 0.534400 0.592590 -0.636821
O23   O     O_R   0.499990 0.034400 0.407410 -0.636799
O24   O     O_R   0.500010 0.034400 0.592590 -0.636702
O25   O     O_R   0.999950 0.465540 0.407450 -0.574862
O26   O     O_R   0.000050 0.465540 0.592550 -0.574933
O27   O     O_R   0.499950 0.965540 0.407450 -0.573227
O28   O     O_R   0.500050 0.965540 0.592550 -0.574839
O29   O     O_R   0.965540 0.560940 0.034450 -0.622199
O30   O     O_R   0.034460 0.560940 0.965550 -0.622150
O31   O     O_R   0.465540 0.060940 0.034450 -0.622006
O32   O     O_R   0.534460 0.060940 0.965550 -0.621916
O33   O     O_R   0.965550 0.499950 0.127040 -0.606013
O34   O     O_R   0.034450 0.499950 0.872960 -0.606402
O35   O     O_R   0.465550 0.999950 0.127040 -0.608446
O36   O     O_R   0.534450 0.999950 0.872960 -0.606731
O37   O     O_R   0.034410 0.500000 0.058200 -0.650268
O38   O     O_R   0.965590 0.500000 0.941800 -0.650246
O39   O     O_R   0.534410 0.000000 0.058200 -0.649727
O40   O     O_R   0.465590 0.000000 0.941800 -0.650085
O41   O     O_R   0.965550 0.438960 0.034430 -0.605469
O42   O     O_R   0.034450 0.438960 0.965570 -0.605842
O43   O     O_R   0.465550 0.938960 0.034430 -0.606606
O44   O     O_R   0.534450 0.938960 0.965570 -0.605325
O45   O     O_R   0.499940 0.439020 0.947690 -0.614137
O46   O     O_R   0.500060 0.439020 0.052310 -0.614002
O47   O     O_R   0.999940 0.939020 0.947690 -0.614197
O48   O     O_R   0.000060 0.939020 0.052310 -0.614154
Zn1   Zn    Zn3+2 1.000000 0.545950 0.500000 0.962331
Zn2   Zn    Zn3+2 0.500000 0.045950 0.500000 0.963773
Zn3   Zn    Zn3+2 1.000000 0.454000 0.500000 1.056622
Zn4   Zn    Zn3+2 0.500000 0.954000 0.500000 1.056577
Zn5   Zn    Zn3+2 0.954000 0.499940 0.045990 0.987026
Zn6   Zn    Zn3+2 0.046000 0.499940 0.954010 0.986434
Zn7   Zn    Zn3+2 0.454000 0.999940 0.045990 0.985248
Zn8   Zn    Zn3+2 0.546000 0.999940 0.954010 0.986851
Zn9   Zn    Zn3+2 0.499970 0.500020 0.930220 0.977844
Zn10  Zn    Zn3+2 0.500030 0.500020 0.069780 0.977936
Zn11  Zn    Zn3+2 0.999970 0.000020 0.930220 0.977837
Zn12  Zn    Zn3+2 0.000030 0.000020 0.069780 0.977871
F1    F     F_    0.977410 0.428382 0.324417 -0.586065
F2    F     F_    0.022356 0.428311 0.675825 -0.586851
F3    F     F_    0.479769 0.927654 0.322096 -0.586542
F4    F     F_    0.522184 0.928253 0.675986 -0.587037
F5    F     F_    0.984596 0.428024 0.201477 -0.615096
F6    F     F_    0.015155 0.427963 0.798781 -0.615596
F7    F     F_    0.487009 0.927438 0.199136 -0.617174
F8    F     F_    0.515000 0.927921 0.798920 -0.616149
C137  C     C_3   0.707181 0.525296 0.675703 -0.787752
H57   H     H_    0.672720 0.524590 0.713722 0.228766
H58   H     H_    0.716605 0.557538 0.653781 0.256250
H59   H     H_    0.716569 0.503922 0.628157 0.258581
C138  C     C_3   0.292816 0.537098 0.317130 -0.788068
H60   H     H_    0.327276 0.536059 0.279314 0.228277
H61   H     H_    0.283388 0.570238 0.331520 0.256366
H62   H     H_    0.283427 0.519897 0.369120 0.258379
C139  C     C_3   0.207191 0.033212 0.680140 -0.788059
H63   H     H_    0.172729 0.032286 0.718033 0.228487
H64   H     H_    0.216620 0.066137 0.663187 0.256351
H65   H     H_    0.216576 0.014561 0.629537 0.258290
C140  C     C_3   0.792818 0.038608 0.315968 -0.787882
H66   H     H_    0.827276 0.037527 0.278182 0.228228
H67   H     H_    0.783385 0.071808 0.329342 0.256480
H68   H     H_    0.783431 0.021993 0.368472 0.258319
F9    F     F_    0.794413 0.523201 0.597573 -0.662544
F10   F     F_    0.205584 0.534036 0.395843 -0.663027
F11   F     F_    0.294422 0.030458 0.601652 -0.663247
F12   F     F_    0.705585 0.035425 0.394779 -0.663044
C141  C     C_3   0.005754 0.292635 0.113640 -0.830935
H69   H     H_    0.005572 0.327111 0.110741 0.266216
H70   H     H_    0.978983 0.283064 0.169987 0.250757
H71   H     H_    0.035103 0.283114 0.107539 0.237925
C142  C     C_3   0.994222 0.292641 0.886383 -0.830849
H72   H     H_    0.994400 0.327116 0.889288 0.266303
H73   H     H_    0.020995 0.283078 0.830035 0.250541
H74   H     H_    0.964875 0.283113 0.892481 0.238122
C143  C     C_3   0.501590 0.792634 0.118123 -0.827297
H75   H     H_    0.501538 0.827110 0.115091 0.267888
H76   H     H_    0.473830 0.783081 0.173365 0.249361
H77   H     H_    0.530081 0.783105 0.115132 0.238917
C144  C     C_3   0.498391 0.792640 0.881893 -0.829178
H78   H     H_    0.498441 0.827115 0.884929 0.267187
H79   H     H_    0.526152 0.783093 0.826653 0.249693
H80   H     H_    0.469901 0.783106 0.884881 0.238711
C145  C     C_3   0.027414 0.578310 0.165979 -0.857681
H81   H     H_    0.054166 0.597672 0.154627 0.244499
H82   H     H_    0.025789 0.580378 0.116177 0.232841
H83   H     H_    0.998549 0.591789 0.215062 0.248279
C146  C     C_3   0.972841 0.578373 0.833772 -0.857764
H84   H     H_    0.946155 0.597816 0.845053 0.244373
H85   H     H_    0.974479 0.580426 0.883564 0.232751
H86   H     H_    0.001753 0.591757 0.784640 0.248522
C147  C     C_3   0.524981 0.079001 0.168212 -0.856399
H87   H     H_    0.551094 0.099225 0.157470 0.244669
H88   H     H_    0.523300 0.080962 0.118460 0.231847
H89   H     H_    0.495695 0.091562 0.217686 0.248709
C148  C     C_3   0.472994 0.078423 0.833643 -0.856602
H90   H     H_    0.446350 0.097925 0.844885 0.244600
H91   H     H_    0.474627 0.080469 0.883440 0.232631
H92   H     H_    0.501935 0.091751 0.784494 0.248502

loop_
_geom_bond_atom_site_label_1
_geom_bond_atom_site_label_2
_ccdc_geom_bond_type
C15   C75   S    
C83   O45   A    
C71   O29   A    
C76   O36   A    
C42   C58   S    
C146  H84   S    
C141  H71   S    
C131  H35   S    
C84   C112  S    
C26   C50   A    
C19   F7    S    
C72   O32   A    
C29   C33   A    
C140  H68   S    
C92   H22   S    
C93   H23   S    
C89   O13   A    
C95   C103  S    
C45   O21   A    
C87   O7    A    
C91   C100  A    
C22   H54   S    
C86   O10   A    
C148  H91   S    
O33   Zn5   S    
C23   H7    S    
C35   C139  S    
C41   C49   A    
C25   C29   A    
C44   C60   S    
C116  C121  A    
C27   C31   A    
C28   C32   A    
C133  F1    S    
C94   C97   A    
C3    O3    A    
C78   C120  S    
C78   C82   T    
O5    Zn9   S    
C16   C20   S    
C115  C118  A    
C99   H20   S    
C13   C21   S    
C97   H18   S    
C94   C96   A    
C86   O6    A    
C100  H19   S    
O3    Zn2   S    
C13   C73   S    
C139  H64   S    
C130  C146  S    
C17   C133  S    
C19   H43   S    
C79   C81   S    
C14   C130  S    
C146  H86   S    
C17   H41   S    
C4    O4    A    
C134  H38   S    
O19   Zn4   S    
C79   O42   A    
C57   C61   T    
C12   C128  S    
C6    H50   S    
C59   C63   T    
C7    H47   S    
C60   C64   T    
C75   O35   A    
C142  H73   S    
O41   Zn5   S    
C113  C124  A    
C129  C145  S    
C116  C118  A    
O14   Zn10  S    
C122  C141  S    
C127  C131  S    
C21   H5    S    
C125  C129  S    
C5    C21   S    
C116  H32   S    
C132  H36   S    
C133  H37   S    
O8    Zn12  S    
C9    C133  S    
C136  H40   S    
O44   Zn8   S    
C73   O37   A    
C105  C107  T    
C6    H46   S    
C32   C36   A    
C7    H51   S    
C130  H34   S    
C137  H57   S    
C128  H28   S    
C25   H13   S    
O16   Zn12  S    
C70   C110  T    
C72   C108  S    
C147  H88   S    
C76   O40   A    
C132  C148  S    
C53   C65   T    
C43   C59   S    
C44   C52   A    
C52   H12   S    
O46   Zn10  S    
C145  H82   S    
C27   C51   A    
C119  C121  A    
O24   Zn2   S    
C91   H21   S    
C30   C34   A    
C1    O17   A    
C80   C82   S    
C104  C112  T    
O31   Zn7   S    
C56   C68   T    
C9    C125  S    
C11   C127  S    
C5    C9    S    
C144  H78   S    
C21   H53   S    
C8    C12   S    
C22   H6    S    
C143  H75   S    
C24   H56   S    
C88   O12   A    
C138  H61   S    
C42   C50   A    
C113  C117  A    
C114  C123  A    
C26   C30   A    
C90   O16   A    
C84   O47   A    
C17   F5    S    
C123  C144  S    
O23   Zn2   S    
C94   H24   S    
C16   C76   S    
O1    Zn1   S    
C27   H15   S    
C66   C86   S    
C137  H59   S    
C54   C66   T    
C141  H70   S    
C13   C17   S    
C135  F3    S    
C14   C22   S    
C128  H4    S    
C74   O34   A    
C106  C108  T    
C70   C118  S    
C7    C23   S    
C8    C24   S    
C18   C134  S    
C37   C41   A    
C114  C117  A    
O35   Zn7   S    
C40   C44   A    
O10   Zn9   S    
C15   C131  S    
C18   H42   S    
C12   C136  S    
C13   C129  S    
C10   C126  S    
O15   Zn11  S    
C92   C99   A    
C37   F9    S    
C58   C62   T    
C9    C45   S    
C46   O26   A    
O2    Zn1   S    
C71   C107  S    
C34   C138  S    
C11   C47   S    
C5    H49   S    
C12   C48   S    
O17   Zn3   S    
C8    H52   S    
C15   C19   S    
O18   Zn3   S    
C144  H80   S    
C113  H29   S    
C119  C122  A    
C126  C130  S    
C19   C135  S    
C6    C22   S    
C33   C137  S    
C143  H77   S    
O27   Zn4   S    
C103  C111  T    
C5    H45   S    
C80   O44   A    
O12   Zn11  S    
O32   Zn8   S    
C47   O23   A    
C120  C123  A    
C85   O9    A    
C50   H10   S    
C131  C147  S    
C83   O46   A    
C71   O30   A    
C139  H63   S    
C87   O11   A    
O34   Zn6   S    
C146  H85   S    
C26   H14   S    
C79   O41   A    
C124  C143  S    
C125  H1    S    
C72   O31   A    
C33   C37   A    
O4    Zn2   S    
C2    O2    A    
C35   C39   A    
C142  H72   S    
C11   C135  S    
C30   C54   S    
O6    Zn10  S    
C89   O14   A    
C77   C81   T    
C49   H9    S    
C121  C142  S    
C20   C136  S    
O38   Zn5   S    
O36   Zn8   S    
C85   O5    A    
O48   Zn12  S    
C31   C35   A    
C14   C74   S    
C36   C140  S    
C48   O28   A    
C127  H27   S    
C125  H25   S    
C1    C61   S    
C6    C10   S    
C3    C63   S    
C98   C101  A    
C4    C64   S    
C88   O8    A    
O21   Zn1   S    
C41   C57   S    
O42   Zn6   S    
O30   Zn6   S    
C43   C51   A    
C24   H8    S    
C16   C132  S    
C25   C49   A    
C18   F6    S    
O13   Zn9   S    
C39   F11   S    
C99   C102  A    
C40   F12   S    
C144  H79   S    
C147  H87   S    
C139  H65   S    
C31   C55   S    
C32   C56   S    
C48   O24   A    
C45   O25   A    
C145  H81   S    
C14   C18   S    
C1    O1    A    
O39   Zn8   S    
C74   O38   A    
C23   H55   S    
C20   H44   S    
C148  H90   S    
C7    C11   S    
O28   Zn4   S    
C29   C53   S    
O22   Zn1   S    
C129  H33   S    
C38   C42   A    
C142  H74   S    
C89   C109  S    
C140  H67   S    
C69   C109  T    
C38   F10   S    
C46   O22   A    
C10   C46   S    
C138  H60   S    
C8    H48   S    
C15   C23   S    
C98   H17   S    
C16   C24   S    
C115  C122  A    
C80   O43   A    
O45   Zn9   S    
C84   O48   A    
C127  H3    S    
C128  C132  S    
O43   Zn7   S    
C114  H30   S    
C101  C105  S    
C2    O18   A    
O47   Zn11  S    
C36   C40   A    
C134  F2    S    
C137  H58   S    
C39   C43   A    
C3    O19   A    
C141  H69   S    
C47   O27   A    
C92   C95   A    
O11   Zn12  S    
C135  H39   S    
O25   Zn3   S    
C51   H11   S    
C147  H89   S    
C100  C102  A    
C140  H66   S    
O26   Zn3   S    
C75   O39   A    
C20   F8    S    
O37   Zn6   S    
O7    Zn11  S    
C28   H16   S    
C93   C96   A    
C68   C88   S    
C145  H83   S    
C90   C110  S    
C115  H31   S    
C148  H92   S    
C126  H2    S    
C34   C38   A    
C136  F4    S    
C10   C134  S    
C77   C119  S    
C55   C67   T    
C65   C85   S    
C67   C87   S    
C4    O20   A    
O40   Zn7   S    
C96   C104  S    
O20   Zn4   S    
C73   O33   A    
C28   C52   A    
O29   Zn5   S    
C69   C117  S    
C143  H76   S    
C102  C106  S    
C83   C111  S    
C138  H62   S    
C90   O15   A    
C120  C124  A    
C91   C95   A    
O9    Zn10  S    
C126  H26   S    
C93   C98   A    
C97   C101  A    
C2    C62   S    
