data_mof_unit_pretest_28.cif
_audit_creation_date              2012-12-10T20:30:11-0500
_audit_creation_method            fapswitch 2.2
_symmetry_space_group_name_H-M    P1
_symmetry_Int_Tables_number       1
_space_group_crystal_system       triclinic
_cell_length_a                    9.872798
_cell_length_b                    10.676703
_cell_length_c                    13.126855
_cell_angle_alpha                 90.009363
_cell_angle_beta                  69.771498
_cell_angle_gamma                 90.002811
_cell_volume                      1298.34346052

loop_
_atom_site_label
_atom_site_type_symbol
_atom_type_description
_atom_site_fract_x
_atom_site_fract_y
_atom_site_fract_z
_atom_type_partial_charge
C1    C     C_R   0.501345 0.740040 0.496963 0.876303
C2    C     C_R   0.431014 0.481243 0.985061 0.089713
C3    C     C_R   0.457167 0.443099 0.877273 0.079513
C4    C     C_R   0.540542 0.461261 0.029812 0.071365
C5    C     C_R   0.662943 0.386780 0.974085 0.175583
C6    C     C_R   0.675810 0.334315 0.874039 -0.215812
C7    C     C_R   0.573986 0.361746 0.826179 -0.231448
C8    C     C_R   0.532529 0.515235 0.128109 -0.253298
C9    C     C_R   0.750553 0.408984 0.124334 -0.214981
C10   C     C_R   0.367323 0.489827 0.822607 -0.121975
C11   C     C_R   0.384953 0.936172 0.482412 0.141474
C12   C     C_R   0.419742 0.494791 0.704291 0.857551
C13   C     C_R   0.508343 0.871468 0.480159 -0.104401
C14   C     C_R   0.639741 0.935254 0.457332 -0.228073
C15   C     C_R   0.639835 0.064781 0.457105 -0.230140
C16   C     C_R   0.508515 0.128611 0.479766 -0.102122
C17   C     C_R   0.385057 0.063913 0.482142 0.126630
C18   C     C_3   0.234245 0.071285 0.561538 -0.459217
C19   C     C_3   0.234225 0.929298 0.561984 -0.509329
C20   C     C_R   0.905253 0.593310 0.551263 0.116109
C21   C     C_R   0.955191 0.414840 0.441013 -0.124668
C22   C     C_R   0.099164 0.414910 0.440912 -0.097462
C23   C     C_R   0.501497 0.259990 0.496737 0.867178
C24   C     C_R   0.047338 0.592421 0.552199 0.092306
C25   C     C_3   0.996552 0.620927 0.670713 0.428267
C26   C     C_3   0.843943 0.625446 0.668870 -0.516433
C27   C     C_R   0.580312 0.499336 0.295685 0.862699
C28   C     C_R   0.769045 0.363816 0.020657 -0.156837
C29   C     C_R   0.629036 0.481474 0.179046 -0.057755
C30   C     C_R   0.237114 0.549566 0.880931 -0.157854
C31   C     C_R   0.199554 0.568805 0.991797 -0.159822
C32   C     C_R   0.296561 0.537984 0.043467 -0.199779
H1    H     H_    0.826091 0.381844 0.163679 0.152472
H2    H     H_    0.739810 0.113828 0.446704 0.165881
H3    H     H_    0.228555 0.113023 0.640564 0.208880
H4    H     H_    0.158295 0.112088 0.524726 0.202800
H5    H     H_    0.228859 0.888423 0.641222 0.198265
H6    H     H_    0.158054 0.887955 0.525633 0.195278
H7    H     H_    0.922018 0.344554 0.395087 0.130883
H8    H     H_    0.174547 0.344694 0.394849 0.137180
H9    H     H_    0.036801 0.711648 0.690365 0.050656
H10   H     H_    0.773129 0.551025 0.718571 0.256943
H11   H     H_    0.766011 0.273930 0.831771 0.164926
H12   H     H_    0.796533 0.721066 0.682253 0.151237
H13   H     H_    0.862378 0.306412 0.979127 0.148820
H14   H     H_    0.447355 0.579820 0.169909 0.146531
H15   H     H_    0.167065 0.585870 0.840290 0.208001
H16   H     H_    0.262313 0.557190 0.129344 0.134100
H17   H     H_    0.097911 0.613303 0.036919 0.152119
H18   H     H_    0.587545 0.318373 0.748766 0.175336
H19   H     H_    0.739665 0.886202 0.447076 0.169576
N1    N     N_R   0.856940 0.500860 0.500710 -0.083428
N2    N     N_R   0.142580 0.500820 0.500710 -0.074235
O1    O     O_R   0.385310 0.683210 0.499990 -0.624549
O2    O     O_R   0.614650 0.683240 0.500000 -0.615369
O3    O     O_R   0.328390 0.499940 0.653610 -0.556285
O4    O     O_R   0.557730 0.499980 0.653620 -0.616818
O5    O     O_R   0.385350 0.316760 0.500000 -0.609972
O6    O     O_R   0.614690 0.316790 0.500010 -0.631461
O7    O     O_R   0.442270 0.500020 0.346380 -0.620662
O8    O     O_R   0.671610 0.500060 0.346390 -0.618147
Zn1   Zn    Zn3+2 0.346870 0.499980 0.499990 0.976752
Zn2   Zn    Zn3+2 0.653130 0.500020 0.500010 0.938032
F1    F     F_    0.016236 0.520307 0.730641 -0.657025

loop_
_geom_bond_atom_site_label_1
_geom_bond_atom_site_label_2
_ccdc_geom_bond_type
O5    Zn1   S    
C23   O5    A    
C2    C4    A    
C1    O1    A    
C18   H4    S    
C6    C7    A    
C19   H6    S    
C27   C29   S    
C5    C28   A    
C11   C13   A    
C18   H3    S    
C10   C30   A    
C15   H2    S    
O6    Zn2   S    
C31   C32   A    
C21   H7    S    
C9    C29   A    
C30   C31   A    
C4    C8    A    
C22   H8    S    
C16   C23   S    
C17   C18   S    
C1    O2    A    
C26   H12   S    
C20   N1    A    
C3    C10   A    
C21   C22   A    
C23   O6    A    
C32   H16   S    
C11   C19   S    
C12   O3    A    
O2    Zn2   S    
C10   C12   S    
C31   H17   S    
C8    C29   A    
O7    Zn1   S    
O4    Zn2   S    
C22   N2    A    
C2    C3    A    
C6    H11   S    
C27   O7    A    
C5    C6    A    
O3    Zn1   S    
C28   H13   S    
C1    C13   S    
C12   O4    A    
C15   C16   A    
C16   C17   A    
C20   C24   A    
C30   H15   S    
C24   C25   S    
C26   H10   S    
C2    C32   A    
C18   C19   S    
N2    Zn1   S    
C25   H9    S    
C7    H18   S    
O8    Zn2   S    
C14   C15   A    
C11   C17   A    
C19   H5    S    
C3    C7    A    
C25   C26   S    
C13   C14   A    
O1    Zn1   S    
C9    C28   A    
N1    Zn2   S    
C21   N1    A    
C8    H14   S    
C14   H19   S    
C24   N2    A    
C20   C26   S    
C4    C5    A    
C9    H1    S    
C25   F1    S    
C27   O8    A    
