data_mof_unit_pretest_1064.cif
_audit_creation_date              2012-12-10T17:32:24-0500
_audit_creation_method            fapswitch 2.2
_symmetry_space_group_name_H-M    P1
_symmetry_Int_Tables_number       1
_space_group_crystal_system       triclinic
_cell_length_a                    15.807376
_cell_length_b                    15.471172
_cell_length_c                    15.382837
_cell_angle_alpha                 90.612251
_cell_angle_beta                  72.708156
_cell_angle_gamma                 111.261207
_cell_volume                      3327.50362698

loop_
_atom_site_label
_atom_site_type_symbol
_atom_type_description
_atom_site_fract_x
_atom_site_fract_y
_atom_site_fract_z
_atom_type_partial_charge
C1    C     C_R   0.461431 0.258817 0.463661 0.499581
C2    C     C_R   0.528405 0.508065 0.113660 -0.119587
C3    C     C_R   0.616913 0.669626 0.125187 -0.165377
C4    C     C_R   0.533984 0.740955 0.536518 0.509891
C5    C     C_R   0.428074 0.425671 0.840504 0.023683
C6    C     C_R   0.324023 0.008129 0.458068 -0.135802
C7    C     C_R   0.441512 0.161054 0.453875 0.037461
C8    C     C_R   0.639642 0.894600 0.561492 -0.128859
C9    C     C_R   0.669637 0.990956 0.555337 -0.139462
C10   C     C_R   0.616149 0.035008 0.530981 -0.113935
C11   C     C_R   0.528097 0.982632 0.516253 0.032336
C12   C     C_R   0.391194 0.301771 0.956526 -0.135512
C13   C     C_R   0.493857 0.883704 0.530201 0.031993
C14   C     C_R   0.472189 0.024969 0.489402 0.030772
C15   C     C_R   0.381335 0.968007 0.482164 0.050870
C16   C     C_R   0.753526 0.548379 0.466045 0.539865
C17   C     C_R   0.346127 0.871863 0.503378 -0.151157
C18   C     C_R   0.400426 0.830518 0.529106 -0.124269
C19   C     C_R   0.502130 0.122259 0.471715 -0.123951
C20   C     C_R   0.353084 0.104386 0.445884 -0.126313
C21   C     C_R   0.553603 0.840343 0.546160 0.034134
C22   C     C_R   0.015800 0.675606 0.378884 0.264787
C23   C     C_R   0.436719 0.366652 0.007284 -0.101947
C24   C     C_R   0.853549 0.572126 0.450549 -0.014936
C25   C     C_R   0.074260 0.366088 0.613308 -0.205396
C26   C     C_R   0.981324 0.361980 0.648788 -0.002363
C27   C     C_R   0.953180 0.426604 0.614593 0.263836
C28   C     C_R   0.243973 0.449252 0.531663 0.545072
C29   C     C_R   0.014228 0.486631 0.532248 -0.019963
C30   C     C_R   0.112628 0.495351 0.497268 -0.000096
C31   C     C_R   0.980270 0.539993 0.485432 -0.032848
C32   C     C_R   0.045847 0.615091 0.419280 -0.054610
C33   C     C_R   0.139187 0.623443 0.385671 -0.126430
C34   C     C_R   0.474358 0.463709 0.978581 0.010152
C35   C     C_R   0.174183 0.563914 0.418778 0.270393
C36   C     C_R   0.882766 0.517145 0.496938 -0.174852
C37   C     C_R   0.919026 0.650507 0.390622 0.261670
C38   C     C_R   0.142662 0.435563 0.543905 -0.001424
C39   C     C_R   0.552445 0.553162 0.259221 0.496129
C40   C     C_R   0.448074 0.450206 0.742460 0.507101
C41   C     C_R   0.614684 0.695025 0.039862 -0.127495
C42   C     C_R   0.571882 0.576586 0.162608 0.031630
C43   C     C_R   0.388145 0.330672 0.873042 -0.118896
C44   C     C_3   0.894696 0.677366 0.256726 0.025111
C45   C     C_R   0.463063 0.493579 0.897201 -0.031544
C46   C     C_3   0.851087 0.729066 0.210137 -0.256685
C47   C     C_3   0.856118 0.702162 0.113453 -0.486931
C48   C     C_3   0.109549 0.829152 0.374527 0.002437
C49   C     C_3   0.038151 0.878385 0.399145 -0.243078
C50   C     C_3   0.074518 0.966366 0.444698 -0.499065
C51   C     C_3   0.653680 0.769721 0.795387 0.016609
C52   C     C_3   0.751878 0.780688 0.802103 -0.283635
C53   C     C_3   0.826555 0.801680 0.707380 -0.482443
C54   C     C_3   0.878011 0.511671 0.709084 0.005010
C55   C     C_3   0.867157 0.489325 0.809470 -0.253397
C56   C     C_R   0.522731 0.531831 0.028049 -0.020259
C57   C     C_3   0.864725 0.571979 0.863885 -0.483828
C58   C     C_1   0.916028 0.294107 0.725760 0.230493
C59   C     C_3   0.333424 0.657297 0.339330 0.040138
C60   C     C_3   0.372730 0.678581 0.234895 -0.262708
C61   C     C_3   0.449081 0.776790 0.206064 -0.469805
C62   C     C_1   0.441942 0.623199 0.821142 0.248802
C63   C     C_R   0.564255 0.627770 0.992433 0.038011
C64   C     C_R   0.549301 0.656286 0.913852 0.244040
C65   C     C_R   0.488143 0.590183 0.874574 -0.011562
H1    H     H_    0.649496 0.723150 0.164151 0.104383
H2    H     H_    0.828295 0.453649 0.536442 0.182058
H3    H     H_    0.095031 0.318409 0.645485 0.148653
H4    H     H_    0.647499 0.768292 0.014022 0.158388
H5    H     H_    0.492700 0.438209 0.148144 0.105837
H6    H     H_    0.359679 0.277974 0.831309 0.138186
H7    H     H_    0.442151 0.337892 0.067847 0.106242
H8    H     H_    0.362626 0.228030 0.979789 0.120664
H9    H     H_    0.305258 0.134812 0.433555 0.110077
H10   H     H_    0.855154 0.600881 0.258956 0.145947
H11   H     H_    0.970978 0.695676 0.215188 0.171144
H12   H     H_    0.275311 0.828378 0.501745 0.093141
H13   H     H_    0.775036 0.712018 0.251267 0.167879
H14   H     H_    0.890414 0.805514 0.206458 0.171249
H15   H     H_    0.812623 0.626900 0.115981 0.160709
H16   H     H_    0.827678 0.743657 0.080044 0.148311
H17   H     H_    0.931343 0.716657 0.071539 0.149320
H18   H     H_    0.180170 0.880210 0.332143 0.149764
H19   H     H_    0.120411 0.806229 0.437585 0.103539
H20   H     H_    0.025492 0.897435 0.335971 0.196912
H21   H     H_    0.969006 0.830642 0.447265 0.184907
H22   H     H_    0.085399 0.948610 0.509287 0.146169
H23   H     H_    0.254849 0.964942 0.452959 0.094202
H24   H     H_    0.020960 0.999696 0.461361 0.153442
H25   H     H_    0.142808 0.016901 0.397829 0.146425
H26   H     H_    0.632673 0.716406 0.748501 0.155677
H27   H     H_    0.659810 0.836591 0.763214 0.163232
H28   H     H_    0.775077 0.838382 0.843903 0.171294
H29   H     H_    0.746997 0.715356 0.836178 0.153828
H30   H     H_    0.834034 0.867470 0.671883 0.148951
H31   H     H_    0.896816 0.809573 0.714428 0.144784
H32   H     H_    0.805681 0.743599 0.665289 0.160836
H33   H     H_    0.820862 0.536398 0.706560 0.159514
H34   H     H_    0.569223 0.170239 0.476887 0.102807
H35   H     H_    0.947440 0.570670 0.676147 0.118340
H36   H     H_    0.799757 0.428200 0.840952 0.195744
H37   H     H_    0.928149 0.471431 0.813092 0.165030
H38   H     H_    0.931026 0.634371 0.833293 0.146744
H39   H     H_    0.859281 0.554397 0.935669 0.154256
H40   H     H_    0.801662 0.588326 0.864630 0.147471
H41   H     H_    0.392196 0.663048 0.366011 0.226311
H42   H     H_    0.310594 0.713622 0.371168 0.076536
H43   H     H_    0.403923 0.627031 0.205141 0.200435
H44   H     H_    0.314025 0.672232 0.206657 0.163275
H45   H     H_    0.685824 0.862722 0.575103 0.125104
H46   H     H_    0.418091 0.829438 0.232707 0.151345
H47   H     H_    0.477105 0.789720 0.130162 0.172880
H48   H     H_    0.509233 0.784680 0.232722 0.153813
H49   H     H_    0.645410 0.110025 0.525652 0.110404
H50   H     H_    0.736524 0.032099 0.566675 0.124246
H51   H     H_    0.366579 0.756459 0.550497 0.147278
H52   H     H_    0.183831 0.672092 0.325284 0.156866
N1    N     N_1   0.863649 0.239738 0.787483 -0.302034
N2    N     N_1   0.405066 0.649759 0.778724 -0.304116
O1    O     O_3   0.500000 0.500000 0.500000 -0.438652
O2    O     O_R   0.588830 0.499590 0.285390 -0.541888
O3    O     O_R   0.395900 0.395880 0.699370 -0.544899
O4    O     O_R   0.493280 0.582590 0.315890 -0.564626
O5    O     O_R   0.521980 0.521940 0.699340 -0.546355
O6    O     O_3   0.887810 0.704186 0.345892 -0.572597
O7    O     O_3   0.080869 0.755189 0.321389 -0.578779
O8    O     O_3   0.584452 0.750689 0.883479 -0.578803
O9    O     O_3   0.865389 0.429806 0.663746 -0.583652
O10   O     O_3   0.262341 0.564741 0.364369 -0.535795
O11   O     O_R   0.708210 0.582550 0.530770 -0.542684
O12   O     O_R   0.270260 0.395900 0.573760 -0.551356
O13   O     O_R   0.537060 0.322180 0.411040 -0.539588
O14   O     O_R   0.484470 0.699370 0.484430 -0.586460
O15   O     O_R   0.404710 0.279110 0.530840 -0.543039
O16   O     O_R   0.573760 0.699350 0.573690 -0.543006
O17   O     O_R   0.714470 0.499570 0.411000 -0.547288
O18   O     O_R   0.307050 0.521980 0.484470 -0.505839
Zn1   Zn    Zn3+2 0.574690 0.574670 0.574650 0.936971
Zn2   Zn    Zn3+2 0.583640 0.456100 0.403530 0.934167
Zn3   Zn    Zn3+2 0.447120 0.574690 0.447120 0.919792
Zn4   Zn    Zn3+2 0.394550 0.394550 0.574700 0.944394

loop_
_geom_bond_atom_site_label_1
_geom_bond_atom_site_label_2
_ccdc_geom_bond_type
O16   Zn1   S    
C57   H40   S    
C3    C42   A    
C34   C56   A    
C53   H30   S    
C1    O13   A    
C36   H2    S    
C6    H23   S    
O13   Zn2   S    
C33   H52   S    
C55   H37   S    
C26   C27   A    
C24   C36   A    
C22   C32   A    
C13   C18   A    
O5    Zn1   S    
C12   C43   A    
C31   C36   A    
C46   H14   S    
C25   C38   A    
C11   C14   A    
C22   O7    S    
C27   C29   A    
C58   N1    T    
C39   O4    A    
C30   C38   A    
C47   H17   S    
C44   H11   S    
C60   H44   S    
C51   H26   S    
C6    C15   A    
C46   C47   S    
C50   H25   S    
C3    C41   A    
C49   H21   S    
C8    C9    A    
C52   H29   S    
O1    Zn3   S    
C16   O11   A    
C9    C10   A    
C35   O10   S    
C60   H43   S    
C23   C34   A    
C5    C43   A    
C59   C60   S    
C16   C24   S    
C12   H8    S    
C53   H31   S    
C54   H35   S    
C25   H3    S    
C47   H15   S    
O17   Zn2   S    
C57   H38   S    
C23   H7    S    
C44   C46   S    
C24   C37   A    
C39   C42   S    
C37   O6    S    
C40   O5    A    
O18   Zn3   S    
C44   O6    S    
C59   H41   S    
O1    Zn4   S    
C20   H9    S    
C51   C52   S    
C9    H50   S    
C16   O17   A    
C49   H20   S    
C10   C11   A    
C18   H51   S    
C46   H13   S    
C19   H34   S    
C53   H32   S    
C25   C26   A    
C22   C37   A    
C54   O9    S    
O4    Zn3   S    
C59   H42   S    
C48   H19   S    
C60   C61   S    
C44   H10   S    
C29   C30   A    
C8    C21   A    
C8    H45   S    
C51   H27   S    
C27   O9    S    
C50   H24   S    
C31   C32   A    
C12   C23   A    
C28   C38   S    
C64   O8    S    
C17   H12   S    
C17   C18   A    
C56   C63   A    
C13   C21   A    
C52   H28   S    
O1    Zn2   S    
C26   C58   S    
C62   N2    T    
C34   C45   A    
C50   H22   S    
C4    O16   A    
C30   C35   A    
C48   C49   S    
C7    C20   A    
C7    C19   A    
C55   C57   S    
C61   H48   S    
C3    H1    S    
O1    Zn1   S    
C41   C63   A    
C1    O15   A    
O11   Zn1   S    
C6    C20   A    
C52   C53   S    
C41   H4    S    
C15   C17   A    
C57   H39   S    
C54   C55   S    
C59   O10   S    
C43   H6    S    
C62   C65   S    
C1    C7    S    
C14   C19   A    
C28   O18   A    
C10   H49   S    
C40   O3    A    
C55   H36   S    
C39   O2    A    
C48   H18   S    
C28   O12   A    
C51   O8    S    
C64   C65   A    
O2    Zn2   S    
C29   C31   A    
C2    C56   A    
C32   C33   A    
O15   Zn4   S    
C45   C65   A    
C4    C21   S    
C11   C13   A    
C5    C45   A    
C2    C42   A    
C33   C35   A    
C47   H16   S    
O12   Zn4   S    
C48   O7    S    
C63   C64   A    
O14   Zn3   S    
C49   C50   S    
C5    C40   S    
C14   C15   A    
C54   H33   S    
O3    Zn4   S    
C2    H5    S    
C61   H47   S    
C4    O14   A    
C61   H46   S    
