data_mof_unit_pretest_143.cif
_audit_creation_date              2012-12-11T16:19:48-0500
_audit_creation_method            fapswitch 2.2
_symmetry_space_group_name_H-M    P1
_symmetry_Int_Tables_number       1
_space_group_crystal_system       triclinic
_cell_length_a                    13.529132
_cell_length_b                    14.042086
_cell_length_c                    30.077199
_cell_angle_alpha                 97.481918
_cell_angle_beta                  90.31632
_cell_angle_gamma                 118.75338
_cell_volume                      4951.49670931

loop_
_atom_site_label
_atom_site_type_symbol
_atom_type_description
_atom_site_fract_x
_atom_site_fract_y
_atom_site_fract_z
_atom_type_partial_charge
C1    C     C_R   0.720321 0.098549 0.568823 0.553673
C2    C     C_R   0.323734 0.639446 0.669820 -0.015630
C3    C     C_R   0.229240 0.627282 0.644581 0.065568
C4    C     C_R   0.244943 0.664966 0.602331 0.015617
C5    C     C_R   0.216817 0.618559 0.826540 0.063690
C6    C     C_R   0.212259 0.606397 0.872100 -0.113908
C7    C     C_R   0.395702 0.614067 0.874201 0.027336
C8    C     C_R   0.400276 0.625559 0.828438 -0.154185
C9    C     C_R   0.310787 0.624309 0.804313 -0.014292
C10   C     C_1   0.316764 0.626409 0.756686 0.096209
C11   C     C_1   0.320344 0.629784 0.716933 0.106754
C12   C     C_R   0.381641 0.783940 0.549913 0.572288
C13   C     C_R   0.296691 0.597032 0.895695 -0.020928
C14   C     C_3   0.302040 0.031695 0.718274 -0.045836
C15   C     C_3   0.253518 0.186090 0.715211 -0.198557
C16   C     C_3   0.243766 0.196535 0.766572 -0.238655
C17   C     C_1   0.298116 0.196397 0.877940 0.046929
C18   C     C_3   0.339247 0.145831 0.702459 -0.002729
C19   C     C_3   0.282663 0.038981 0.769898 -0.043385
C20   C     C_3   0.319995 0.160950 0.790153 -0.010301
C21   C     C_3   0.443402 0.237058 0.779834 -0.208890
C22   C     C_3   0.454281 0.229892 0.728449 -0.252090
C23   C     C_R   0.398396 0.118179 0.569595 0.560558
C24   C     C_1   0.308332 0.175815 0.838766 -0.001341
C25   C     C_1   0.353451 0.140981 0.653867 -0.016072
C26   C     C_1   0.369697 0.133413 0.614607 0.033004
C27   C     C_3   0.714356 0.162181 0.726517 -0.259703
C28   C     C_3   0.919786 0.272518 0.719036 -0.219676
C29   C     C_3   0.942847 0.291802 0.771340 -0.058022
C30   C     C_1   0.900419 0.206917 0.878900 0.117672
C31   C     C_3   0.814786 0.159356 0.702583 -0.042291
C32   C     C_3   0.729826 0.167742 0.779133 0.055885
C33   C     C_3   0.853208 0.187130 0.790834 -0.062054
C34   C     C_R   0.720358 0.095755 0.442943 0.540282
C35   C     C_3   0.864524 0.087342 0.768113 -0.246406
C36   C     C_3   0.833488 0.062840 0.715990 0.077341
C37   C     C_1   0.875695 0.198184 0.839687 0.074294
C38   C     C_1   0.791935 0.146960 0.653792 0.036347
C39   C     C_1   0.765965 0.129590 0.614249 0.072142
C40   C     C_3   0.354650 0.790626 0.270480 -0.237721
C41   C     C_3   0.230057 0.580821 0.269079 0.066477
C42   C     C_3   0.223566 0.577411 0.215583 -0.082908
C43   C     C_1   0.313263 0.613070 0.110220 0.076188
C44   C     C_3   0.344759 0.687399 0.288941 -0.006198
C45   C     C_R   0.382326 0.784909 0.424821 0.555002
C46   C     C_3   0.362214 0.780349 0.218822 -0.227364
C47   C     C_3   0.340276 0.663176 0.199900 -0.030629
C48   C     C_3   0.435933 0.645182 0.220403 -0.051523
C49   C     C_3   0.446859 0.673835 0.272575 -0.251063
C50   C     C_1   0.333090 0.643857 0.150169 0.002878
C51   C     C_1   0.355561 0.709916 0.338528 0.031755
C52   C     C_1   0.366093 0.737503 0.378600 0.054658
C53   C     C_R   0.349311 0.132329 0.402466 -0.002180
C54   C     C_R   0.382907 0.237871 0.390730 0.041546
C55   C     C_R   0.357803 0.245210 0.346330 -0.107273
C56   C     C_R   0.394799 0.115118 0.443531 0.565951
C57   C     C_R   0.296990 0.150068 0.314991 0.006938
C58   C     C_R   0.254969 0.046813 0.327793 -0.125784
C59   C     C_R   0.280612 0.037870 0.371162 -0.147053
C60   C     C_R   0.231721 0.091039 0.149416 -0.105580
C61   C     C_R   0.238624 0.106431 0.104159 0.021240
C62   C     C_R   0.390751 0.295288 0.127637 0.026864
C63   C     C_R   0.383670 0.276118 0.172010 -0.104369
C64   C     C_R   0.301306 0.176866 0.182966 -0.003336
C65   C     C_1   0.291845 0.164097 0.229186 0.031270
C66   C     C_1   0.290428 0.157551 0.268445 0.009980
C67   C     C_R   0.354437 0.711681 0.585631 -0.035431
C68   C     C_R   0.312712 0.212672 0.093097 -0.030955
C69   C     C_R   0.784202 0.137372 0.404037 0.021462
C70   C     C_R   0.804287 0.067283 0.372296 -0.126503
C71   C     C_R   0.839974 0.097971 0.330588 -0.102619
C72   C     C_R   0.856469 0.198880 0.320520 0.044065
C73   C     C_R   0.845499 0.272802 0.353079 -0.094566
C74   C     C_R   0.809947 0.242412 0.394841 -0.114408
C75   C     C_R   0.867656 0.290811 0.165562 -0.090473
C76   C     C_R   0.880738 0.290154 0.119446 -0.089136
C77   C     C_R   0.930572 0.145850 0.119091 -0.117380
C78   C     C_R   0.440463 0.699834 0.607512 0.043464
C79   C     C_R   0.922201 0.148478 0.165354 0.057771
C80   C     C_R   0.891821 0.223100 0.188740 0.019294
C81   C     C_1   0.881141 0.226589 0.236076 0.078578
C82   C     C_1   0.871923 0.219466 0.275242 0.070170
C83   C     C_R   0.915411 0.219720 0.096176 0.000122
C84   C     C_R   0.283814 0.232496 0.922776 0.560031
C85   C     C_R   0.266251 0.547701 0.937875 0.569562
C86   C     C_R   0.945790 0.222474 0.923561 0.563442
C87   C     C_R   0.292319 0.243787 0.049890 0.567441
C88   C     C_R   0.275933 0.559531 0.064707 0.567205
C89   C     C_R   0.425317 0.668517 0.650261 -0.124725
C90   C     C_R   0.956393 0.233287 0.050963 0.547935
Cr1   Cr    Cr6+3 0.583400 0.162540 0.509180 1.069089
Cr2   Cr    Cr6+3 0.584070 0.916690 0.495550 1.081479
Cr3   Cr    Cr6+3 0.332550 0.920810 0.495240 1.082107
Cr4   Cr    Cr6+3 0.086700 0.177000 0.983690 1.093707
Cr5   Cr    Cr6+3 0.336880 0.419130 0.994740 1.115981
Cr6   Cr    Cr6+3 0.084850 0.422220 0.995960 1.079424
H1    H     H_    0.137973 0.597445 0.888618 0.193549
H2    H     H_    0.280635 0.267214 0.704200 0.157745
H3    H     H_    0.169557 0.128598 0.697827 0.210742
H4    H     H_    0.519340 0.205312 0.719716 0.131295
H5    H     H_    0.709091 0.233908 0.717637 0.154120
H6    H     H_    0.905235 0.339065 0.709523 0.167736
H7    H     H_    0.930226 0.362157 0.785121 0.184788
H8    H     H_    0.811658 0.014616 0.784728 0.175593
H9    H     H_    0.281515 0.803065 0.278910 0.193940
H10   H     H_    0.206709 0.495290 0.198650 0.161699
H11   H     H_    0.452944 0.608713 0.287916 0.139928
H12   H     H_    0.431438 0.866060 0.286697 0.124351
H13   H     H_    0.446117 0.843610 0.210766 0.187415
H14   H     H_    0.408983 0.555984 0.211992 0.150590
H15   H     H_    0.172550 0.012084 0.158649 0.184851
H16   H     H_    0.208171 0.972980 0.303497 0.138340
H17   H     H_    0.440055 0.340780 0.198499 0.142554
H18   H     H_    0.387446 0.324887 0.335761 0.162151
H19   H     H_    0.867997 0.347179 0.102406 0.150111
H20   H     H_    0.858587 0.351174 0.345426 0.152852
H21   H     H_    0.796129 0.298546 0.418860 0.143337
H22   H     H_    0.785232 0.986098 0.378441 0.141113
H23   H     H_    0.958404 0.091456 0.101657 0.187985
H24   H     H_    0.848528 0.040435 0.305317 0.147898
O1    O     O_R   0.494060 0.188820 0.559230 -0.494303
O2    O     O_R   0.480140 0.824500 0.445020 -0.496630
O3    O     O_R   0.308480 0.808690 0.440220 -0.497140
O4    O     O_R   0.340970 0.020670 0.455610 -0.511236
O5    O     O_3   0.500010 0.000010 0.499990 -0.278350
O6    O     O_R   0.969690 0.151000 0.934080 -0.504738
O7    O     O_R   0.187530 0.180840 0.938210 -0.486614
O8    O     O_R   0.358160 0.327300 0.941250 -0.490352
O9    O     O_R   0.323950 0.507710 0.953980 -0.466714
O10   O     O_R   0.170530 0.527770 0.952070 -0.509389
O11   O     O_R   0.987720 0.318450 0.945940 -0.481314
O12   O     O_R   0.678470 0.153390 0.554100 -0.506238
O13   O     O_R   0.976400 0.159230 0.032040 -0.511362
O14   O     O_R   0.193740 0.188470 0.029020 -0.473635
O15   O     O_R   0.364860 0.335530 0.039220 -0.476392
O16   O     O_R   0.330170 0.515340 0.044800 -0.460311
O17   O     O_R   0.177230 0.536000 0.050040 -0.494827
O18   O     O_R   0.993930 0.326080 0.036750 -0.488553
O19   O     O_3   0.169480 0.339450 0.991460 -0.286306
O20   O     O_R   0.697870 0.003940 0.549410 -0.473860
O21   O     O_R   0.480980 0.827230 0.535590 -0.460651
O22   O     O_R   0.309390 0.811640 0.537920 -0.479734
O23   O     O_R   0.341810 0.023400 0.546180 -0.478593
O24   O     O_R   0.493150 0.185870 0.461540 -0.473033
O25   O     O_R   0.677630 0.150660 0.463530 -0.505503
O26   O     O_R   0.696960 0.000990 0.451710 -0.513416
C91   C     C_2   0.199906 0.934723 0.691141 0.598159
O27   O     O_2   0.171727 0.841873 0.698574 -0.417236
O28   O     O_R   0.139018 0.949502 0.657500 -0.678961
H25   H     H_    0.073559 0.877697 0.642232 0.390890
H26   H     H_    0.154003 0.145897 0.773712 0.151398
H27   H     H_    0.270367 0.283547 0.780246 0.173727
H28   H     H_    0.484075 0.312558 0.718553 0.152335
H29   H     H_    0.500839 0.213365 0.795505 0.206490
H30   H     H_    0.373610 0.014263 0.712736 0.132015
C92   C     C_2   0.338883 0.986478 0.793977 0.582348
O29   O     O_2   0.404900 0.036415 0.827242 -0.486900
O30   O     O_R   0.312992 0.878514 0.778079 -0.610925
H31   H     H_    0.354455 0.851720 0.796782 0.352513
C93   C     C_2   0.119762 0.620044 0.803321 0.597394
O31   O     O_2   0.029209 0.586551 0.820292 -0.507837
O32   O     O_R   0.131232 0.661287 0.762749 -0.620186
H32   H     H_    0.059770 0.659833 0.751379 0.376039
H33   H     H_    0.470803 0.323727 0.794638 0.152725
C94   C     C_2   0.716409 0.262944 0.804434 0.538256
O33   O     O_2   0.700455 0.265887 0.844500 -0.445026
O34   O     O_R   0.726743 0.349609 0.782933 -0.735655
H34   H     H_    0.717323 0.407143 0.803710 0.366235
H35   H     H_    0.992751 0.278331 0.700709 0.242620
C95   C     C_2   0.066124 0.329128 0.785734 0.546920
O35   O     O_2   0.135955 0.346301 0.757888 -0.542142
O36   O     O_R   0.101733 0.350660 0.831385 -0.718808
H36   H     H_    0.185066 0.374819 0.836732 0.324620
C96   C     C_2   0.728683 0.949400 0.704411 0.635435
O37   O     O_2   0.649911 0.934180 0.678986 -0.498958
O38   O     O_R   0.725295 0.860377 0.721958 -0.646157
H37   H     H_    0.652016 0.789651 0.712901 0.344091
C97   C     C_2   0.927733 0.052279 0.691671 0.572408
O39   O     O_2   0.958224 0.988738 0.702458 -0.473739
O40   O     O_R   0.976157 0.109806 0.655974 -0.710411
H38   H     H_    0.031405 0.089070 0.640938 0.356647
C98   C     C_2   0.114856 0.569884 0.661624 0.626824
O41   O     O_2   0.089524 0.489900 0.680370 -0.528872
O42   O     O_R   0.036445 0.606399 0.656684 -0.615306
H39   H     H_    0.962232 0.559595 0.669643 0.338761
H40   H     H_    0.632405 0.093196 0.711129 0.182706
C99   C     C_2   0.640060 0.060355 0.794340 0.583786
O43   O     O_2   0.568674 0.984801 0.767420 -0.515819
O44   O     O_R   0.639866 0.047882 0.839768 -0.641437
H41   H     H_    0.577850 0.973722 0.845628 0.355159
H42   H     H_    0.952733 0.104551 0.775659 0.139088
H43   H     H_    0.301399 0.799871 0.202791 0.164000
C100  C     C_2   0.231536 0.479142 0.282318 0.550176
O45   O     O_2   0.232213 0.408369 0.254093 -0.533170
O46   O     O_R   0.231701 0.467094 0.327789 -0.674993
H44   H     H_    0.232445 0.397353 0.332703 0.349316
C101  C     C_2   0.124948 0.578144 0.289356 0.634251
O47   O     O_2   0.032338 0.496662 0.278991 -0.511019
O48   O     O_R   0.132460 0.666621 0.319440 -0.704406
H45   H     H_    0.056378 0.653136 0.329985 0.347599
C102  C     C_2   0.126555 0.590100 0.196069 0.581313
O49   O     O_2   0.107428 0.663317 0.212680 -0.501629
O50   O     O_R   0.062139 0.519683 0.157448 -0.699894
H46   H     H_    0.002804 0.537722 0.146664 0.345683
H47   H     H_    0.526580 0.751340 0.284535 0.160313
C103  C     C_2   0.146186 0.647535 0.573910 0.634798
O51   O     O_2   0.100488 0.703476 0.583697 -0.443448
O52   O     O_R   0.109340 0.570465 0.534713 -0.679095
H48   H     H_    0.042641 0.566970 0.517583 0.342187
C104  C     C_2   0.550409 0.707510 0.201779 0.589539
O53   O     O_2   0.591758 0.656645 0.180777 -0.462965
O54   O     O_R   0.611133 0.822337 0.210039 -0.723679
H49   H     H_    0.686629 0.853321 0.196274 0.364098
C105  C     C_2   0.168437 0.009587 0.069672 0.590918
O55   O     O_2   0.202276 0.000985 0.032524 -0.490207
O56   O     O_R   0.065102 0.926011 0.080237 -0.669784
H50   H     H_    0.025566 0.863990 0.054186 0.350938
H51   H     H_    0.252843 0.956068 0.379065 0.158493
C106  C     C_2   0.442128 0.340853 0.423440 0.593154
O57   O     O_2   0.426702 0.339912 0.463451 -0.473359
O58   O     O_R   0.512335 0.440290 0.408181 -0.701737
H52   H     H_    0.546556 0.504909 0.433469 0.352319
C107  C     C_2   0.544747 0.714602 0.586301 0.623962
O59   O     O_2   0.635144 0.757996 0.608920 -0.466407
O60   O     O_R   0.538427 0.673369 0.540845 -0.663904
H53   H     H_    0.614643 0.687083 0.530369 0.337744
C108  C     C_2   0.476490 0.405740 0.120007 0.620806
O61   O     O_2   0.449528 0.476640 0.118064 -0.478849
O62   O     O_R   0.588531 0.429235 0.116155 -0.674088
H54   H     H_    0.639714 0.507875 0.111295 0.364836
H55   H     H_    0.842396 0.346772 0.183447 0.158930
C109  C     C_2   0.950671 0.075602 0.188117 0.564133
O63   O     O_2   0.932841 0.986859 0.167762 -0.495471
O64   O     O_R   0.001255 0.109330 0.232067 -0.686018
H56   H     H_    0.017483 0.052891 0.243340 0.337983
H57   H     H_    0.473985 0.634792 0.811254 0.156242
C110  C     C_2   0.495849 0.621841 0.898302 0.602642
O65   O     O_2   0.552758 0.585826 0.878759 -0.509054
O66   O     O_R   0.527865 0.674175 0.942872 -0.666931
H58   H     H_    0.597853 0.674861 0.955509 0.346495
H59   H     H_    0.492901 0.665745 0.668450 0.138014
H60   H     H_    0.190558 0.990019 0.774137 0.133981

loop_
_geom_bond_atom_site_label_1
_geom_bond_atom_site_label_2
_ccdc_geom_bond_type
C44   C49   S    
C84   O8    A    
C15   C18   S    
C48   H14   S    
O50   H46   S    
C36   C96   S    
C94   O33   D    
C19   C92   S    
C14   H30   S    
C86   O6    A    
C73   C74   A    
C14   C18   S    
C91   O27   D    
Cr3   O4    S    
C57   C66   S    
C1    O12   A    
Cr2   O5    S    
Cr4   O13   S    
Cr6   O19   S    
C97   O39   D    
C53   C59   A    
C54   C106  S    
C23   O1    A    
Cr4   O7    S    
C45   O3    A    
C40   C46   S    
C18   C25   S    
O62   H54   S    
C73   H20   S    
C71   H24   S    
C58   H16   S    
C43   C88   S    
C56   O4    A    
C21   C22   S    
C92   O29   D    
C91   O28   S    
Cr1   O24   S    
Cr2   O2    S    
C69   C70   A    
Cr6   O18   S    
C38   C39   T    
C34   O25   A    
C105  O56   S    
C86   O11   A    
C95   O35   D    
C77   C83   A    
C15   C16   S    
C29   C33   S    
C76   H19   S    
C12   O21   A    
C29   H7    S    
C32   C33   S    
C41   C42   S    
C23   C26   S    
C101  O48   S    
C96   O37   D    
Cr5   O16   S    
C41   C100  S    
C19   H60   S    
C85   O9    A    
C98   O41   D    
Cr5   O8    S    
C7    C110  S    
O66   H58   S    
C8    C9    A    
C100  O46   S    
C47   C48   S    
C21   H29   S    
C70   C71   A    
C29   C95   S    
C30   C86   S    
C9    C10   S    
Cr3   O23   S    
C78   C107  S    
C40   H12   S    
C84   O7    A    
Cr4   O6    S    
O48   H45   S    
C94   O34   S    
C21   H33   S    
C32   C94   S    
Cr4   O19   S    
C102  O50   S    
C87   O14   A    
C23   O23   A    
C101  O47   D    
C67   C78   A    
C2    C11   S    
C76   C83   A    
C109  O64   S    
C90   O18   A    
C81   C82   T    
C47   C50   S    
C96   O38   S    
C77   C79   A    
C78   C89   A    
C79   C109  S    
C12   C67   S    
C17   C24   T    
C22   H4    S    
C27   C31   S    
C51   C52   T    
C6    H1    S    
C20   C24   S    
C7    C8    A    
C36   C97   S    
O56   H50   S    
C88   O16   A    
C107  O59   D    
C41   C101  S    
C35   H8    S    
C46   H43   S    
O34   H34   S    
C90   O13   A    
C103  O51   D    
O52   H48   S    
C56   O24   A    
Cr1   O12   S    
C45   C52   S    
C58   C59   A    
C53   C54   A    
Cr2   O26   S    
C14   C91   S    
C27   H5    S    
C33   C37   S    
C63   C64   A    
C30   C37   T    
C60   C61   A    
C35   C36   S    
Cr6   O17   S    
C2    C89   A    
C75   C76   A    
C5    C9    A    
O58   H52   S    
C87   O15   A    
C85   O10   A    
C106  O58   S    
C108  O61   D    
C7    C13   A    
C16   C20   S    
C5    C93   S    
C62   C63   A    
Cr5   O15   S    
O60   H53   S    
C69   C74   A    
C16   H27   S    
C25   C26   T    
Cr4   O14   S    
C75   H55   S    
Cr2   O21   S    
C42   H10   S    
C34   C69   S    
C1    O20   A    
Cr6   O11   S    
C8    H57   S    
C44   C51   S    
O38   H37   S    
C108  O62   S    
Cr3   O5    S    
C49   H47   S    
C104  O53   D    
C104  O54   S    
C55   C57   A    
Cr1   O1    S    
O30   H31   S    
C41   C44   S    
C89   H59   S    
C61   C105  S    
C49   H11   S    
C15   H2    S    
C3    C4    A    
Cr2   O20   S    
C93   O32   S    
Cr1   O25   S    
O36   H36   S    
Cr6   O10   S    
O32   H32   S    
C75   C80   A    
C53   C56   S    
C54   C55   A    
C106  O57   D    
C83   C90   S    
C46   C47   S    
C28   C29   S    
C35   H42   S    
Cr1   O5    S    
C32   C99   S    
C27   C32   S    
C18   C22   S    
C14   C19   S    
C74   H21   S    
C28   C31   S    
Cr3   O3    S    
C15   H3    S    
C80   C81   S    
C77   H23   S    
C59   H51   S    
C4    C67   A    
C97   O40   S    
C107  O60   S    
C43   C50   T    
C4    C103  S    
C55   H18   S    
C45   O2    A    
O46   H44   S    
C19   C20   S    
Cr5   O19   S    
C102  O49   D    
C62   C68   A    
C60   C64   A    
C17   C84   S    
C93   O31   D    
C31   C38   S    
C110  O66   S    
C2    C3    A    
C48   C104  S    
C71   C72   A    
C60   H15   S    
O28   H25   S    
C64   C65   S    
C6    C13   A    
C34   O26   A    
C61   C68   A    
C57   C58   A    
C5    C6    A    
C95   O36   S    
C70   H22   S    
C72   C73   A    
C48   C49   S    
O40   H38   S    
C105  O55   D    
C92   O30   S    
C109  O63   D    
C33   C35   S    
C12   O22   A    
C16   H26   S    
C103  O52   S    
C42   C47   S    
C65   C66   T    
O44   H41   S    
C3    C98   S    
C98   O42   S    
C88   O17   A    
C99   O44   S    
C10   C11   T    
C1    C39   S    
C79   C80   A    
C63   H17   S    
C28   H6    S    
C28   H35   S    
C40   C44   S    
C20   C21   S    
C99   O43   D    
C100  O45   D    
O64   H56   S    
C46   H13   S    
C13   C85   S    
Cr5   O9    S    
C68   C87   S    
C31   C36   S    
C42   C102  S    
O42   H39   S    
C110  O65   D    
C27   H40   S    
C72   C82   S    
Cr3   O22   S    
C62   C108  S    
O54   H49   S    
C40   H9    S    
C22   H28   S    
