data_mof_unit_pretest_1604.cif
_audit_creation_date              2012-12-10T19:14:07-0500
_audit_creation_method            fapswitch 2.2
_symmetry_space_group_name_H-M    P1
_symmetry_Int_Tables_number       1
_space_group_crystal_system       triclinic
_cell_length_a                    38.92325
_cell_length_b                    38.92325
_cell_length_c                    23.532601
_cell_angle_alpha                 89.987323
_cell_angle_beta                  89.987346
_cell_angle_gamma                 90.001065
_cell_volume                      35652.345077

loop_
_atom_site_label
_atom_site_type_symbol
_atom_type_description
_atom_site_fract_x
_atom_site_fract_y
_atom_site_fract_z
_atom_type_partial_charge
C1    C     C_R   0.567209 0.000000 0.500001 0.874084
C2    C     C_R   0.979930 0.731951 0.539645 0.586220
C3    C     C_R   0.000003 0.500000 0.390631 0.906239
C4    C     C_R   0.000000 0.499997 0.109369 0.906238
C5    C     C_R   0.499997 0.000000 0.109369 0.906236
C6    C     C_R   0.999999 0.500003 0.890631 0.906239
C7    C     C_R   0.500003 1.000000 0.890631 0.906237
C8    C     C_1   0.500005 0.999990 0.669583 -0.171057
C9    C     C_1   0.999990 0.500004 0.669583 -0.171050
C10   C     C_1   0.499995 0.000010 0.330416 -0.171057
C11   C     C_1   0.000009 0.499995 0.330416 -0.171050
C12   C     C_1   0.000004 0.499990 0.169583 -0.171050
C13   C     C_R   0.268039 0.020084 0.539543 0.585632
C14   C     C_1   0.499990 0.000005 0.169583 -0.171057
C15   C     C_1   0.999995 0.500010 0.830416 -0.171050
C16   C     C_1   0.500010 0.999995 0.830416 -0.171057
C17   C     C_1   0.500008 0.999989 0.720364 0.022396
C18   C     C_1   0.999989 0.500008 0.720364 0.022402
C19   C     C_1   0.499991 0.000011 0.279636 0.022395
C20   C     C_1   0.000010 0.499992 0.279636 0.022402
C21   C     C_1   0.000008 0.499989 0.220364 0.022402
C22   C     C_1   0.499989 0.000008 0.220364 0.022395
C23   C     C_1   0.999992 0.500011 0.779636 0.022402
C24   C     C_R   0.979901 0.268038 0.539538 0.585193
C25   C     C_1   0.500011 0.999992 0.779636 0.022396
C26   C     C_R   0.876981 0.997748 0.448578 -0.192841
C27   C     C_R   0.997750 0.876981 0.448579 -0.192358
C28   C     C_R   0.123023 0.002260 0.448534 -0.191773
C29   C     C_R   0.997749 0.123022 0.448532 -0.192260
C30   C     C_R   0.123018 0.997737 0.551423 -0.192842
C31   C     C_R   0.002252 0.876978 0.551467 -0.192254
C32   C     C_R   0.876977 0.002253 0.551466 -0.191774
C33   C     C_R   0.002249 0.123019 0.551421 -0.192365
C34   C     C_R   0.376981 0.497751 0.948579 -0.192366
C35   C     C_R   0.268048 0.979926 0.460373 0.585847
C36   C     C_R   0.502259 0.376981 0.948577 -0.192843
C37   C     C_R   0.623022 0.497748 0.948532 -0.192253
C38   C     C_R   0.497749 0.623022 0.948534 -0.191774
C39   C     C_R   0.623019 0.502250 0.051421 -0.192357
C40   C     C_R   0.497743 0.376977 0.051467 -0.191775
C41   C     C_R   0.376978 0.502251 0.051467 -0.192259
C42   C     C_R   0.502250 0.623019 0.051422 -0.192841
C43   C     C_R   0.841296 0.997710 0.448606 -0.160196
C44   C     C_R   0.997711 0.841296 0.448608 -0.160177
C45   C     C_R   0.158708 0.002302 0.448544 -0.159774
C46   C     C_R   0.020091 0.731962 0.460450 0.585207
C47   C     C_R   0.997707 0.158707 0.448541 -0.159768
C48   C     C_R   0.158703 0.997697 0.551396 -0.160185
C49   C     C_R   0.002295 0.841293 0.551459 -0.159779
C50   C     C_R   0.841292 0.002295 0.551457 -0.159779
C51   C     C_R   0.002287 0.158704 0.551392 -0.160164
C52   C     C_R   0.341296 0.497713 0.948608 -0.160163
C53   C     C_R   0.502299 0.341297 0.948604 -0.160184
C54   C     C_R   0.658707 0.497705 0.948541 -0.159779
C55   C     C_R   0.497706 0.658708 0.948543 -0.159779
C56   C     C_R   0.658704 0.502289 0.051392 -0.160177
C57   C     C_R   0.731962 0.020098 0.460458 0.585645
C58   C     C_R   0.497702 0.341292 0.051456 -0.159773
C59   C     C_R   0.341292 0.502293 0.051459 -0.159769
C60   C     C_R   0.502288 0.658704 0.051394 -0.160197
C61   C     C_R   0.823267 0.000005 0.500036 0.187002
C62   C     C_R   0.000005 0.823267 0.500038 0.187007
C63   C     C_R   0.176733 0.000000 0.499965 0.186976
C64   C     C_R   0.999995 0.176733 0.499962 0.186903
C65   C     C_R   0.323267 0.500005 0.000038 0.186903
C66   C     C_R   0.499999 0.323267 0.000034 0.186975
C67   C     C_R   0.676733 0.499995 0.999962 0.187007
C68   C     C_R   0.020079 0.268049 0.460367 0.586208
C69   C     C_R   0.499995 0.676733 0.999964 0.187003
C70   C     C_R   0.895032 0.000000 0.500017 -0.043889
C71   C     C_R   1.000000 0.895033 0.500018 -0.043840
C72   C     C_R   0.104967 0.999999 0.499983 -0.043899
C73   C     C_R   1.000000 0.104967 0.499982 -0.043953
C74   C     C_R   0.395032 0.500000 0.000018 -0.043952
C75   C     C_R   0.500001 0.395032 0.000017 -0.043901
C76   C     C_R   0.604967 0.500000 0.999982 -0.043840
C77   C     C_R   0.500000 0.604968 0.999983 -0.043890
C78   C     C_R   0.767641 0.979940 0.539528 -0.260617
C79   C     C_R   0.231951 0.479921 0.039633 0.586208
C80   C     C_R   0.979948 0.767641 0.539540 -0.260649
C81   C     C_R   0.232349 0.020065 0.539439 -0.260717
C82   C     C_R   0.979919 0.232348 0.539434 -0.260562
C83   C     C_R   0.232359 0.979944 0.460476 -0.260589
C84   C     C_R   0.020073 0.767652 0.460555 -0.260591
C85   C     C_R   0.767652 0.020079 0.460562 -0.260726
C86   C     C_R   0.020060 0.232359 0.460471 -0.260616
C87   C     C_R   0.267641 0.479940 0.039529 -0.260616
C88   C     C_R   0.520060 0.267641 0.039518 -0.260590
C89   C     C_R   0.732348 0.479927 0.039445 -0.260592
C90   C     C_R   0.520078 0.231951 0.039622 0.585848
C91   C     C_R   0.479920 0.732348 0.039437 -0.260725
C92   C     C_R   0.732359 0.520052 0.960460 -0.260649
C93   C     C_R   0.479931 0.267651 0.960567 -0.260716
C94   C     C_R   0.267652 0.520081 0.960566 -0.260562
C95   C     C_R   0.520060 0.732359 0.960473 -0.260617
C96   C     C_R   0.768038 0.479909 0.039550 0.585207
C97   C     C_R   0.000000 0.567209 0.500001 0.874087
C98   C     C_R   0.479901 0.768038 0.039541 0.585643
C99   C     C_R   0.768049 0.520070 0.960355 0.586220
C100  C     C_R   0.479913 0.231961 0.960463 0.585632
C101  C     C_R   0.231962 0.520099 0.960462 0.585194
C102  C     C_R   0.520079 0.768049 0.960369 0.585858
C103  C     C_R   0.713956 0.000009 0.500043 -0.210436
C104  C     C_R   0.000010 0.713956 0.500046 -0.210242
C105  C     C_R   0.286043 0.000004 0.499959 -0.210333
C106  C     C_R   0.999990 0.286043 0.499954 -0.209971
C107  C     C_R   0.213956 0.500009 0.000046 -0.209975
C108  C     C_R   0.432791 1.000000 0.499999 0.874088
C109  C     C_R   0.499996 0.213956 0.000041 -0.210331
C110  C     C_R   0.786044 0.499990 0.999954 -0.210242
C111  C     C_R   0.499991 0.786043 0.999957 -0.210434
C112  C     C_R   0.785661 0.000009 0.500043 -0.086782
C113  C     C_R   0.000010 0.785661 0.500046 -0.086798
C114  C     C_R   0.214339 0.000004 0.499959 -0.086683
C115  C     C_R   0.999990 0.214339 0.499954 -0.086438
C116  C     C_R   0.285661 0.500009 0.000046 -0.086436
C117  C     C_R   0.499996 0.285661 0.000041 -0.086685
C118  C     C_R   0.714339 0.499990 0.999954 -0.086798
C119  C     C_R   1.000000 0.432791 0.499999 0.874101
C120  C     C_R   0.499991 0.714339 0.999957 -0.086782
C121  C     C_R   0.658517 0.968936 0.495771 -0.075991
C122  C     C_R   0.031076 0.658512 0.504264 -0.075597
C123  C     C_R   0.341487 0.031072 0.495708 -0.075829
C124  C     C_R   0.968925 0.341487 0.495705 -0.075568
C125  C     C_R   0.341482 0.968931 0.504230 -0.075973
C126  C     C_R   0.968934 0.658517 0.495804 -0.076174
C127  C     C_R   0.658513 0.031074 0.504292 -0.075837
C128  C     C_R   0.031064 0.341482 0.504227 -0.076139
C129  C     C_R   0.158518 0.468936 0.995773 -0.076139
C130  C     C_R   0.067209 0.500000 0.000001 0.874101
C131  C     C_R   0.531069 0.158518 0.995762 -0.075972
C132  C     C_R   0.841483 0.531066 0.004196 -0.076172
C133  C     C_R   0.468926 0.841487 0.995708 -0.075838
C134  C     C_R   0.841488 0.468924 0.995736 -0.075598
C135  C     C_R   0.468928 0.158513 0.004300 -0.075827
C136  C     C_R   0.158513 0.531075 0.004295 -0.075569
C137  C     C_R   0.531064 0.841482 0.004229 -0.075991
C138  C     C_R   0.622830 0.968907 0.495833 -0.200114
C139  C     C_R   0.031101 0.622825 0.504174 -0.200160
C140  C     C_R   0.377174 0.031098 0.495795 -0.200137
C141  C     C_R   0.500000 0.067209 0.000001 0.874086
C142  C     C_R   0.968901 0.377174 0.495794 -0.200160
C143  C     C_R   0.377169 0.968903 0.504168 -0.200116
C144  C     C_R   0.968905 0.622830 0.495866 -0.200102
C145  C     C_R   0.622826 0.031099 0.504204 -0.200133
C146  C     C_R   0.031093 0.377169 0.504166 -0.200101
C147  C     C_R   0.122830 0.468907 0.995833 -0.200100
C148  C     C_R   0.531096 0.122830 0.995824 -0.200115
C149  C     C_R   0.877170 0.531095 0.004134 -0.200103
C150  C     C_R   0.468901 0.877174 0.995795 -0.200134
C151  C     C_R   0.877175 0.468899 0.995826 -0.200160
C152  C     C_R   0.932791 0.500000 0.999999 0.874087
C153  C     C_R   0.468903 0.122826 0.004213 -0.200138
C154  C     C_R   0.122826 0.531099 0.004207 -0.200160
C155  C     C_R   0.531093 0.877170 0.004167 -0.200114
C156  C     C_R   0.604751 0.000002 0.500011 -0.046470
C157  C     C_R   0.000002 0.604750 0.500012 -0.046510
C158  C     C_R   0.395249 0.000000 0.499988 -0.046480
C159  C     C_R   0.999998 0.395249 0.499988 -0.046534
C160  C     C_R   0.104751 0.500002 0.000012 -0.046533
C161  C     C_R   0.500000 0.104751 0.000011 -0.046480
C162  C     C_R   0.895249 0.499998 0.999988 -0.046510
C163  C     C_R   0.500000 0.932791 0.999999 0.874084
C164  C     C_R   0.499998 0.895249 0.999988 -0.046470
C165  C     C_R   0.676444 0.000006 0.500038 0.203712
C166  C     C_R   0.000007 0.676444 0.500040 0.203651
C167  C     C_R   0.323556 0.000002 0.499963 0.203695
C168  C     C_R   0.999993 0.323556 0.499959 0.203644
C169  C     C_R   0.176444 0.500006 0.000040 0.203646
C170  C     C_R   0.499998 0.176444 0.000037 0.203693
C171  C     C_R   0.823556 0.499993 0.999960 0.203651
C172  C     C_R   0.499994 0.823556 0.999962 0.203710
C173  C     C_R   1.000000 0.932546 0.500006 0.882005
C174  C     C_R   0.731951 0.979922 0.539631 0.585857
C175  C     C_R   0.067454 0.999999 0.499994 0.882012
C176  C     C_R   0.000000 0.067454 0.499994 0.882015
C177  C     C_R   0.932546 1.000000 0.500006 0.882008
C178  C     C_R   0.500000 0.432546 0.000005 0.882011
C179  C     C_R   0.567454 0.500000 0.999994 0.882005
C180  C     C_R   0.500000 0.567454 0.999994 0.882008
C181  C     C_R   0.432546 0.500000 0.000006 0.882016
C182  C     C_R   0.500000 0.999997 0.609369 0.906237
C183  C     C_R   0.999997 0.500000 0.609369 0.906238
C184  C     C_R   0.499999 0.000003 0.390631 0.906237
F1    F     F_    0.714993 0.960792 0.578909 -0.653173
F2    F     F_    0.539203 0.214994 0.078893 -0.653274
F3    F     F_    0.784984 0.460788 0.078841 -0.654271
F4    F     F_    0.460772 0.784984 0.078821 -0.653495
F5    F     F_    0.785007 0.539192 0.921066 -0.652852
F6    F     F_    0.460789 0.215014 0.921189 -0.653604
F7    F     F_    0.215016 0.539229 0.921183 -0.654540
F8    F     F_    0.539209 0.785007 0.921092 -0.653174
F9    F     F_    0.960808 0.714993 0.578934 -0.652852
F10   F     F_    0.284986 0.039203 0.578822 -0.653603
F11   F     F_    0.960772 0.284984 0.578817 -0.654541
F12   F     F_    0.285006 0.960805 0.421096 -0.653273
F13   F     F_    0.039212 0.715016 0.421159 -0.654271
F14   F     F_    0.715016 0.039226 0.421177 -0.653495
F15   F     F_    0.039209 0.285007 0.421090 -0.653118
F16   F     F_    0.214993 0.460790 0.078910 -0.653117
H1    H     H_    0.890393 0.995851 0.408371 0.162136
H2    H     H_    0.504161 0.390394 0.908369 0.162148
H3    H     H_    0.609612 0.495853 0.908333 0.162357
H4    H     H_    0.495854 0.609613 0.908334 0.162556
H5    H     H_    0.609607 0.504147 0.091628 0.162243
H6    H     H_    0.495843 0.390386 0.091667 0.162566
H7    H     H_    0.390387 0.504145 0.091667 0.162461
H8    H     H_    0.504146 0.609607 0.091629 0.162136
H9    H     H_    0.827780 0.995495 0.408544 0.143064
H10   H     H_    0.995495 0.827780 0.408546 0.143025
H11   H     H_    0.172228 0.004526 0.408474 0.143391
H12   H     H_    0.995852 0.890393 0.408372 0.162243
H13   H     H_    0.995491 0.172227 0.408472 0.143478
H14   H     H_    0.172219 0.995473 0.591459 0.143089
H15   H     H_    0.004513 0.827774 0.591528 0.143378
H16   H     H_    0.827773 0.004513 0.591525 0.143370
H17   H     H_    0.004501 0.172221 0.591454 0.143126
H18   H     H_    0.327779 0.495499 0.908545 0.143126
H19   H     H_    0.504519 0.327781 0.908541 0.143089
H20   H     H_    0.672226 0.495487 0.908472 0.143377
H21   H     H_    0.495490 0.672227 0.908474 0.143369
H22   H     H_    0.672220 0.504505 0.091454 0.143025
H23   H     H_    0.109614 0.004165 0.408333 0.162565
H24   H     H_    0.495481 0.327772 0.091526 0.143392
H25   H     H_    0.327773 0.504509 0.091528 0.143478
H26   H     H_    0.504502 0.672220 0.091456 0.143064
H27   H     H_    0.781206 0.964075 0.569970 0.181654
H28   H     H_    0.964087 0.781206 0.569990 0.181681
H29   H     H_    0.218775 0.035923 0.569881 0.181328
H30   H     H_    0.964054 0.218774 0.569877 0.181115
H31   H     H_    0.218792 0.964086 0.430035 0.181578
H32   H     H_    0.035933 0.781226 0.430104 0.181423
H33   H     H_    0.781226 0.035944 0.430117 0.181412
H34   H     H_    0.995855 0.109612 0.408333 0.162462
H35   H     H_    0.035926 0.218793 0.430029 0.181376
H36   H     H_    0.281207 0.464074 0.069971 0.181376
H37   H     H_    0.535921 0.281208 0.069955 0.181579
H38   H     H_    0.718774 0.464067 0.069896 0.181423
H39   H     H_    0.464055 0.718774 0.069881 0.181411
H40   H     H_    0.718794 0.535913 0.930010 0.181681
H41   H     H_    0.464070 0.281225 0.930129 0.181328
H42   H     H_    0.281226 0.535946 0.930123 0.181115
H43   H     H_    0.535926 0.718794 0.930031 0.181653
H44   H     H_    0.672171 0.944790 0.491965 0.162973
H45   H     H_    0.109606 0.995832 0.591631 0.162147
H46   H     H_    0.055225 0.672161 0.508056 0.163198
H47   H     H_    0.327838 0.055220 0.491893 0.163056
H48   H     H_    0.944778 0.327838 0.491890 0.163228
H49   H     H_    0.327829 0.944783 0.508036 0.163002
H50   H     H_    0.944787 0.672170 0.492021 0.162951
H51   H     H_    0.672162 0.055222 0.508106 0.163036
H52   H     H_    0.055210 0.327829 0.508033 0.162985
H53   H     H_    0.172171 0.444790 0.991966 0.162984
H54   H     H_    0.555216 0.172171 0.991949 0.163003
H55   H     H_    0.827829 0.555213 0.007979 0.162951
H56   H     H_    0.004147 0.890388 0.591667 0.162357
H57   H     H_    0.444778 0.827838 0.991893 0.163038
H58   H     H_    0.827839 0.444775 0.991944 0.163198
H59   H     H_    0.444780 0.172162 0.008121 0.163057
H60   H     H_    0.172162 0.555222 0.008111 0.163227
H61   H     H_    0.555210 0.827829 0.008035 0.162974
H62   H     H_    0.609456 0.944600 0.492364 0.168484
H63   H     H_    0.055408 0.609447 0.507610 0.168596
H64   H     H_    0.390552 0.055405 0.492335 0.168512
H65   H     H_    0.944595 0.390552 0.492334 0.168617
H66   H     H_    0.390544 0.944595 0.507637 0.168496
H67   H     H_    0.890387 0.004149 0.591666 0.162555
H68   H     H_    0.944597 0.609455 0.492420 0.168458
H69   H     H_    0.609448 0.055405 0.507664 0.168503
H70   H     H_    0.055400 0.390544 0.507636 0.168482
H71   H     H_    0.109456 0.444600 0.992363 0.168482
H72   H     H_    0.555404 0.109456 0.992349 0.168495
H73   H     H_    0.890545 0.555403 0.007580 0.168458
H74   H     H_    0.444595 0.890552 0.992336 0.168504
H75   H     H_    0.890553 0.444592 0.992390 0.168596
H76   H     H_    0.444596 0.109448 0.007679 0.168512
H77   H     H_    0.109448 0.555405 0.007667 0.168617
H78   H     H_    0.004145 0.109608 0.591628 0.162348
H79   H     H_    0.555400 0.890544 0.007636 0.168484
H80   H     H_    0.390392 0.495855 0.908371 0.162348
O1    O     O_R   0.550900 0.028770 0.500040 -0.622390
O2    O     O_R   0.471230 0.050900 0.000040 -0.622390
O3    O     O_R   0.949100 0.471230 0.000040 -0.622408
O4    O     O_R   0.528770 0.949100 0.000040 -0.622388
O5    O     O_R   0.949100 0.528770 0.999960 -0.622365
O6    O     O_R   0.528770 0.050900 0.999960 -0.622387
O7    O     O_R   0.050900 0.471230 0.999960 -0.622370
O8    O     O_R   0.471230 0.949100 0.999960 -0.622389
O9    O     O_R   0.499990 0.028770 0.582790 -0.609751
O10   O     O_R   0.971230 0.499990 0.582790 -0.607587
O11   O     O_R   0.500010 0.971230 0.582790 -0.609689
O12   O     O_R   0.971230 0.550900 0.500040 -0.622366
O13   O     O_R   0.028770 0.500010 0.582790 -0.611854
O14   O     O_R   0.500010 0.028770 0.417210 -0.609687
O15   O     O_R   0.028770 0.499990 0.417210 -0.607583
O16   O     O_R   0.499990 0.971230 0.417210 -0.609753
O17   O     O_R   0.971230 0.500010 0.417210 -0.611857
O18   O     O_R   0.999990 0.528770 0.082790 -0.611858
O19   O     O_R   0.471230 0.999990 0.082790 -0.609688
O20   O     O_R   0.000010 0.471230 0.082790 -0.607583
O21   O     O_R   0.528770 0.000010 0.082790 -0.609753
O22   O     O_R   0.000010 0.528770 0.917210 -0.607586
O23   O     O_R   0.449100 0.971230 0.500040 -0.622387
O24   O     O_R   0.528770 0.999990 0.917210 -0.609690
O25   O     O_R   0.999990 0.471230 0.917210 -0.611854
O26   O     O_R   0.471230 0.000010 0.917210 -0.609750
O27   O     O_R   0.999980 0.949050 0.546640 -0.623893
O28   O     O_R   0.050950 0.999980 0.546640 -0.624468
O29   O     O_R   0.000020 0.050950 0.546640 -0.623963
O30   O     O_R   0.949050 0.000020 0.546640 -0.623391
O31   O     O_R   0.000020 0.949050 0.453360 -0.623951
O32   O     O_R   0.949050 0.999980 0.453360 -0.624467
O33   O     O_R   0.999980 0.050950 0.453360 -0.623905
O34   O     O_R   0.028770 0.449100 0.500040 -0.622370
O35   O     O_R   0.050950 0.000020 0.453360 -0.623391
O36   O     O_R   0.499980 0.449050 0.046640 -0.623390
O37   O     O_R   0.550950 0.499980 0.046640 -0.623951
O38   O     O_R   0.500020 0.550950 0.046640 -0.624467
O39   O     O_R   0.449050 0.500020 0.046640 -0.623904
O40   O     O_R   0.500020 0.449050 0.953360 -0.624467
O41   O     O_R   0.449050 0.499980 0.953360 -0.623963
O42   O     O_R   0.499980 0.550950 0.953360 -0.623391
O43   O     O_R   0.550950 0.500020 0.953360 -0.623893
O44   O     O_R   0.449100 0.028770 0.499960 -0.622390
O45   O     O_R   0.028770 0.550900 0.499960 -0.622408
O46   O     O_R   0.550900 0.971230 0.499960 -0.622388
O47   O     O_R   0.971230 0.449100 0.499960 -0.622412
O48   O     O_R   0.050900 0.528770 0.000040 -0.622412
Zn1   Zn    Zn3+2 0.500000 0.038410 0.500000 0.989576
Zn2   Zn    Zn3+2 1.000000 1.000000 0.437580 0.963534
Zn3   Zn    Zn3+2 0.500000 0.500000 0.062420 0.963534
Zn4   Zn    Zn3+2 0.500000 0.500000 0.937580 0.963533
Zn5   Zn    Zn3+2 0.961590 0.500000 0.500000 0.989569
Zn6   Zn    Zn3+2 0.500000 0.961590 0.500000 0.989567
Zn7   Zn    Zn3+2 0.038410 0.500000 0.500000 0.989579
Zn8   Zn    Zn3+2 1.000000 0.538410 0.000000 0.989569
Zn9   Zn    Zn3+2 0.461590 0.000000 0.000000 0.989578
Zn10  Zn    Zn3+2 0.000000 0.461590 0.000000 0.989579
Zn11  Zn    Zn3+2 0.538410 0.000000 0.000000 0.989567
Zn12  Zn    Zn3+2 1.000000 0.000000 0.562420 0.963534

loop_
_geom_bond_atom_site_label_1
_geom_bond_atom_site_label_2
_ccdc_geom_bond_type
C101  C107  A    
C121  H44   S    
C108  O44   A    
C177  O32   A    
C10   C184  S    
C148  H72   S    
C142  H65   S    
C79   C87   A    
C74   C181  S    
O13   Zn7   S    
C68   C106  A    
C31   H56   S    
C85   H33   S    
C122  C139  A    
O20   Zn10  S    
O12   Zn5   S    
O10   Zn5   S    
O17   Zn5   S    
C111  C172  S    
C36   C53   A    
C41   C74   A    
C124  C168  A    
C38   C55   A    
C7    O26   A    
C136  H60   S    
C79   F16   S    
C89   C118  A    
C4    C12   S    
C95   C102  A    
C122  H46   S    
C110  C171  S    
C100  C109  A    
C64   C115  S    
C38   H4    S    
C83   C114  A    
C102  C111  A    
C4    O18   A    
C11   C20   T    
C77   C180  S    
C40   C58   A    
C146  H70   S    
C47   C64   A    
C48   C63   A    
C90   F2    S    
C24   F11   S    
C99   C110  A    
C177  O30   A    
C153  C161  A    
O33   Zn2   S    
C41   H7    S    
C181  O41   A    
C39   C56   A    
C2    C104  A    
C127  C165  A    
O40   Zn4   S    
O35   Zn2   S    
C35   F12   S    
C127  C145  A    
C46   C84   A    
C33   C73   A    
C13   F10   S    
C97   O45   A    
C27   C71   A    
C43   C61   A    
C107  C169  S    
C16   C25   T    
C163  O8    A    
C49   C62   A    
O11   Zn6   S    
C34   C52   A    
C89   H38   S    
C100  F6    S    
C51   C64   A    
C150  H74   S    
C101  F7    S    
C40   C75   A    
C146  C159  A    
C49   H15   S    
O36   Zn3   S    
C8    C17   T    
C2    F9    S    
C17   C25   S    
C89   C96   A    
C125  H49   S    
C1    O1    A    
C134  C151  A    
C12   C21   T    
C57   C85   A    
C60   H26   S    
C91   C98   A    
C43   H9    S    
C67   C118  S    
C141  O2    A    
C129  C147  A    
C3    C11   S    
C71   C173  S    
C20   C21   S    
C139  C157  A    
C119  C159  S    
C149  C162  A    
C4    O20   A    
C5    O21   A    
O27   Zn12  S    
C52   C65   A    
C97   C157  S    
O14   Zn1   S    
C56   H22   S    
O18   Zn8   S    
C175  O28   A    
C139  H63   S    
O46   Zn6   S    
C76   C179  S    
O15   Zn7   S    
C180  O38   A    
O37   Zn3   S    
O8    Zn9   S    
C181  O39   A    
O39   Zn3   S    
C29   C47   A    
C30   C48   A    
C133  C172  A    
C82   C115  A    
C175  O35   A    
C137  C155  A    
C72   C175  S    
C92   C118  A    
C3    O17   A    
C155  H79   S    
C140  C158  A    
O31   Zn2   S    
C27   C44   A    
C81   C114  A    
C147  H71   S    
C182  O11   A    
C31   C71   A    
C176  O33   A    
C96   F3    S    
C93   C117  A    
C84   H32   S    
C147  C160  A    
C33   H78   S    
C37   H3    S    
C26   H1    S    
C32   C70   A    
O44   Zn1   S    
C103  C174  A    
C86   C115  A    
O25   Zn10  S    
C124  H48   S    
C1    C156  S    
C35   C105  A    
C36   C75   A    
O42   Zn4   S    
C119  O34   A    
C55   C69   A    
C130  O48   A    
C129  H53   S    
C103  C165  S    
C176  O29   A    
O38   Zn3   S    
C24   C106  A    
C143  C158  A    
C78   H27   S    
C92   H40   S    
C154  H77   S    
C133  C150  A    
C30   C72   A    
C152  O3    A    
C70   C177  S    
C121  C165  A    
C135  H59   S    
C14   C22   T    
C3    O15   A    
C179  O43   A    
C59   C65   A    
C128  C146  A    
O5    Zn8   S    
C83   H31   S    
C60   C69   A    
C125  C143  A    
C126  C144  A    
C27   H12   S    
C182  O9    A    
C9    C18   T    
C180  O42   A    
C163  O4    A    
C42   C77   A    
C140  H64   S    
C50   C61   A    
C81   H29   S    
O43   Zn4   S    
C90   C109  A    
C144  C157  A    
C61   C112  S    
C151  H75   S    
C92   C99   A    
C137  H61   S    
C53   H19   S    
C142  C159  A    
C178  O36   A    
C28   C72   A    
C51   H17   S    
C45   H11   S    
C68   F15   S    
C125  C167  A    
C174  F1    S    
C13   C81   A    
C32   H67   S    
C130  C160  S    
O28   Zn12  S    
C137  C172  A    
C98   F4    S    
C6    O22   A    
C145  C156  A    
C138  H62   S    
C66   C117  S    
C35   C83   A    
C102  F8    S    
C42   H8    S    
C1    O46   A    
C85   C112  A    
C133  H57   S    
C82   H30   S    
O4    Zn11  S    
C132  C149  A    
C144  H68   S    
C31   C49   A    
C6    O25   A    
C57   C103  A    
C48   H14   S    
C173  O27   A    
C62   C113  S    
C13   C105  A    
C184  O14   A    
C58   H24   S    
C152  O5    A    
C46   F13   S    
C46   C104  A    
C87   H36   S    
C149  H73   S    
C9    C183  S    
C136  C154  A    
C50   H16   S    
C10   C19   T    
C151  C162  A    
C79   C107  A    
C80   H28   S    
O41   Zn4   S    
C87   C116  A    
O34   Zn7   S    
C34   C74   A    
O9    Zn1   S    
C7    C16   S    
C37   C76   A    
C88   C90   A    
O2    Zn9   S    
C26   C70   A    
C183  O13   A    
O47   Zn5   S    
C150  C164  A    
C8    C182  S    
C94   C116  A    
C130  O7    A    
C126  C166  A    
C38   C77   A    
C95   C120  A    
C33   C51   A    
C69   C120  S    
C52   H18   S    
O24   Zn11  S    
C126  H50   S    
C143  H66   S    
C73   C176  S    
C5    O19   A    
O48   Zn8   S    
O22   Zn8   S    
C96   C110  A    
C119  O47   A    
C47   H13   S    
C44   H10   S    
C59   H25   S    
C29   H34   S    
C104  C166  S    
C108  O23   A    
C108  C158  S    
C93   H41   S    
O23   Zn6   S    
C152  C162  S    
O26   Zn9   S    
C131  C170  A    
C141  C161  S    
C84   C113  A    
C122  C166  A    
C30   H45   S    
C57   F14   S    
C68   C86   A    
C163  C164  S    
C184  O16   A    
O30   Zn12  S    
C131  H54   S    
C173  O31   A    
C128  H52   S    
O7    Zn10  S    
O29   Zn12  S    
C148  C161  A    
C129  C169  A    
C135  C170  A    
C29   C73   A    
C145  H69   S    
O6    Zn11  S    
C75   C178  S    
C24   C82   A    
C132  H55   S    
C6    C15   S    
C63   C114  S    
C58   C66   A    
C94   C101  A    
C78   C112  A    
C132  C171  A    
C178  O40   A    
C127  H51   S    
C179  O37   A    
C134  H58   S    
C55   H21   S    
C123  C167  A    
C7    O24   A    
C15   C23   T    
C124  C142  A    
O21   Zn11  S    
C36   H2    S    
C26   C43   A    
C40   H6    S    
C28   C45   A    
O32   Zn2   S    
C18   C23   S    
C19   C22   S    
C41   C59   A    
C42   C60   A    
C99   F5    S    
C54   C67   A    
C44   C62   A    
C123  C140  A    
C45   C63   A    
C105  C167  S    
C106  C168  S    
C121  C138  A    
C154  C160  A    
C93   C100  A    
C5    C14   S    
C131  C148  A    
C39   C76   A    
C80   C113  A    
C53   C66   A    
C32   C50   A    
C37   C54   A    
C134  C171  A    
O19   Zn9   S    
C65   C116  S    
O16   Zn6   S    
O45   Zn7   S    
C141  O6    A    
C109  C170  S    
C78   C174  A    
C138  C156  A    
C34   H80   S    
C98   C111  A    
O3    Zn10  S    
C183  O10   A    
C54   H20   S    
C155  C164  A    
C56   C67   A    
C86   H35   S    
C135  C153  A    
C97   O12   A    
C94   H42   S    
C123  H47   S    
C28   H23   S    
C88   H37   S    
C39   H5    S    
C153  H76   S    
O1    Zn1   S    
C2    C80   A    
C136  C169  A    
C91   H39   S    
C128  C168  A    
C91   C120  A    
C88   C117  A    
C95   H43   S    
