data_mof_unit_pretest_578.cif
_audit_creation_date              2013-03-05T16:11:16-0500
_audit_creation_method            fapswitch 2.2
_symmetry_space_group_name_H-M    P1
_symmetry_Int_Tables_number       1
_space_group_crystal_system       triclinic
_cell_length_a                    6.952916
_cell_length_b                    20.535908
_cell_length_c                    24.503965
_cell_angle_alpha                 90.061397
_cell_angle_beta                  90.704078
_cell_angle_gamma                 89.728262
_cell_volume                      3498.47969148

loop_
_atom_site_label
_atom_site_type_symbol
_atom_site_description
_atom_site_fract_x
_atom_site_fract_y
_atom_site_fract_z
_atom_type_partial_charge
O1    O     O_R   0.507280 0.423750 0.460310 -0.584236
O2    O     O_R   0.171030 0.555650 0.437630 -0.590364
O3    O     O_R   0.004080 0.576250 0.539690 -0.592426
C1    C     C_R   0.339036 0.575686 0.421779 0.977217
O4    O     O_R   0.177330 0.422980 0.453960 -0.588911
O5    O     O_R   0.010420 0.442640 0.556140 -0.590852
C2    C     C_R   0.345268 0.399062 0.443066 0.983377
O6    O     O_R   0.500930 0.557360 0.443860 -0.590696
O7    O     O_3   0.340310 0.506600 0.533500 -0.272296
V1    V     V_3+5 0.064140 0.498780 0.493780 1.188761
O8    O     O_R   0.680890 0.444350 0.562370 -0.589836
C3    C     C_R   0.850622 0.424402 0.578141 0.989031
O9    O     O_R   0.674590 0.577020 0.546040 -0.586053
C4    C     C_R   0.843208 0.601046 0.556363 0.936023
V2    V     V_3+5 0.564550 0.501220 0.506220 1.191466
O10   O     O_3   0.838250 0.493400 0.466500 -0.266927
C5    C     C_R   0.973279 0.838676 0.910992 -0.285288
C6    C     C_R   0.850242 0.661562 0.588427 -0.147064
C7    C     C_R   0.011104 0.722057 0.906611 -0.095844
C8    C     C_R   0.018927 0.779714 0.936186 -0.273280
C9    C     C_R   0.926943 0.840312 0.854928 0.676866
C10   C     C_R   0.935747 0.782297 0.822476 -0.030950
C11   C     C_R   0.967838 0.722734 0.850540 0.012465
C12   C     C_R   0.911738 0.780375 0.763982 -0.063078
C13   C     C_R   0.899608 0.718839 0.735850 -0.160005
C14   C     C_R   0.907373 0.661223 0.767794 0.759940
C15   C     C_R   0.950179 0.663666 0.823174 -0.314125
C16   C     C_R   0.906577 0.837803 0.732481 -0.222500
C17   C     C_R   0.870653 0.836675 0.676754 0.701346
C18   C     C_R   0.853933 0.777725 0.648834 -0.071458
C19   C     C_R   0.878221 0.717797 0.677190 0.074909
C20   C     C_R   0.819615 0.778426 0.592158 -0.051373
C21   C     C_R   0.814014 0.720742 0.562502 -0.187630
C22   C     C_R   0.885615 0.660045 0.644942 -0.120131
H1    H     H_    0.962698 0.618222 0.845483 0.169966
H2    H     H_    0.923325 0.613265 0.661505 0.184703
H3    H     H_    0.785281 0.722369 0.518958 0.119541
H4    H     H_    0.039202 0.676569 0.927722 0.129882
H5    H     H_    0.055367 0.778173 0.979292 0.140196
H6    H     H_    0.935943 0.885071 0.749251 0.242653
H7    H     H_    0.797388 0.823820 0.570438 0.183504
H8    H     H_    0.618837 0.206146 0.793192 0.122618
C23   C     C_R   0.729894 0.269667 0.731307 -0.155802
H9    H     H_    0.587911 0.284427 0.717298 0.121199
C24   C     C_R   0.894342 0.294957 0.706419 0.176757
C25   C     C_R   0.076647 0.274899 0.725393 -0.154750
H10   H     H_    0.205347 0.293766 0.706744 0.122767
C26   C     C_R   0.094290 0.230245 0.768629 -0.159036
H11   H     H_    0.236273 0.215484 0.782638 0.121151
C27   C     C_R   0.929842 0.204954 0.793517 0.176538
C28   C     C_R   0.747536 0.225012 0.774543 -0.156765
C29   C     C_1   0.876466 0.341020 0.661422 0.000061
C30   C     C_1   0.947723 0.158892 0.838513 -0.006423
C31   C     C_1   0.960931 0.120679 0.876286 -0.261446
C32   C     C_1   0.863273 0.379233 0.623649 -0.261569
H12   H     H_    0.698994 0.702162 0.296276 0.122622
C33   C     C_R   0.596786 0.767356 0.233338 -0.167625
H13   H     H_    0.740710 0.780063 0.220841 0.119527
C34   C     C_R   0.436144 0.795100 0.206722 0.178861
C35   C     C_R   0.251292 0.777521 0.223900 -0.164725
H14   H     H_    0.125215 0.798213 0.203985 0.121907
C36   C     C_R   0.227423 0.733024 0.266927 -0.166424
H15   H     H_    0.083498 0.720311 0.279419 0.119835
C37   C     C_R   0.388065 0.705271 0.293537 0.177999
C38   C     C_R   0.572917 0.722860 0.276366 -0.163344
C39   C     C_1   0.459947 0.841079 0.161802 -0.016837
C40   C     C_1   0.364265 0.659237 0.338419 -0.014349
C41   C     C_1   0.348895 0.621003 0.376146 -0.273482
C42   C     C_1   0.475330 0.879246 0.124028 -0.281229
C43   C     C_R   0.479745 0.162741 0.088292 -0.130636
C44   C     C_R   0.344885 0.338921 0.409693 -0.242186
C45   C     C_R   0.617652 0.269952 0.099622 -0.065589
C46   C     C_R   0.582361 0.215349 0.067531 -0.139461
C47   C     C_R   0.404641 0.166842 0.141359 -0.133078
C48   C     C_R   0.429004 0.224041 0.173937 0.118224
C49   C     C_R   0.548716 0.273525 0.153079 0.085235
C50   C     C_R   0.353202 0.231450 0.228113 -0.066906
C51   C     C_R   0.427803 0.281967 0.263422 -0.104849
C52   C     C_R   0.562611 0.326199 0.241468 0.727647
C53   C     C_R   0.611138 0.323994 0.186723 -0.351828
C54   C     C_R   0.206406 0.190361 0.248617 -0.086395
C55   C     C_R   0.174846 0.187700 0.304696 -0.156529
C56   C     C_R   0.253648 0.233963 0.340181 -0.079319
C57   C     C_R   0.367065 0.285371 0.319392 0.100454
C58   C     C_R   0.203792 0.232609 0.395664 0.791594
C59   C     C_R   0.249934 0.284464 0.429873 -0.290055
C60   C     C_R   0.404716 0.339192 0.354983 -0.151793
H16   H     H_    0.711099 0.359835 0.171461 0.177543
H17   H     H_    0.462669 0.384338 0.340429 0.196745
H18   H     H_    0.200756 0.283885 0.471672 0.160168
H19   H     H_    0.071232 0.153185 0.320120 0.216449
H20   H     H_    0.706548 0.308380 0.083344 0.112488
H21   H     H_    0.643812 0.212738 0.027149 0.108974
H22   H     H_    0.341254 0.123330 0.157875 0.100222
O11   O     O_R   0.323320 0.942780 0.056240 -0.593885
O12   O     O_R   0.647300 0.077050 0.046060 -0.589710
O13   O     O_R   0.813840 0.057330 0.943840 -0.585074
C61   C     C_R   0.479450 0.101132 0.056885 0.920263
O14   O     O_R   0.653250 0.944380 0.062400 -0.595689
O15   O     O_R   0.819830 0.923720 0.960300 -0.579106
C62   C     C_R   0.485214 0.924457 0.078325 0.972674
O16   O     O_R   0.317330 0.076390 0.039790 -0.587540
O17   O     O_3   0.483830 0.993470 0.966560 -0.257904
V3    V     V_3+5 0.760140 0.001210 0.006210 1.196154
O18   O     O_R   0.149290 0.922840 0.953850 -0.598667
C63   C     C_R   0.980569 0.898885 0.943547 1.046645
O19   O     O_R   0.143340 0.055500 0.937510 -0.591461
C64   C     C_R   0.973613 0.075513 0.921793 1.010968
V4    V     V_3+5 0.259690 0.998600 0.993650 1.195370
O20   O     O_3   0.986130 0.006520 0.033440 -0.280564
F1    F     F_    0.660829 0.369715 0.272480 -0.717101
C65   C     C_2   0.061193 0.157618 0.213145 0.982548
O21   O     O_2   0.004755 0.183869 0.171058 -0.638675
O22   O     O_R   0.982694 0.098091 0.229038 -0.795313
H23   H     H_    0.883258 0.081311 0.201929 0.326826
F2    F     F_    0.100192 0.182593 0.416283 -0.681434
F3    F     F_    0.860075 0.894249 0.649543 -0.671228
F4    F     F_    0.862480 0.897952 0.834731 -0.725828
F5    F     F_    0.864741 0.601522 0.747715 -0.723945

loop_
_geom_bond_atom_site_label_1
_geom_bond_atom_site_label_2
_geom_bond_distance
_ccdc_geom_bond_type
C13   C19   1.443382 A    
V3    O20   1.703455 S    
C31   C64   1.452780 S    
C4    C6    1.470260 S    
O2    C1    1.304132 A    
C7    C8    1.388494 A    
C57   C60   1.430314 A    
C46   H21   1.083806 S    
C1    O6    1.297264 A    
C65   O22   1.398739 S    
O22   H23   1.014144 S    
C50   C51   1.444305 A    
C14   C15   1.386630 A    
C36   H15   1.083247 S    
C9    C10   1.433160 A    
C16   C17   1.385356 A    
C34   C39   1.462454 S    
O5    C3    1.297883 A    
C18   C19   1.422275 A    
C45   H20   1.084092 S    
C33   C34   1.405109 A    
C39   C42   1.219535 T    
C16   H6    1.073183 S    
V2    O10   2.153331 S    
O15   V3    1.992867 S    
C5    C8    1.393232 A    
C35   C36   1.407833 A    
C48   C50   1.441976 A    
C47   H22   1.079536 S    
C36   C37   1.405119 A    
O13   C64   1.297873 A    
O8    V2    1.969387 S    
O12   C61   1.295682 A    
C43   C47   1.409508 A    
O11   C62   1.297285 A    
O19   C64   1.301700 A    
O1    V2    1.986531 S    
C2    C44   1.480515 S    
C11   C15   1.390619 A    
O7    V1    2.148691 S    
C29   C32   1.216446 T    
C45   C49   1.402098 A    
H8    C28   1.083240 S    
C26   C27   1.404449 A    
O14   V3    1.961369 S    
C34   C35   1.406203 A    
O9    C4    1.296090 A    
O19   V4    1.969608 S    
C43   C61   1.480172 S    
C65   O21   1.223696 D    
C54   C55   1.395409 A    
C25   C26   1.405770 A    
C27   C30   1.457288 S    
C47   C48   1.429071 A    
C40   C41   1.219555 T    
C3    C32   1.452807 S    
C37   C40   1.462475 S    
C49   C53   1.391341 A    
C12   C13   1.441174 A    
C9    F4    1.355629 S    
C59   H18   1.083892 S    
C1    C41   1.458006 S    
C8    H5    1.083669 S    
C51   C52   1.419355 A    
C24   C29   1.457295 S    
C15   H1    1.084651 S    
C13   C14   1.419832 A    
C61   O16   1.302921 A    
C17   F3    1.359271 S    
C21   H3    1.083638 S    
C55   H19   1.084585 S    
C35   H14   1.083295 S    
C7    C11   1.402952 A    
C48   C49   1.416434 A    
C17   C18   1.394525 A    
C7    H4    1.084058 S    
C44   C59   1.395429 A    
C23   C24   1.404453 A    
C56   C57   1.419445 A    
C54   C65   1.486826 S    
C50   C54   1.424025 A    
C20   H7    1.083433 S    
C43   C46   1.397301 A    
C27   C28   1.404823 A    
C19   C22   1.425514 A    
C14   F5    1.353363 S    
C6    C22   1.403876 A    
C58   C59   1.390782 A    
O3    C4    1.297190 A    
C44   C60   1.408573 A    
C26   H11   1.083207 S    
O14   C62   1.304136 A    
O6    V2    1.960135 S    
O9    V2    1.987518 S    
C23   H9    1.083206 S    
O11   V4    1.960688 S    
C10   C12   1.441490 A    
C24   C25   1.404823 A    
O2    V1    1.961170 S    
O4    C2    1.295327 A    
O18   V4    1.987592 S    
C25   H10   1.083240 S    
C56   C58   1.407513 A    
O1    C2    1.302978 A    
C58   F2    1.358752 S    
C12   C16   1.410260 A    
C33   C38   1.407830 A    
C45   C46   1.389919 A    
O5    V1    1.955895 S    
O8    C3    1.301702 A    
C30   C31   1.216439 T    
C42   C62   1.457973 S    
O18   C63   1.296088 A    
O15   C63   1.297342 A    
C52   F1    1.354257 S    
O17   V4    1.704157 S    
C20   C21   1.389511 A    
O12   V3    1.999668 S    
O7    V2    1.706969 S    
O4    V1    1.999629 S    
C53   H16   1.084661 S    
O3    V1    1.993083 S    
V1    O10   1.703382 S    
C5    C63   1.471466 S    
C37   C38   1.406206 A    
C18   C20   1.406325 A    
C23   C28   1.405774 A    
C33   H13   1.083248 S    
C22   H2    1.073399 S    
C6    C21   1.392428 A    
C5    C9    1.407612 A    
O13   V3    1.955818 S    
C52   C53   1.387908 A    
C51   C57   1.441505 A    
C55   C56   1.396534 A    
O17   V3    2.148670 S    
C60   H17   1.075581 S    
C10   C11   1.419266 A    
O16   V4    1.995480 S    
V4    O20   2.153408 S    
H12   C38   1.083293 S    
