data_mof_unit_pretest_1508.cif
_audit_creation_date              2012-12-10T18:24:48-0500
_audit_creation_method            fapswitch 2.2
_symmetry_space_group_name_H-M    P1
_symmetry_Int_Tables_number       1
_space_group_crystal_system       triclinic
_cell_length_a                    16.047329
_cell_length_b                    16.040139
_cell_length_c                    19.539056
_cell_angle_alpha                 95.18025
_cell_angle_beta                  90.535331
_cell_angle_gamma                 84.077098
_cell_volume                      4982.09909966

loop_
_atom_site_label
_atom_site_type_symbol
_atom_type_description
_atom_site_fract_x
_atom_site_fract_y
_atom_site_fract_z
_atom_type_partial_charge
C1    C     C_R   0.275834 0.510962 0.491007 0.506531
C2    C     C_2   0.458687 0.500895 0.979869 0.079648
C3    C     C_2   0.527728 0.487308 0.018525 0.078503
C4    C     C_R   0.724152 0.489228 0.508991 0.507986
C5    C     C_R   0.515221 0.486899 0.236386 0.035540
C6    C     C_1   0.186273 0.515547 0.487506 0.026729
C7    C     C_2   0.020983 0.523310 0.481492 -0.110011
C8    C     C_2   0.978935 0.476333 0.519471 0.119128
C9    C     C_1   0.888982 0.481019 0.515693 -0.032166
C10   C     C_1   0.110983 0.519230 0.484666 -0.016995
C11   C     C_1   0.813699 0.484868 0.512564 0.006677
C12   C     C_R   0.464953 0.501896 0.905019 0.052726
C13   C     C_1   0.516649 0.184907 0.487231 0.020566
C14   C     C_2   0.525278 0.018872 0.480648 -0.118166
C15   C     C_2   0.474928 0.981203 0.519348 -0.118507
C16   C     C_R   0.511786 0.274913 0.490927 0.505405
C17   C     C_1   0.479517 0.890825 0.515814 -0.040159
C18   C     C_1   0.520661 0.109252 0.484175 -0.039523
C19   C     C_1   0.483478 0.815172 0.512760 0.019150
C20   C     C_R   0.488249 0.725172 0.509078 0.506550
C21   C     C_R   0.510268 0.490009 0.311405 0.508924
C22   C     C_R   0.489524 0.509410 0.688588 0.509981
C23   C     C_R   0.417481 0.564516 0.871773 -0.106918
C24   C     C_R   0.481330 0.508056 0.763096 0.035447
C25   C     C_R   0.527081 0.444183 0.796395 -0.122106
C26   C     C_R   0.518393 0.440689 0.866653 -0.107625
C27   C     C_R   0.425804 0.567832 0.801105 -0.126802
C28   C     C_R   0.580077 0.527598 0.134683 -0.108158
C29   C     C_R   0.575987 0.528552 0.205775 -0.126823
C30   C     C_R   0.459355 0.443241 0.194806 -0.125039
C31   C     C_R   0.463157 0.442816 0.123595 -0.108127
C32   C     C_R   0.522775 0.486189 0.093330 0.052906
F1    F     F_    0.020150 0.423505 0.562113 -0.163095
F2    F     F_    0.605293 0.481707 0.989627 -0.186798
F3    F     F_    0.382095 0.520678 0.009911 -0.186523
H1    H     H_    0.569076 0.396296 0.768100 0.142171
H2    H     H_    0.389167 0.617134 0.776341 0.139080
H3    H     H_    0.553310 0.389961 0.890996 0.130538
H4    H     H_    0.420059 0.408183 0.092214 0.130315
H5    H     H_    0.987822 0.565412 0.447495 0.108226
H6    H     H_    0.429834 0.018091 0.554001 0.139784
H7    H     H_    0.570370 0.981986 0.445993 0.139934
H8    H     H_    0.620328 0.562053 0.236730 0.139531
H9    H     H_    0.412464 0.410054 0.217258 0.139077
H10   H     H_    0.375298 0.611679 0.900669 0.131618
H11   H     H_    0.627035 0.560526 0.111994 0.131773
O1    O     O_3   0.500000 0.500000 0.500000 -0.440812
O2    O     O_R   0.462330 0.445560 0.340470 -0.543917
O3    O     O_R   0.440930 0.559110 0.655640 -0.543543
O4    O     O_R   0.554010 0.538050 0.348260 -0.546552
O5    O     O_R   0.542730 0.457290 0.655630 -0.544964
O6    O     O_R   0.555880 0.314540 0.535300 -0.536042
O7    O     O_R   0.439840 0.689760 0.546310 -0.535685
O8    O     O_R   0.320170 0.458170 0.449830 -0.534738
O9    O     O_R   0.684110 0.537530 0.468570 -0.539005
O10   O     O_R   0.310830 0.559620 0.535340 -0.535011
O11   O     O_R   0.684890 0.444680 0.546270 -0.530549
O12   O     O_R   0.463420 0.314900 0.449800 -0.534368
O13   O     O_R   0.540870 0.680800 0.468590 -0.536107
Zn1   Zn    Zn3+2 0.569660 0.430340 0.558290 0.952005
Zn2   Zn    Zn3+2 0.437560 0.430860 0.436130 0.950793
Zn3   Zn    Zn3+2 0.568560 0.563000 0.447270 0.946118
Zn4   Zn    Zn3+2 0.424220 0.575810 0.558310 0.951470

loop_
_geom_bond_atom_site_label_1
_geom_bond_atom_site_label_2
_ccdc_geom_bond_type
C2    F3    S    
C6    C10   T    
C7    C10   S    
C27   H2    S    
C1    O8    A    
O1    Zn2   S    
O3    Zn4   S    
O8    Zn2   S    
C23   C27   A    
C28   H11   S    
C9    C11   T    
C14   C18   S    
C31   C32   A    
C24   C27   A    
C14   H7    S    
C7    H5    S    
C21   O2    A    
C2    C12   S    
O1    Zn3   S    
C2    C3    D    
O1    Zn1   S    
O10   Zn4   S    
C7    C8    D    
C16   O12   A    
C29   H8    S    
C4    C11   S    
O7    Zn4   S    
C12   C23   A    
C30   H9    S    
O2    Zn2   S    
C3    C32   S    
C13   C18   T    
O12   Zn2   S    
C22   O3    A    
C23   H10   S    
C20   O7    A    
C28   C29   A    
C17   C19   T    
C1    O10   A    
C31   H4    S    
C5    C29   A    
C8    F1    S    
C4    O9    A    
O1    Zn4   S    
C30   C31   A    
O4    Zn3   S    
C22   C24   S    
C25   H1    S    
C19   C20   S    
C1    C6    S    
O13   Zn3   S    
O9    Zn3   S    
C28   C32   A    
C5    C21   S    
C24   C25   A    
C15   H6    S    
O6    Zn1   S    
C5    C30   A    
C13   C16   S    
C15   C17   S    
C14   C15   D    
C22   O5    A    
O11   Zn1   S    
O5    Zn1   S    
C21   O4    A    
C3    F2    S    
C25   C26   A    
C26   H3    S    
C16   O6    A    
C4    O11   A    
C12   C26   A    
C8    C9    S    
C20   O13   A    
