data_mof_unit_pretest_1471.cif
_audit_creation_date              2013-03-05T16:06:22-0500
_audit_creation_method            fapswitch 2.2
_symmetry_space_group_name_H-M    P1
_symmetry_Int_Tables_number       1
_space_group_crystal_system       triclinic
_cell_length_a                    14.957302
_cell_length_b                    15.398423
_cell_length_c                    16.985676
_cell_angle_alpha                 89.476556
_cell_angle_beta                  98.461735
_cell_angle_gamma                 99.423426
_cell_volume                      3816.86893042

loop_
_atom_site_label
_atom_site_type_symbol
_atom_site_description
_atom_site_fract_x
_atom_site_fract_y
_atom_site_fract_z
_atom_type_partial_charge
O1    O     O_R   0.615140 0.606020 0.522930 -0.603281
O2    O     O_R   0.384860 0.393980 0.477070 -0.591500
O3    O     O_R   0.468580 0.639400 0.493740 -0.635579
O4    O     O_R   0.531420 0.360600 0.506260 -0.636193
C1    C     C_R   0.557139 0.662524 0.517103 0.915422
C2    C     C_R   0.442015 0.337362 0.487540 0.926262
O5    O     O_R   0.581950 0.481350 0.400520 -0.617526
O6    O     O_R   0.418050 0.518650 0.599480 -0.642398
O7    O     O_R   0.435380 0.514730 0.371330 -0.627087
O8    O     O_R   0.564620 0.485270 0.628670 -0.604568
C3    C     C_R   0.511902 0.498008 0.350192 0.906279
C4    C     C_R   0.489713 0.505730 0.650080 0.889755
Zn1   Zn    Zn3+2 0.597860 0.477710 0.519490 0.962461
Zn2   Zn    Zn3+2 0.402140 0.522290 0.480510 0.960442
C5    C     C_R   0.522001 0.503411 0.266452 -0.092004
C6    C     C_R   0.491779 0.527921 0.733762 -0.092301
C7    C     C_R   0.445757 0.508963 0.209492 -0.158096
C8    C     C_R   0.575435 0.539526 0.784474 -0.125786
C9    C     C_R   0.456577 0.521795 0.130692 -0.176895
C10   C     C_R   0.581303 0.570470 0.861199 -0.155986
C11   C     C_R   0.543793 0.529430 0.107767 0.052684
C12   C     C_R   0.502375 0.585170 0.890828 0.054184
C13   C     C_R   0.621182 0.521640 0.164246 0.339006
C14   C     C_R   0.417913 0.577353 0.839671 0.341097
C15   C     C_R   0.609076 0.508210 0.243587 -0.259336
C16   C     C_R   0.413687 0.548436 0.761194 -0.265312
C17   C     C_2   0.550866 0.536793 0.023571 -0.151839
C18   C     C_2   0.506405 0.591525 0.977132 -0.158614
H1    H     H_    0.377711 0.503328 0.225677 0.184909
H2    H     H_    0.637234 0.526047 0.764909 0.205308
H3    H     H_    0.349607 0.542825 0.721527 0.194219
H4    H     H_    0.668399 0.504772 0.287855 0.190850
H5    H     H_    0.466663 0.633818 0.002753 0.210454
H6    H     H_    0.589796 0.492652 0.999036 0.182070
H7    H     H_    0.647214 0.578614 0.899005 0.198519
H8    H     H_    0.396289 0.524204 0.087215 0.182978
C19   C     C_R   0.587343 0.754765 0.546226 -0.221996
C20   C     C_R   0.404187 0.242949 0.482261 -0.218321
C21   C     C_R   0.677391 0.869748 0.637510 0.232424
C22   C     C_R   0.286545 0.117577 0.436045 0.220864
C23   C     C_R   0.662563 0.782586 0.606878 0.222663
C24   C     C_R   0.319181 0.208892 0.436348 0.211398
C25   C     C_R   0.527589 0.813430 0.520560 -0.285663
C26   C     C_R   0.455480 0.186400 0.525951 -0.300005
C27   C     C_R   0.534609 0.895265 0.557625 0.065950
C28   C     C_R   0.426764 0.095450 0.523798 0.070498
C29   C     C_R   0.613327 0.926052 0.612964 -0.015185
C30   C     C_R   0.341797 0.060519 0.477370 -0.005007
C31   C     C_R   0.465875 0.948343 0.538412 0.115717
C32   C     C_R   0.485121 0.038123 0.560585 0.117251
C33   C     C_R   0.562544 0.067238 0.617725 -0.235372
C34   C     C_R   0.377692 0.913852 0.499505 -0.243183
C35   C     C_R   0.624405 0.011510 0.644721 -0.131372
C36   C     C_R   0.316315 0.968917 0.469881 -0.132502
H9    H     H_    0.681626 0.036716 0.689687 0.197521
H10   H     H_    0.250877 0.938935 0.437636 0.197324
H11   H     H_    0.521149 0.214497 0.558141 0.167811
H12   H     H_    0.473737 0.793608 0.471344 0.184017
H13   H     H_    0.574417 0.131679 0.645172 0.139520
H14   H     H_    0.354487 0.843839 0.493735 0.158774
N1    N     N_R   0.271750 0.551950 0.454510 -0.138208
N2    N     N_R   0.728250 0.448050 0.545490 -0.128042
C37   C     C_R   0.166694 0.621764 0.363013 -0.273439
C38   C     C_R   0.806411 0.323851 0.570112 -0.295575
C39   C     C_R   0.255881 0.610494 0.393084 0.279311
C40   C     C_R   0.735618 0.368838 0.581857 0.318110
C41   C     C_R   0.197703 0.497699 0.479723 0.233455
C42   C     C_R   0.799835 0.491954 0.510897 0.171743
C43   C     C_R   0.105297 0.502692 0.442837 0.010741
C44   C     C_R   0.868736 0.444794 0.491677 0.012808
C45   C     C_R   0.092373 0.571252 0.388972 0.066355
C46   C     C_R   0.871855 0.360541 0.524218 0.089087
C47   C     C_R   0.023956 0.447901 0.460708 0.074133
C48   C     C_R   0.939925 0.480805 0.448337 0.067918
C49   C     C_R   0.929029 0.545018 0.390454 -0.162064
C50   C     C_R   0.019231 0.359307 0.482666 -0.169693
C51   C     C_R   0.004477 0.588194 0.359398 -0.133258
C52   C     C_R   0.943755 0.315871 0.514254 -0.159809
H15   H     H_    0.994551 0.638216 0.315098 0.173684
H16   H     H_    0.943449 0.248661 0.533892 0.176703
H17   H     H_    0.154405 0.668418 0.316094 0.183488
H18   H     H_    0.812330 0.261659 0.599349 0.166603
H19   H     H_    0.862204 0.559900 0.367118 0.164567
H20   H     H_    0.069659 0.321030 0.470368 0.204945
C53   C     C_3   0.816331 0.591911 0.514867 -0.400965
C54   C     C_3   0.909342 0.631831 0.562318 -0.735100
H21   H     H_    0.915649 0.605882 0.623797 0.278520
H22   H     H_    0.968545 0.619158 0.534927 0.241377
H23   H     H_    0.914636 0.704434 0.565361 0.291643
H24   H     H_    0.804713 0.622044 0.455684 0.187696
H25   H     H_    0.767138 0.612481 0.549178 0.289438
C55   C     C_3   0.214416 0.441047 0.552261 -0.398569
C56   C     C_3   0.181236 0.476855 0.624464 -0.814789
H26   H     H_    0.210762 0.547546 0.634620 0.269690
H27   H     H_    0.105462 0.470035 0.615836 0.267045
H28   H     H_    0.202855 0.439417 0.678148 0.271068
H29   H     H_    0.186807 0.371062 0.542596 0.195287
H30   H     H_    0.285918 0.436159 0.567419 0.260782
C57   C     C_3   0.679930 0.335239 0.646210 -0.414355
C58   C     C_3   0.725804 0.376669 0.726300 -0.804152
H31   H     H_    0.740857 0.449399 0.721783 0.275715
H32   H     H_    0.680051 0.359169 0.771919 0.248535
H33   H     H_    0.791222 0.351965 0.745516 0.268390
H34   H     H_    0.609062 0.347259 0.634348 0.248311
H35   H     H_    0.675255 0.262775 0.650885 0.174855
C59   C     C_3   0.328724 0.656039 0.345705 -0.360585
C60   C     C_3   0.322671 0.753117 0.328353 -0.911851
H36   H     H_    0.294700 0.783590 0.376039 0.260630
H37   H     H_    0.391510 0.790552 0.322793 0.265438
H38   H     H_    0.277280 0.758904 0.271264 0.279455
H39   H     H_    0.398438 0.654396 0.373018 0.258272
H40   H     H_    0.320170 0.620562 0.287761 0.205121
N3    N     N_R   0.711959 0.529784 0.142930 0.202163
O9    O     O_R   0.736138 0.582240 0.086511 -0.365327
O10   O     O_R   0.774178 0.492614 0.185945 -0.376217
N4    N     N_R   0.335896 0.595069 0.866680 0.202280
O11   O     O_R   0.337816 0.665342 0.909222 -0.370969
O12   O     O_R   0.256850 0.549347 0.838108 -0.373342
N5    N     N_R   0.268197 0.265540 0.386901 0.240247
O13   O     O_R   0.306404 0.313523 0.333608 -0.356963
O14   O     O_R   0.181279 0.262737 0.389311 -0.363319
N6    N     N_R   0.721104 0.722868 0.641086 0.210928
O15   O     O_R   0.686092 0.651692 0.674452 -0.401378
O16   O     O_R   0.809338 0.748243 0.654804 -0.346526
N7    N     N_R   0.753730 0.898545 0.698123 0.232658
O17   O     O_R   0.820530 0.958635 0.682732 -0.353358
O18   O     O_R   0.757140 0.863799 0.768387 -0.295426
N8    N     N_R   0.200706 0.082574 0.388870 0.224752
O19   O     O_R   0.188305 0.094368 0.312346 -0.296181
O20   O     O_R   0.133402 0.042307 0.422923 -0.360217

loop_
_geom_bond_atom_site_label_1
_geom_bond_atom_site_label_2
_geom_bond_distance
_ccdc_geom_bond_type
C40   C57   1.507577 S    
C37   C39   1.394353 A    
C56   H26   1.110536 S    
C21   N7    1.434208 S    
C1    C19   1.484318 S    
C7    H1    1.082579 S    
C47   C48   1.417553 A    
N8    O19   1.301025 A    
C50   H20   1.074308 S    
C53   H25   1.089615 S    
C55   H30   1.077366 S    
C21   C23   1.415128 A    
C59   H40   1.110562 S    
C53   C54   1.536868 S    
O5    C3    1.309465 A    
C37   H17   1.083825 S    
O1    C1    1.319004 A    
C9    C11   1.402015 A    
C50   C52   1.390733 A    
C20   C24   1.413204 A    
C9    H8    1.083680 S    
C54   H22   1.103711 S    
C24   N5    1.436593 S    
C5    C15   1.403342 A    
C59   C60   1.535587 S    
C22   N8    1.435115 S    
N4    O11   1.300736 A    
C5    C7    1.396292 A    
C27   C29   1.412161 A    
O4    Zn1   1.909149 S    
C43   C45   1.409301 A    
C55   C56   1.528221 S    
C46   C52   1.398651 A    
C34   H14   1.077845 S    
C25   H12   1.080176 S    
C10   H7    1.083828 S    
C3    C5    1.452532 S    
Zn1   N2    2.059549 S    
C4    C6    1.459663 S    
C26   C28   1.395170 A    
C44   C48   1.418839 A    
C60   H36   1.105554 S    
C2    C20   1.469649 S    
C43   C47   1.432501 A    
C8    H2    1.078146 S    
C8    C10   1.377371 A    
C29   C35   1.401913 A    
C15   H4    1.083431 S    
N5    O14   1.300355 A    
C57   H34   1.095065 S    
C11   C17   1.451527 S    
C16   H3    1.078889 S    
C56   H27   1.108823 S    
C12   C18   1.461802 S    
C42   C53   1.518923 S    
C60   H37   1.111146 S    
O2    C2    1.311115 A    
C34   C36   1.387838 A    
C55   H29   1.093803 S    
C28   C30   1.419612 A    
C59   H39   1.081313 S    
C35   H9    1.082023 S    
C17   H6    1.086706 S    
C6    C16   1.401748 A    
C57   H35   1.109396 S    
C53   H24   1.105686 S    
C36   H10   1.081662 S    
C48   C49   1.399553 A    
N2    C40   1.375400 A    
O4    C2    1.318194 A    
C54   H21   1.111190 S    
Zn2   N1    2.059549 S    
C54   H23   1.108905 S    
C58   H33   1.110984 S    
C33   C35   1.389499 A    
C38   C40   1.394909 A    
C23   N6    1.433217 S    
C19   C25   1.395499 A    
C30   C36   1.401429 A    
O7    Zn2   1.998536 S    
C20   C26   1.391737 A    
C13   N3    1.441684 S    
O7    C3    1.313156 A    
N1    C41   1.392123 A    
C57   C58   1.525194 S    
C27   C31   1.415273 A    
C26   H11   1.076124 S    
O6    C4    1.312548 A    
C31   C34   1.406779 A    
C58   H32   1.110507 S    
C32   C33   1.411108 A    
C51   H15   1.084224 S    
C49   C51   1.384516 A    
C38   H18   1.085217 S    
O3    Zn2   1.909147 S    
O8    C4    1.313168 A    
C42   C44   1.429827 A    
C37   C45   1.374770 A    
C18   H5    1.083944 S    
C14   N4    1.437806 S    
C56   H28   1.110424 S    
C11   C13   1.411078 A    
N7    O17   1.300964 A    
C60   H38   1.110708 S    
C12   C14   1.412297 A    
O1    Zn1   1.950469 S    
C10   C12   1.400944 A    
N6    O16   1.300377 A    
C39   C59   1.524502 S    
C45   C51   1.401546 A    
C41   C55   1.517454 S    
C21   C29   1.411235 A    
N3    O9    1.301473 A    
C22   C30   1.415410 A    
O6    Zn2   2.001030 S    
C14   C16   1.398543 A    
O3    C1    1.316160 A    
O8    Zn1   1.998535 S    
N8    O20   1.301094 A    
N5    O13   1.301409 A    
C28   C32   1.418902 A    
N2    C42   1.374625 A    
C25   C27   1.395346 A    
C49   H19   1.079543 S    
C22   C24   1.410699 A    
C58   H31   1.109851 S    
C7    C9    1.380284 A    
N4    O12   1.301496 A    
C52   H16   1.083960 S    
C38   C46   1.385809 A    
C19   C23   1.421211 A    
O2    Zn2   1.950472 S    
N1    C39   1.391981 A    
O5    Zn1   2.001030 S    
C13   C15   1.395067 A    
C33   H13   1.076981 S    
C47   C50   1.404293 A    
C6    C8    1.397132 A    
C31   C32   1.408277 A    
C17   C18   1.338556 D    
N7    O18   1.301000 A    
C44   C46   1.410672 A    
C41   C43   1.444951 A    
N6    O15   1.297961 A    
N3    O10   1.301613 A    
