data_mof_unit_pretest_1357.cif
_audit_creation_date              2012-12-10T18:53:02-0500
_audit_creation_method            fapswitch 2.2
_symmetry_space_group_name_H-M    P1
_symmetry_Int_Tables_number       1
_space_group_crystal_system       triclinic
_cell_length_a                    9.84437
_cell_length_b                    10.720338
_cell_length_c                    16.746985
_cell_angle_alpha                 90.289867
_cell_angle_beta                  84.384443
_cell_angle_gamma                 89.819984
_cell_volume                      1758.87641697

loop_
_atom_site_label
_atom_site_type_symbol
_atom_type_description
_atom_site_fract_x
_atom_site_fract_y
_atom_site_fract_z
_atom_type_partial_charge
C1    C     C_R   0.499873 0.740123 0.500266 0.870977
C2    C     C_R   0.062604 0.576636 0.550899 0.053217
C3    C     C_R   0.081239 0.423587 0.449274 -0.137592
C4    C     C_R   0.918758 0.576448 0.550712 -0.134318
C5    C     C_R   0.480272 0.506370 0.652858 0.866994
C6    C     C_R   0.519959 0.498605 0.346580 0.879733
C7    C     C_R   0.467264 0.546548 0.735681 -0.033375
C8    C     C_R   0.535067 0.498581 0.259387 -0.055204
C9    C     C_R   0.554641 0.640244 0.758615 -0.192308
C10   C     C_R   0.420623 0.479407 0.217575 -0.192766
C11   C     C_R   0.547804 0.678542 0.837891 -0.171091
C12   C     C_R   0.500097 0.259872 0.499908 0.875539
C13   C     C_R   0.432797 0.487548 0.134856 -0.152305
C14   C     C_R   0.456814 0.620271 0.894820 0.093294
C15   C     C_R   0.558903 0.516226 0.093116 0.079968
C16   C     C_R   0.360256 0.534156 0.871021 0.044243
C17   C     C_R   0.675779 0.530295 0.134222 0.015775
C18   C     C_R   0.365098 0.498591 0.790659 -0.224894
C19   C     C_R   0.663146 0.521194 0.217490 -0.222384
C20   C     C_2   0.486611 0.626898 0.978302 0.118866
C21   C     C_2   0.563404 0.534889 0.006612 0.136954
C22   C     C_3   0.749777 0.475896 0.905585 -0.733430
C23   C     C_R   0.620660 0.935856 0.511093 -0.196789
C24   C     C_3   0.512109 0.817269 0.053078 -0.765526
C25   C     C_1   0.261802 0.475971 0.928579 0.124107
C26   C     C_1   0.807082 0.561083 0.093125 0.147880
C27   C     C_1   0.876215 0.341587 0.394617 0.191451
C28   C     C_1   0.123800 0.658428 0.605389 0.196294
C29   C     C_R   0.379142 0.064113 0.489650 -0.194087
C30   C     C_R   0.620895 0.063614 0.510729 -0.178673
C31   C     C_R   0.378917 0.936368 0.489991 -0.176956
C32   C     C_R   0.500140 0.127410 0.500004 -0.016276
C33   C     C_R   0.499727 0.872571 0.500566 -0.013658
C34   C     C_R   0.937400 0.423392 0.449093 0.053055
H1    H     H_    0.630280 0.681730 0.715446 0.143636
H2    H     H_    0.284838 0.888030 0.481532 0.160712
H3    H     H_    0.143805 0.362756 0.408921 0.135924
H4    H     H_    0.856186 0.637301 0.591053 0.131512
H5    H     H_    0.633154 0.353955 0.980651 0.227862
H6    H     H_    0.738274 0.452746 0.841952 0.249399
H7    H     H_    0.838629 0.423289 0.924380 0.241078
H8    H     H_    0.771631 0.577192 0.910403 0.241560
H9    H     H_    0.334696 0.757049 0.008784 0.234944
H10   H     H_    0.454314 0.883016 0.095238 0.244351
H11   H     H_    0.555179 0.869834 0.999467 0.229506
H12   H     H_    0.321329 0.460010 0.248743 0.158968
H13   H     H_    0.596643 0.776833 0.083914 0.251629
H14   H     H_    0.752335 0.535519 0.249605 0.164970
H15   H     H_    0.294349 0.429640 0.771697 0.146409
H16   H     H_    0.342917 0.474762 0.103294 0.160766
H17   H     H_    0.621590 0.745200 0.855998 0.138516
H18   H     H_    0.714628 0.887106 0.519811 0.155946
H19   H     H_    0.285152 0.112840 0.480953 0.157222
H20   H     H_    0.714971 0.111966 0.519173 0.160643
N1    N     N_R   0.142790 0.500030 0.500020 -0.101030
N2    N     N_R   0.857210 0.499970 0.499980 -0.100788
N3    N     N_2   0.626580 0.440582 0.954707 -0.312799
N4    N     N_2   0.421583 0.720584 0.029659 -0.308433
N5    N     N_1   0.182724 0.429197 0.974543 -0.204189
N6    N     N_1   0.912473 0.586080 0.060486 -0.197120
N7    N     N_1   0.827487 0.275545 0.350643 -0.212530
N8    N     N_1   0.172541 0.724445 0.649375 -0.209389
O1    O     O_R   0.385380 0.683250 0.500010 -0.618571
O2    O     O_R   0.614620 0.316750 0.499990 -0.617439
O3    O     O_R   0.614710 0.683220 0.500000 -0.632056
O4    O     O_R   0.385290 0.316780 0.500000 -0.628956
O5    O     O_R   0.371780 0.500040 0.615800 -0.605893
O6    O     O_R   0.628220 0.499960 0.384200 -0.611961
O7    O     O_R   0.601110 0.500010 0.615800 -0.621576
O8    O     O_R   0.398890 0.499990 0.384200 -0.622704
Zn1   Zn    Zn3+2 0.346870 0.500020 0.500000 0.958333
Zn2   Zn    Zn3+2 0.653130 0.499980 0.500000 0.954833

loop_
_geom_bond_atom_site_label_1
_geom_bond_atom_site_label_2
_ccdc_geom_bond_type
N1    Zn1   S    
C10   H12   S    
O7    Zn2   S    
C2    C4    A    
C25   N5    T    
C31   C33   A    
C34   N2    A    
O8    Zn1   S    
O3    Zn2   S    
C9    C11   A    
C21   N3    S    
C31   H2    S    
C1    O3    A    
O4    Zn1   S    
C3    C34   A    
C13   C15   A    
O6    Zn2   S    
C5    O5    A    
C7    C18   A    
C22   H6    S    
C7    C9    A    
C22   N3    S    
C6    O6    A    
C1    C33   S    
C29   C31   A    
C12   C32   S    
C30   C32   A    
C30   H20   S    
C6    O8    A    
C23   H18   S    
C22   H8    S    
C26   N6    T    
C29   H19   S    
C12   O2    A    
C17   C26   S    
C1    O1    A    
C16   C18   A    
C17   C19   A    
O1    Zn1   S    
C29   C32   A    
O5    Zn1   S    
C2    N1    A    
O2    Zn2   S    
C27   C34   S    
C28   N8    T    
C24   H10   S    
C11   C14   A    
C14   C16   A    
C22   H7    S    
C11   H17   S    
C24   H11   S    
C9    H1    S    
C13   H16   S    
C8    C19   A    
C23   C30   A    
C14   C20   S    
C15   C21   S    
C20   N4    S    
C20   C21   D    
C3    H3    S    
C24   N4    S    
C16   C25   S    
C15   C17   A    
C2    C28   S    
C5    C7    S    
C6    C8    S    
C27   N7    T    
H9    N4    S    
C23   C33   A    
C3    N1    A    
C19   H14   S    
C24   H13   S    
C12   O4    A    
C5    O7    A    
C8    C10   A    
C4    N2    A    
C18   H15   S    
C4    H4    S    
N2    Zn2   S    
C10   C13   A    
H5    N3    S    
