data_mof_unit_pretest_806.cif
_audit_creation_date              2012-12-10T21:00:45-0500
_audit_creation_method            fapswitch 2.2
_symmetry_space_group_name_H-M    P1
_symmetry_Int_Tables_number       1
_space_group_crystal_system       triclinic
_cell_length_a                    18.138425
_cell_length_b                    18.160772
_cell_length_c                    18.307379
_cell_angle_alpha                 119.887286
_cell_angle_beta                  89.936262
_cell_angle_gamma                 119.85272
_cell_volume                      4283.31436641

loop_
_atom_site_label
_atom_site_type_symbol
_atom_type_description
_atom_site_fract_x
_atom_site_fract_y
_atom_site_fract_z
_atom_type_partial_charge
C1    C     C_R   0.113979 0.219977 0.609416 0.835793
C2    C     C_R   0.890167 0.779974 0.390146 0.856732
C3    C     C_3   0.984471 0.430535 0.413210 -0.286647
C4    C     C_3   0.015981 0.569777 0.586550 -0.285860
C5    C     C_3   0.445483 0.966783 0.925211 -0.187558
C6    C     C_3   0.554512 0.033225 0.074820 -0.186782
C7    C     C_3   0.549675 0.038033 0.957746 -0.173242
C8    C     C_3   0.450318 0.961973 0.042285 -0.171366
C9    C     C_3   0.549606 0.102429 0.052767 0.067223
C10   C     C_3   0.450388 0.897578 0.947260 0.067985
C11   C     C_3   0.446081 0.032568 0.020988 -0.153939
C12   C     C_3   0.553910 0.967442 0.979047 -0.151425
C13   C     C_3   0.413179 0.431268 0.448118 -0.145710
C14   C     C_3   0.586715 0.568460 0.551874 -0.116032
C15   C     C_3   0.482043 0.404623 0.447617 -0.201887
C16   C     C_3   0.517857 0.595106 0.552350 -0.180412
C17   C     C_3   0.550866 0.500079 0.449466 0.057158
C18   C     C_3   0.449052 0.499672 0.550512 0.062055
C19   C     C_3   0.482910 0.526757 0.449127 -0.171298
C20   C     C_3   0.516973 0.472960 0.550841 -0.168904
C21   C     C_R   0.208081 0.168819 0.808642 -0.211504
C22   C     C_R   0.803963 0.881171 0.223906 -0.218853
C23   C     C_R   0.392840 0.781215 0.888191 0.761851
C24   C     C_R   0.607159 0.218787 0.111815 0.760547
C25   C     C_R   0.175540 0.134870 0.721483 -0.218998
C26   C     C_R   0.851210 0.916126 0.306595 -0.211460
C27   C     C_R   0.087337 0.099881 0.686603 0.082865
C28   C     C_R   0.919753 0.902786 0.314999 0.077566
C29   C     C_R   0.031953 0.101808 0.740874 0.531608
C30   C     C_R   0.942580 0.855077 0.239278 0.528594
C31   C     C_R   0.064257 0.135144 0.829050 0.478950
C32   C     C_R   0.892547 0.817044 0.154462 0.472662
C33   C     C_R   0.154009 0.170951 0.862886 -0.310657
C34   C     C_R   0.823937 0.831662 0.148423 -0.296607
C35   C     C_R   0.000514 0.943478 0.534147 0.499267
C36   C     C_R   0.034807 0.055041 0.459618 0.460670
C37   C     C_R   0.954141 0.891873 0.443950 -0.255817
C38   C     C_R   0.066296 0.107618 0.553069 -0.284145
C39   C     C_R   0.971944 0.948396 0.406297 -0.097934
C40   C     C_R   0.050445 0.051000 0.590226 -0.114969
C41   C     C_R   0.684112 0.759902 0.921347 0.579669
C42   C     C_R   0.307342 0.235541 0.072358 0.582423
C43   C     C_R   0.638491 0.674708 0.926745 -0.213952
C44   C     C_R   0.353524 0.322912 0.070083 -0.239450
C45   C     C_R   0.110592 0.500518 0.889444 0.792194
C46   C     C_R   0.888767 0.498795 0.109897 0.800062
C47   C     C_R   0.590246 0.674607 0.986708 0.077970
C48   C     C_R   0.408952 0.329194 0.016819 0.082292
C49   C     C_R   0.588946 0.761272 0.043108 -0.147938
C50   C     C_R   0.416409 0.246367 0.964055 -0.139796
C51   C     C_R   0.636315 0.847820 0.040351 -0.214122
C52   C     C_R   0.368121 0.157672 0.963823 -0.214795
C53   C     C_R   0.684412 0.848056 0.980681 -0.221512
C54   C     C_R   0.313216 0.151700 0.017163 -0.203125
C55   C     C_R   0.592060 0.578917 0.043325 -0.259783
C56   C     C_R   0.407254 0.428617 0.964822 -0.279386
C57   C     C_R   0.550466 0.497967 0.054061 -0.048214
C58   C     C_R   0.449264 0.506686 0.950694 -0.048003
C59   C     C_R   0.456966 0.421100 0.013833 0.013694
C60   C     C_R   0.542521 0.584427 0.991929 0.012280
C61   C     C_R   0.151733 0.806481 0.972763 -0.231823
C62   C     C_R   0.840548 0.189492 0.023059 -0.206674
C63   C     C_R   0.127334 0.739247 0.998780 -0.223642
C64   C     C_R   0.864528 0.258868 0.999576 -0.162575
C65   C     C_R   0.046897 0.639489 0.947633 0.179130
C66   C     C_R   0.948544 0.355095 0.047025 0.172382
C67   C     C_R   0.392264 0.499914 0.607707 0.767570
C68   C     C_R   0.607715 0.499996 0.392292 0.774189
C69   C     C_R   0.990232 0.608338 0.871283 -0.220086
C70   C     C_R   0.009413 0.379831 0.116202 -0.229622
C71   C     C_R   0.014665 0.675660 0.845368 -0.241906
C72   C     C_R   0.985525 0.310240 0.139375 -0.221209
C73   C     C_R   0.096337 0.774017 0.894521 0.622664
C74   C     C_R   0.900300 0.216032 0.094713 0.605604
C75   C     C_R   0.968529 0.562419 0.025054 -0.251628
C76   C     C_R   0.028126 0.434024 0.971500 -0.268473
C77   C     C_R   0.943826 0.495941 0.051989 -0.070487
C78   C     C_R   0.053613 0.501326 0.945419 -0.064246
C79   C     C_R   0.973180 0.429795 0.023875 0.005689
C80   C     C_R   0.023290 0.566415 0.972484 -0.001249
C81   C     C_R   0.393793 0.502453 0.891089 0.805095
C82   C     C_R   0.606179 0.498695 0.110026 0.799490
C83   C     C_R   0.109104 0.500411 0.607882 0.847400
C84   C     C_R   0.891075 0.499761 0.392089 0.841196
C85   C     C_3   0.077017 0.526674 0.483785 0.637396
C86   C     C_3   0.923458 0.473660 0.516018 0.633399
C87   C     C_3   0.042681 0.596396 0.517988 -0.340054
C88   C     C_3   0.957799 0.403918 0.481796 -0.337495
C89   C     C_3   0.949268 0.499782 0.448422 -0.095149
C90   C     C_3   0.051193 0.500581 0.551420 -0.097826
H1    H     H_    0.076716 0.674334 0.531217 0.144085
H2    H     H_    0.924011 0.325959 0.468478 0.160373
H3    H     H_    0.182620 0.200220 0.930814 0.171043
H4    H     H_    0.784038 0.802275 0.084793 0.174067
H5    H     H_    0.275558 0.193086 0.834002 0.171964
H6    H     H_    0.750871 0.891417 0.218070 0.172871
H7    H     H_    0.218171 0.132764 0.680069 0.133324
H8    H     H_    0.834818 0.954530 0.364745 0.155351
H9    H     H_    0.640128 0.608016 0.883619 0.147507
H10   H     H_    0.346740 0.386141 0.110292 0.146756
H11   H     H_    0.552255 0.762190 0.089915 0.124283
H12   H     H_    0.458445 0.249990 0.922160 0.120001
H13   H     H_    0.636293 0.915219 0.085113 0.141203
H14   H     H_    0.372770 0.093204 0.921726 0.141782
H15   H     H_    0.663531 0.639081 0.075754 0.189932
H16   H     H_    0.335323 0.371106 0.935605 0.188069
H17   H     H_    0.213482 0.883640 0.013421 0.128888
H18   H     H_    0.775770 0.115242 0.985527 0.125715
H19   H     H_    0.171281 0.764458 0.058280 0.131102
H20   H     H_    0.817550 0.238135 0.945020 0.124686
H21   H     H_    0.970182 0.651448 0.786882 0.156863
H22   H     H_    0.032909 0.329939 0.192845 0.155105
H23   H     H_    0.945381 0.612193 0.045168 0.218393
H24   H     H_    0.050676 0.383575 0.950771 0.183343
H25   H     H_    0.591219 0.070322 0.923432 0.121160
H26   H     H_    0.408787 0.929689 0.076606 0.120441
H27   H     H_    0.401907 0.059833 0.039518 0.132684
H28   H     H_    0.598064 0.940178 0.960514 0.134702
H29   H     H_    0.468294 0.326534 0.403533 0.128725
H30   H     H_    0.531577 0.673182 0.596427 0.132566
O1    O     O_3   0.251620 0.500000 0.748430 -0.485920
O2    O     O_3   0.748380 0.500000 0.251570 -0.494349
O3    O     O_R   0.134680 0.560740 0.864590 -0.632333
O4    O     O_R   0.865320 0.439260 0.135410 -0.645360
O5    O     O_R   0.306670 0.439270 0.571150 -0.644463
O6    O     O_R   0.693330 0.560730 0.428850 -0.630137
O7    O     O_R   0.135450 0.268370 0.694460 -0.667614
O8    O     O_R   0.864550 0.731630 0.305540 -0.638196
O9    O     O_R   0.429670 0.731610 0.863510 -0.635861
O10   O     O_R   0.570330 0.268390 0.136490 -0.636216
O11   O     O_R   0.134680 0.268390 0.572240 -0.589747
O12   O     O_R   0.865320 0.731610 0.427760 -0.589399
O13   O     O_R   0.306670 0.731630 0.863510 -0.645956
O14   O     O_R   0.693330 0.268370 0.136490 -0.647408
O15   O     O_R   0.135450 0.439270 0.865360 -0.658186
O16   O     O_R   0.864550 0.560730 0.134640 -0.617173
O17   O     O_R   0.429670 0.560710 0.692610 -0.645017
O18   O     O_R   0.570330 0.439290 0.307390 -0.654991
O19   O     O_R   0.308540 0.439240 0.865360 -0.649261
O20   O     O_R   0.691460 0.560760 0.134640 -0.650626
O21   O     O_R   0.133580 0.439310 0.571150 -0.605795
O22   O     O_R   0.866420 0.560690 0.428850 -0.612135
O23   O     O_R   0.430770 0.560690 0.864590 -0.636671
O24   O     O_R   0.569230 0.439310 0.135410 -0.637598
O25   O     O_R   0.133580 0.560760 0.692610 -0.665346
O26   O     O_R   0.866420 0.439240 0.307390 -0.664024
Zn1   Zn    Zn3+2 0.207400 0.586780 0.791530 0.956787
Zn2   Zn    Zn3+2 0.792600 0.413220 0.208470 0.951819
Zn3   Zn    Zn3+2 0.208510 0.413230 0.792630 0.939317
Zn4   Zn    Zn3+2 0.791490 0.586770 0.207370 0.989718
Zn5   Zn    Zn3+2 0.383150 0.586740 0.791530 0.964713
Zn6   Zn    Zn3+2 0.616850 0.413260 0.208470 0.957869
Zn7   Zn    Zn3+2 0.207400 0.413250 0.618010 0.997373
Zn8   Zn    Zn3+2 0.792600 0.586750 0.381990 1.013016
O27   O     O_3   0.942753 0.060070 0.704601 -0.585821
C91   C     C_3   0.934695 0.141171 0.725648 -0.270582
H31   H     H_    0.968024 0.176227 0.689831 0.153063
H32   H     H_    0.961786 0.201863 0.798738 0.181521
H33   H     H_    0.862253 0.108466 0.702997 0.177082
O28   O     O_3   0.007806 0.838588 0.249824 -0.606617
C92   C     C_3   0.071759 0.869339 0.208625 -0.307078
H34   H     H_    0.080773 0.932285 0.204311 0.138163
H35   H     H_    0.053688 0.801449 0.141490 0.223107
H36   H     H_    0.137911 0.899066 0.248607 0.157375
O29   O     O_3   0.006632 0.135295 0.879508 -0.613451
C93   C     C_3   0.020266 0.114703 0.941247 -0.243494
H37   H     H_    0.077664 0.186390 0.002477 0.182693
H38   H     H_    0.029822 0.050883 0.911874 0.176694
H39   H     H_    0.959350 0.089318 0.961367 0.203198
O30   O     O_3   0.905750 0.757336 0.078361 -0.625042
C94   C     C_3   0.915734 0.791517 0.022287 -0.320317
H40   H     H_    0.956101 0.877637 0.060211 0.166625
H41   H     H_    0.848945 0.755189 0.978060 0.204017
H42   H     H_    0.952298 0.765979 0.978946 0.207542
O31   O     O_3   0.991549 0.889396 0.570456 -0.555716
C95   C     C_3   0.054678 0.864124 0.555589 -0.262964
H43   H     H_    0.124858 0.934697 0.587602 0.132458
H44   H     H_    0.041719 0.811980 0.483167 0.134807
H45   H     H_    0.048322 0.822280 0.585866 0.196526
O32   O     O_3   0.057709 0.107661 0.419624 -0.566910
C96   C     C_3   0.138126 0.123129 0.401685 -0.267323
H46   H     H_    0.135399 0.050933 0.367458 0.147554
H47   H     H_    0.197110 0.183656 0.463890 0.162256
H48   H     H_    0.149009 0.149889 0.357364 0.178056
H49   H     H_    0.722295 0.917335 0.981849 0.152461
H50   H     H_    0.274869 0.081829 0.015198 0.153291
O33   O     O_3   0.732622 0.756006 0.862243 -0.627476
C97   C     C_3   0.727034 0.801731 0.820654 -0.294859
H51   H     H_    0.775784 0.887377 0.864876 0.174180
H52   H     H_    0.657422 0.779208 0.799215 0.159004
H53   H     H_    0.746167 0.773907 0.759796 0.202273
O34   O     O_3   0.251368 0.230200 0.123590 -0.621479
C98   C     C_3   0.287082 0.232472 0.193674 -0.330840
H54   H     H_    0.357900 0.301530 0.233664 0.180383
H55   H     H_    0.282600 0.160071 0.168297 0.151483
H56   H     H_    0.246527 0.237943 0.239053 0.191075
O35   O     O_3   0.161044 0.553909 0.470809 -0.602780
C99   C     C_3   0.167638 0.576644 0.406933 -0.333351
H57   H     H_    0.167125 0.645966 0.431271 0.150320
H58   H     H_    0.113251 0.509258 0.341932 0.159335
H59   H     H_    0.232718 0.594662 0.395299 0.194320
O36   O     O_3   0.839879 0.447612 0.529803 -0.599874
C100  C     C_3   0.829399 0.414853 0.586787 -0.338680
H60   H     H_    0.887348 0.472776 0.649901 0.154886
H61   H     H_    0.819313 0.338369 0.552449 0.155348
H62   H     H_    0.768322 0.405360 0.604721 0.196455
O37   O     O_3   0.117450 0.839914 0.868663 -0.619062
C101  C     C_3   0.193592 0.857162 0.840962 -0.341493
H63   H     H_    0.183807 0.782964 0.788557 0.183517
H64   H     H_    0.255079 0.904871 0.898380 0.157034
H65   H     H_    0.204375 0.901037 0.811689 0.193518
O38   O     O_3   0.879205 0.147996 0.118041 -0.625550
C102  C     C_3   0.809605 0.138489 0.155355 -0.342750
H66   H     H_    0.744945 0.095393 0.103753 0.156608
H67   H     H_    0.826570 0.215464 0.211128 0.180559
H68   H     H_    0.800142 0.093424 0.183068 0.197694
H69   H     H_    0.927636 0.531811 0.831618 0.139354
H70   H     H_    0.074972 0.453216 0.152490 0.140900
H71   H     H_    0.972128 0.374931 0.342040 0.172571
H72   H     H_    0.028455 0.625522 0.657667 0.177024
H73   H     H_    0.400569 0.938723 0.862969 0.117295
H74   H     H_    0.599428 0.061289 0.137063 0.117172
H75   H     H_    0.341004 0.375003 0.406638 0.140706
H76   H     H_    0.658838 0.624683 0.593513 0.155422
H77   H     H_    0.469885 0.548598 0.406275 0.135064
H78   H     H_    0.529942 0.451049 0.593654 0.136618

loop_
_geom_bond_atom_site_label_1
_geom_bond_atom_site_label_2
_ccdc_geom_bond_type
C5    H73   S    
C100  H60   S    
C72   H22   S    
O29   C93   S    
C87   H1    S    
C27   C29   A    
C4    H72   S    
C68   O18   A    
C36   O32   S    
C76   C79   A    
C94   H40   S    
C6    C9    S    
C63   C65   A    
C92   H34   S    
C47   C49   A    
C4    C87   S    
C102  H66   S    
C45   O3    A    
C30   O28   S    
C66   C79   S    
O4    Zn2   S    
C41   O33   S    
C70   H70   S    
C68   O6    A    
O1    Zn7   S    
C13   C18   S    
C55   H15   S    
C97   H53   S    
C69   H69   S    
O2    Zn4   S    
C14   H76   S    
C91   H31   S    
C35   C37   A    
C76   C78   A    
O9    Zn5   S    
C2    O12   A    
C67   O5    A    
C6    C12   S    
C86   C88   S    
C96   H48   S    
C21   C33   A    
O30   C94   S    
C58   C60   A    
C20   H78   S    
C23   O9    A    
C18   C20   S    
C97   H52   S    
C7    H25   S    
C69   C71   A    
C53   H49   S    
C82   O20   A    
C92   H35   S    
C47   C60   S    
C83   O25   A    
C81   O23   A    
C64   H20   S    
C91   H32   S    
C95   H45   S    
C31   O29   S    
O1    Zn3   S    
C101  H63   S    
C49   C51   A    
C71   H21   S    
O12   Zn8   S    
O1    Zn1   S    
C99   H57   S    
O13   Zn1   S    
O2    Zn2   S    
C56   C58   A    
C43   C47   A    
C75   C80   A    
C86   O36   S    
C94   H41   S    
O26   Zn2   S    
C29   O27   S    
O23   Zn5   S    
C73   O37   S    
C65   C80   S    
C55   C60   A    
C93   H38   S    
O2    Zn8   S    
C14   C17   S    
C46   O4    A    
C15   C20   S    
O8    Zn4   S    
C42   C44   A    
C13   H75   S    
C61   H17   S    
O25   Zn1   S    
C82   O24   A    
C52   C54   A    
C16   H30   S    
C4    C90   S    
C102  H67   S    
C16   C19   S    
C7    C12   S    
C22   C34   A    
C94   H42   S    
C45   O15   A    
C70   C72   A    
O36   C100  S    
C23   O13   A    
C85   C87   S    
O37   C101  S    
C14   C20   S    
C100  H62   S    
O11   Zn7   S    
C72   C74   A    
C21   C25   A    
C58   C81   S    
C5    C7    S    
C13   C19   S    
C6    C8    S    
C21   H5    S    
C28   C39   S    
C98   H55   S    
C18   C67   S    
C96   H46   S    
C96   H47   S    
O19   Zn3   S    
O1    Zn5   S    
C74   O38   S    
C97   H51   S    
C51   C53   A    
C64   C66   A    
O7    Zn3   S    
C63   H19   S    
C28   C30   A    
C25   H7    S    
C42   O34   S    
C37   C39   A    
C100  H61   S    
C50   C52   A    
O31   C95   S    
C8    C11   S    
C27   C40   S    
C29   C31   A    
C98   H56   S    
C56   H16   S    
C7    C9    S    
C99   H59   S    
C31   C33   A    
C77   C79   A    
C16   C18   S    
C88   H2    S    
O22   Zn8   S    
C75   C77   A    
C41   C53   A    
C45   C78   S    
C22   C26   A    
C10   C12   S    
C1    C38   S    
C26   H8    S    
C75   H23   S    
O6    Zn8   S    
C8    C10   S    
C95   H43   S    
C88   C90   S    
C50   H12   S    
C84   O26   A    
C55   C57   A    
O10   Zn6   S    
C93   H37   S    
C12   H28   S    
C3    C85   S    
C84   C89   S    
C36   C38   A    
C11   H27   S    
O20   Zn4   S    
C78   C80   A    
C92   H36   S    
O32   C96   S    
C48   C59   S    
C83   O21   A    
C102  H68   S    
C85   O35   S    
C81   O19   A    
C83   C90   S    
C32   O30   S    
C52   H14   S    
C17   C68   S    
C24   O14   A    
C61   C73   A    
C3    C88   S    
C22   H6    S    
C36   C39   A    
O17   Zn5   S    
C41   C43   A    
C34   H4    S    
O3    Zn1   S    
C1    O11   A    
C86   C89   S    
C33   H3    S    
C46   C77   S    
O16   Zn4   S    
C85   C90   S    
C9    C24   S    
C5    C11   S    
C91   H33   S    
C10   C23   S    
C25   C27   A    
O14   Zn2   S    
C8    H26   S    
C26   C28   A    
C56   C59   A    
C2    O8    A    
C3    C89   S    
O18   Zn6   S    
O34   C98   S    
O5    Zn7   S    
C13   C15   S    
C62   C64   A    
C19   H77   S    
C35   O31   S    
C5    C10   S    
O24   Zn6   S    
C101  H64   S    
O15   Zn3   S    
C43   H9    S    
C30   C32   A    
C44   H10   S    
C2    C37   S    
O21   Zn7   S    
C66   C70   A    
C76   H24   S    
C38   C40   A    
C101  H65   S    
C65   C69   A    
C9    C11   S    
C48   C50   A    
C17   C19   S    
C15   H29   S    
C84   O22   A    
C35   C40   A    
C14   C16   S    
O35   C99   S    
C67   O17   A    
O28   C92   S    
C57   C59   A    
C1    O7    A    
C46   O16   A    
C62   H18   S    
C24   O10   A    
O33   C97   S    
C4    C86   S    
O38   C102  S    
C93   H39   S    
C3    H71   S    
C98   H54   S    
C54   H50   S    
C71   C73   A    
O27   C91   S    
C87   C89   S    
C57   C82   S    
C62   C74   A    
C99   H58   S    
C6    H74   S    
C15   C17   S    
C51   H13   S    
C42   C54   A    
C44   C48   A    
C49   H11   S    
C32   C34   A    
C95   H44   S    
C61   C63   A    
O2    Zn6   S    
