data_mof_unit_pretest_1337.cif
_audit_creation_date              2012-12-10T16:53:59-0500
_audit_creation_method            fapswitch 2.2
_symmetry_space_group_name_H-M    P1
_symmetry_Int_Tables_number       1
_space_group_crystal_system       triclinic
_cell_length_a                    7.767317
_cell_length_b                    8.550243
_cell_length_c                    10.640965
_cell_angle_alpha                 91.534557
_cell_angle_beta                  84.736816
_cell_angle_gamma                 93.772206
_cell_volume                      702.035359036

loop_
_atom_site_label
_atom_site_type_symbol
_atom_type_description
_atom_site_fract_x
_atom_site_fract_y
_atom_site_fract_z
_atom_type_partial_charge
C1    C     C_R   0.545911 0.794898 0.505315 0.846800
C2    C     C_3   0.426577 0.653643 0.937254 0.407034
C3    C     C_3   0.422506 0.650391 0.081432 -0.503063
C4    C     C_3   0.392639 0.349644 0.933648 0.430949
C5    C     C_3   0.690419 0.495622 0.914769 0.309849
C6    C     C_3   0.500074 0.499547 0.879002 -0.380957
C7    C     C_2   0.729971 0.012448 0.594541 0.574661
C8    C     C_2   0.206845 0.334422 0.898945 0.599297
C9    C     C_3   0.502524 0.500068 0.121431 -0.279132
C10   C     C_3   0.392820 0.353940 0.078763 -0.545545
C11   C     C_3   0.692096 0.494555 0.057897 1.081922
C12   C     C_2   0.568424 0.956529 0.536319 -0.233667
C13   C     C_2   0.432436 0.042367 0.521571 -0.272678
C14   C     C_R   0.500498 0.500397 0.742323 0.981023
C15   C     C_R   0.454830 0.206056 0.512467 0.974766
C16   C     C_R   0.500355 0.500710 0.257807 0.963903
F1    F     F_    0.262048 0.675603 0.902940 -0.600702
F2    F     F_    0.765405 0.359110 0.090659 -0.644743
F3    F     F_    0.473646 0.217074 0.886952 -0.597445
F4    F     F_    0.030836 0.357067 0.386551 -0.516505
F5    F     F_    0.792085 0.623868 0.866212 -0.612518
F6    F     F_    0.794041 0.622799 0.097814 -0.587591
H1    H     H_    0.446427 0.245539 0.110568 0.262363
H2    H     H_    0.114317 0.416882 0.937146 0.132558
H3    H     H_    0.308664 0.991392 0.494769 0.170445
H4    H     H_    0.985811 0.618719 0.595233 0.178312
H5    H     H_    0.511404 0.756359 0.902390 0.200259
H6    H     H_    0.495623 0.756687 0.116413 0.208655
H7    H     H_    0.286270 0.654042 0.123828 0.275347
H8    H     H_    0.258752 0.355707 0.126048 0.224734
H9    H     H_    0.749518 0.388434 0.873391 0.206895
H10   H     H_    0.849641 0.955826 0.568967 0.066556
N1    N     N_2   0.950330 0.457950 0.465890 0.216738
N2    N     N_2   0.049670 0.542050 0.534110 -0.075644
O1    O     O_R   0.389250 0.738570 0.508370 -0.615779
O2    O     O_2   0.158114 0.227876 0.829341 -0.478240
O3    O     O_R   0.678390 0.711620 0.486510 -0.659835
O4    O     O_R   0.355430 0.513500 0.696140 -0.589038
O5    O     O_R   0.644580 0.486550 0.674270 -0.603155
O6    O     O_R   0.321610 0.288380 0.513490 -0.566575
O7    O     O_R   0.610750 0.261430 0.491630 -0.591259
O8    O     O_R   0.355420 0.513450 0.325730 -0.586736
O9    O     O_R   0.644570 0.486500 0.303860 -0.531150
O10   O     O_2   0.728299 0.115023 0.676691 -0.473269
Zn1   Zn    Zn3+2 0.306940 0.517990 0.514600 1.104173
Zn2   Zn    Zn3+2 0.693060 0.482010 0.485400 1.127985

loop_
_geom_bond_atom_site_label_1
_geom_bond_atom_site_label_2
_ccdc_geom_bond_type
O7    Zn2   S    
C11   F2    S    
C2    H5    S    
C3    C9    S    
C10   H1    S    
C14   O4    A    
C9    C10   S    
C10   H8    S    
C11   F6    S    
C1    O3    A    
C4    C8    S    
C2    C3    S    
O3    Zn2   S    
N2    Zn1   S    
C7    O10   D    
C2    F1    S    
N1    Zn2   S    
C9    C11   S    
C16   O9    A    
C13   H3    S    
C2    C6    S    
C1    C12   S    
O5    Zn2   S    
C5    C6    S    
F4    N1    S    
C3    H6    S    
C8    H2    S    
C9    C16   S    
N1    N2    D    
C5    C11   S    
C13   C15   S    
O6    Zn1   S    
O9    Zn2   S    
C15   O6    A    
C6    C14   S    
C4    C10   S    
O1    Zn1   S    
C16   O8    A    
C5    F5    S    
C12   C13   D    
C15   O7    A    
C4    C6    S    
C8    O2    D    
C3    H7    S    
C1    O1    A    
O4    Zn1   S    
C7    C12   S    
C7    H10   S    
C14   O5    A    
C4    F3    S    
H4    N2    S    
C5    H9    S    
O8    Zn1   S    
