data_mof_unit_pretest_1276.cif
_audit_creation_date              2012-10-26T20:08:09-0400
_audit_creation_method            fapswitch 2.2
_symmetry_space_group_name_H-M    P1
_symmetry_Int_Tables_number       1
_space_group_crystal_system       triclinic
_cell_length_a                    10.774258
_cell_length_b                    10.792243
_cell_length_c                    9.517819
_cell_angle_alpha                 89.838921
_cell_angle_beta                  90.014018
_cell_angle_gamma                 90.24713
_cell_volume                      1106.70216644

loop_
_atom_site_label
_atom_site_type_symbol
_atom_type_description
_atom_site_fract_x
_atom_site_fract_y
_atom_site_fract_z
_atom_type_partial_charge
C1    C     C_R   0.500577 0.262123 0.500129 0.577624
C2    C     C_R   0.467522 0.063624 0.622360 -0.135392
C3    C     C_R   0.498715 0.871685 0.499545 0.020813
C4    C     C_R   0.501292 0.128315 0.500456 0.020822
C5    C     C_R   0.579515 0.425913 0.074666 0.016089
C6    C     C_R   0.420485 0.574088 0.925334 0.016107
C7    C     C_R   0.579600 0.426000 0.925834 0.005413
C8    C     C_R   0.420400 0.574000 0.074165 0.005417
C9    C     C_R   0.262507 0.499195 0.499893 0.598730
C10   C     C_R   0.737493 0.500807 0.500107 0.598740
C11   C     C_R   0.226197 0.208477 0.159541 -0.097960
C12   C     C_R   0.499425 0.737877 0.499871 0.577627
C13   C     C_R   0.773782 0.791271 0.840641 -0.097957
C14   C     C_R   0.166964 0.307397 0.225658 -0.070608
C15   C     C_R   0.833052 0.692428 0.774441 -0.070624
C16   C     C_R   0.129734 0.297353 0.366649 0.079710
C17   C     C_R   0.870265 0.702582 0.633462 0.079737
C18   C     C_R   0.151995 0.186347 0.440835 0.288691
C19   C     C_R   0.847961 0.813626 0.559373 0.288710
C20   C     C_R   0.209771 0.087110 0.373069 -0.037999
C21   C     C_R   0.790148 0.912788 0.627223 -0.038040
C22   C     C_R   0.247014 0.098269 0.232952 -0.127295
C23   C     C_R   0.871326 0.500683 0.500478 -0.009643
C24   C     C_R   0.752914 0.901517 0.767324 -0.127321
C25   C     C_R   0.933952 0.403015 0.434284 0.223373
C26   C     C_R   0.066049 0.596990 0.565716 0.223380
C27   C     C_R   0.128675 0.499322 0.499522 -0.009629
C28   C     C_R   0.936525 0.597836 0.566637 -0.018839
C29   C     C_R   0.063476 0.402158 0.433380 -0.018854
C30   C     C_R   0.534117 0.064458 0.378220 -0.120442
C31   C     C_R   0.465892 0.935542 0.621781 -0.120541
C32   C     C_R   0.532487 0.936376 0.377641 -0.135317
Cl1   Cl    Cl    0.107993 0.168837 0.617875 -0.563797
Cl2   Cl    Cl    0.891935 0.831270 0.382352 -0.563768
Cl3   Cl    Cl    0.850316 0.278438 0.357282 -0.581070
Cl4   Cl    Cl    0.149683 0.721561 0.642725 -0.581159
Cu1   Cu    Cu3+1 0.500000 0.500020 0.640660 0.989050
Cu2   Cu    Cu3+1 0.500000 0.499980 0.359340 0.989022
H1    H     H_    0.292425 0.021524 0.181427 0.127525
H2    H     H_    0.773315 0.998526 0.571154 0.186070
H3    H     H_    0.561068 0.113336 0.283366 0.156877
H4    H     H_    0.438942 0.886664 0.716636 0.156880
H5    H     H_    0.558930 0.888190 0.282621 0.151938
H6    H     H_    0.441078 0.111810 0.717380 0.151951
H7    H     H_    0.643062 0.366399 0.130943 0.160092
H8    H     H_    0.356939 0.633602 0.869057 0.160092
H9    H     H_    0.707468 0.978199 0.818913 0.127507
H10   H     H_    0.643276 0.366623 0.869943 0.128021
H11   H     H_    0.356724 0.633377 0.130057 0.128009
H12   H     H_    0.255339 0.217033 0.051094 0.143341
H13   H     H_    0.744647 0.782625 0.949077 0.143330
H14   H     H_    0.150081 0.391930 0.167185 0.133039
H15   H     H_    0.849967 0.607863 0.832840 0.133023
H16   H     H_    0.226564 0.001399 0.429212 0.186131
N1    N     N_R   0.500030 0.500030 0.852070 -0.236202
N2    N     N_R   0.499970 0.499970 0.147930 -0.236208
O1    O     O_R   0.499990 0.319660 0.618740 -0.507089
O2    O     O_R   0.500010 0.680340 0.381260 -0.507103
O3    O     O_R   0.499990 0.319630 0.381170 -0.502865
O4    O     O_R   0.500010 0.680370 0.618830 -0.502862
O5    O     O_R   0.319650 0.500020 0.618780 -0.457059
O6    O     O_R   0.680350 0.499980 0.381220 -0.457078
O7    O     O_R   0.319640 0.500000 0.381210 -0.520084
O8    O     O_R   0.680360 0.500000 0.618790 -0.520077

loop_
_geom_bond_atom_site_label_1
_geom_bond_atom_site_label_2
_ccdc_geom_bond_type
C19   C21   A    
Cu1   O5    S    
C30   H3    S    
Cu1   O1    S    
Cu1   Cu2   S    
C31   H4    S    
C1    O1    A    
C10   C23   S    
C27   C29   A    
C5    C7    A    
C11   C22   A    
C2    C4    A    
C7    N1    A    
C6    N1    A    
C1    C4    S    
C12   O2    A    
C7    H10   S    
C8    N2    A    
C1    O3    A    
C16   C29   S    
C4    C30   A    
C11   H12   S    
C13   H13   S    
C23   C28   A    
C3    C31   A    
C24   H9    S    
C6    H8    S    
C26   C27   A    
C10   O6    A    
C21   H2    S    
C5    H7    S    
C25   Cl3   S    
C9    O5    A    
C22   H1    S    
C15   H15   S    
C12   O4    A    
C26   Cl4   S    
C11   C14   A    
C32   H5    S    
C20   C22   A    
Cu2   O7    S    
C18   C20   A    
C13   C15   A    
C25   C29   A    
C3    C32   A    
C18   Cl1   S    
C14   H14   S    
Cu1   O4    S    
Cu2   O2    S    
Cu2   O3    S    
C30   C32   A    
Cu1   O8    S    
Cu2   N2    S    
C9    C27   S    
C20   H16   S    
C23   C25   A    
C21   C24   A    
C15   C17   A    
C6    C8    A    
C3    C12   S    
C5    N2    A    
C17   C19   A    
C14   C16   A    
C9    O7    A    
C17   C28   S    
C26   C28   A    
C8    H11   S    
C16   C18   A    
C10   O8    A    
C13   C24   A    
C2    H6    S    
C2    C31   A    
Cu2   O6    S    
C19   Cl2   S    
Cu1   N1    S    
