data_mof_unit_pretest_119.cif
_audit_creation_date              2012-12-10T18:11:42-0500
_audit_creation_method            fapswitch 2.2
_symmetry_space_group_name_H-M    P1
_symmetry_Int_Tables_number       1
_space_group_crystal_system       triclinic
_cell_length_a                    10.491028
_cell_length_b                    12.63182
_cell_length_c                    13.164485
_cell_angle_alpha                 83.061025
_cell_angle_beta                  89.309175
_cell_angle_gamma                 102.479255
_cell_volume                      1689.56354696

loop_
_atom_site_label
_atom_site_type_symbol
_atom_type_description
_atom_site_fract_x
_atom_site_fract_y
_atom_site_fract_z
_atom_type_partial_charge
C1    C     C_R   0.492889 0.439480 0.690769 0.830472
C2    C     C_3   0.065818 0.595019 0.529367 -0.142102
C3    C     C_3   0.953270 0.515096 0.593669 -0.211533
C4    C     C_3   0.877457 0.503396 0.496332 0.026036
C5    C     C_R   0.687747 0.706206 0.066457 -0.206659
C6    C     C_R   0.542202 0.597382 0.201240 -0.058846
C7    C     C_R   0.413817 0.298653 0.836551 -0.206576
C8    C     C_R   0.378533 0.272971 0.939788 -0.177357
C9    C     C_R   0.418988 0.349363 0.006842 -0.197570
C10   C     C_R   0.502788 0.451677 0.971953 0.090321
C11   C     C_R   0.549218 0.472230 0.868970 0.101457
C12   C     C_R   0.742315 0.502014 0.496335 0.850448
C13   C     C_R   0.543251 0.533820 0.035935 0.074336
C14   C     C_R   0.643002 0.627067 0.001361 0.184914
C15   C     C_R   0.699386 0.638436 0.903526 -0.258019
C16   C     C_R   0.652813 0.562518 0.837586 -0.206180
C17   C     C_R   0.488106 0.525345 0.133988 -0.258368
C18   C     C_R   0.638991 0.690356 0.167185 -0.206504
C19   C     C_R   0.490874 0.401272 0.799853 -0.107387
C20   C     C_R   0.322194 0.085331 0.346713 0.265522
C21   C     C_R   0.680625 0.808100 0.601888 -0.040732
C22   C     C_R   0.735911 0.919043 0.605762 -0.031860
C23   C     C_R   0.515349 0.560793 0.309173 0.863898
C24   C     C_R   0.661481 0.995953 0.573566 -0.266363
C25   C     C_R   0.543342 0.964457 0.524013 0.052391
C26   C     C_R   0.503192 0.852914 0.508918 0.229092
C27   C     C_R   0.473750 0.041483 0.477073 -0.055342
C28   C     C_R   0.378009 0.007986 0.405590 0.008479
C29   C     C_R   0.343399 0.898475 0.389896 -0.241538
C30   C     C_R   0.406400 0.823233 0.439335 -0.223630
C31   C     C_R   0.497290 0.151245 0.496096 -0.201394
C32   C     C_R   0.345497 0.192577 0.371924 0.500131
C33   C     C_R   0.257234 0.497664 0.505103 0.845179
C34   C     C_3   0.931899 0.405546 0.474144 -0.201912
C35   C     C_3   0.009601 0.416868 0.571997 0.037461
C36   C     C_3   0.121090 0.496275 0.508053 -0.018662
C37   C     C_3   0.044105 0.486138 0.410053 -0.204848
C38   C     C_3   0.986394 0.584011 0.431803 -0.155817
H1    H     H_    0.406466 0.460238 0.162264 0.169151
H2    H     H_    0.375851 0.240446 0.784491 0.149496
H3    H     H_    0.386545 0.324472 0.085727 0.147461
H4    H     H_    0.314348 0.195604 0.967160 0.144336
H5    H     H_    0.700949 0.573580 0.762692 0.152582
H6    H     H_    0.269682 0.870503 0.336403 0.187584
H7    H     H_    0.563967 0.181589 0.553010 0.161830
H8    H     H_    0.735331 0.746845 0.626174 0.140293
H9    H     H_    0.874701 0.328068 0.450984 0.141202
H10   H     H_    0.703264 0.080890 0.578901 0.142063
H11   H     H_    0.384602 0.744616 0.414298 0.216701
H12   H     H_    0.084425 0.475980 0.334401 0.142800
H13   H     H_    0.971874 0.651999 0.374508 0.134459
H14   H     H_    0.122799 0.672486 0.552702 0.160038
H15   H     H_    0.912212 0.528009 0.668227 0.128997
H16   H     H_    0.681761 0.746895 0.219497 0.158456
H17   H     H_    0.779484 0.706274 0.878395 0.135062
H18   H     H_    0.764462 0.777280 0.040955 0.133782
N1    N     N_R   0.432930 0.222190 0.444670 -0.152149
N2    N     N_R   0.566370 0.776980 0.554790 -0.135246
O1    O     O_R   0.467970 0.366730 0.627150 -0.628614
O2    O     O_R   0.510820 0.544830 0.662520 -0.604373
O3    O     O_R   0.664630 0.410960 0.482340 -0.627210
O4    O     O_R   0.707470 0.589060 0.517710 -0.635373
O5    O     O_R   0.489180 0.455170 0.337480 -0.555888
O6    O     O_R   0.532030 0.633270 0.372850 -0.641805
O7    O     O_R   0.292530 0.410940 0.482290 -0.606003
O8    O     O_R   0.335370 0.589040 0.517660 -0.639030
Zn1   Zn    Zn3+2 0.471390 0.381080 0.476380 0.954600
Zn2   Zn    Zn3+2 0.528610 0.618920 0.523620 0.923664
C39   C     C_R   0.994060 0.321827 0.655403 0.102133
C40   C     C_R   0.866696 0.263782 0.686930 -0.178175
C41   C     C_R   0.846412 0.177761 0.766668 -0.132780
C42   C     C_R   0.952886 0.149189 0.816376 -0.079554
C43   C     C_R   0.079436 0.206753 0.786350 -0.111682
C44   C     C_R   0.100744 0.293166 0.706070 -0.150565
H19   H     H_    0.782623 0.285485 0.649910 0.131334
H20   H     H_    0.748161 0.133272 0.789782 0.131976
H21   H     H_    0.937520 0.082115 0.877889 0.118017
H22   H     H_    0.160196 0.182479 0.825142 0.122695
H23   H     H_    0.199276 0.337376 0.684215 0.133335
O9    O     O_3   0.293315 0.272202 0.316246 -0.625584
C45   C     C_3   0.154799 0.246149 0.323265 0.105376
H24   H     H_    0.121818 0.295415 0.378100 0.154163
H25   H     H_    0.109681 0.159342 0.352009 0.150266
C46   C     C_3   0.103062 0.274994 0.217782 -0.328433
H26   H     H_    0.141926 0.363129 0.190930 0.209733
H27   H     H_    0.137619 0.226548 0.162365 0.239067
C47   C     C_3   0.954051 0.251172 0.220287 -0.968722
H28   H     H_    0.913018 0.163432 0.247119 0.268896
H29   H     H_    0.920161 0.270718 0.142086 0.270841
H30   H     H_    0.917268 0.302106 0.271892 0.262134
O10   O     O_3   0.241680 0.056117 0.267305 -0.654503
C48   C     C_3   0.318859 0.049045 0.180534 0.079705
H31   H     H_    0.397981 0.004629 0.200326 0.149003
H32   H     H_    0.365129 0.132462 0.143592 0.143469
C49   C     C_3   0.230858 0.987981 0.104795 -0.340028
H33   H     H_    0.168525 0.912173 0.146184 0.231589
H34   H     H_    0.165646 0.040123 0.070570 0.207215
C50   C     C_3   0.310301 0.956260 0.019882 -0.985585
H35   H     H_    0.380181 0.028785 0.980557 0.264277
H36   H     H_    0.243393 0.919339 0.962684 0.262120
H37   H     H_    0.365771 0.895337 0.052412 0.273693
C51   C     C_R   0.876727 0.954807 0.628122 0.140329
C52   C     C_R   0.935686 0.892771 0.701842 -0.175339
C53   C     C_R   0.069900 0.921657 0.716729 -0.144082
C54   C     C_R   0.147406 0.012432 0.657643 -0.101788
C55   C     C_R   0.090546 0.074973 0.584254 -0.116081
C56   C     C_R   0.956289 0.046655 0.569307 -0.125545
H38   H     H_    0.878245 0.821549 0.747325 0.105987
H39   H     H_    0.113908 0.873198 0.773791 0.128405
H40   H     H_    0.251312 0.034760 0.669110 0.126555
H41   H     H_    0.150551 0.146027 0.539496 0.114892
H42   H     H_    0.915648 0.095282 0.510100 0.111437

loop_
_geom_bond_atom_site_label_1
_geom_bond_atom_site_label_2
_ccdc_geom_bond_type
O8    Zn2   S    
C47   H28   S    
C12   O3    A    
C34   C37   S    
C56   H42   S    
C5    H18   S    
C35   C36   S    
C46   C47   S    
C54   H40   S    
C45   H24   S    
C49   C50   S    
C33   O7    A    
C7    C8    A    
C11   C19   A    
C37   C38   S    
O6    Zn2   S    
C28   C29   A    
C46   H27   S    
C1    O1    A    
C17   H1    S    
C53   H39   S    
C55   C56   A    
C15   C16   A    
C33   C36   S    
C34   C35   S    
C43   C44   A    
C2    C38   S    
C42   H21   S    
O1    Zn1   S    
C49   H33   S    
C8    C9    A    
O7    Zn1   S    
C7    H2    S    
C40   C41   A    
C4    C12   S    
C9    C10   A    
C23   O5    A    
C21   C22   A    
C51   C52   A    
C32   N1    A    
N1    Zn1   S    
C53   C54   A    
C45   H25   S    
C33   O8    A    
O5    Zn1   S    
C55   H41   S    
C6    C18   A    
C20   O10   S    
C4    C34   S    
C1    C19   S    
C27   C31   A    
C24   H10   S    
C39   C44   A    
C24   C25   A    
C1    O2    A    
O10   C48   S    
C42   C43   A    
C5    C18   A    
C20   C28   A    
C25   C26   A    
C48   C49   S    
C15   H17   S    
C29   C30   A    
C32   O9    S    
C12   O4    A    
C11   C16   A    
O3    Zn1   S    
C3    C35   S    
C43   H22   S    
C48   H32   S    
C51   C56   A    
C46   H26   S    
C26   N2    A    
C16   H5    S    
C35   C39   S    
C5    C14   A    
C52   H38   S    
C2    H14   S    
N2    Zn2   S    
C23   O6    A    
C30   H11   S    
C4    C38   S    
C26   C30   A    
C7    C19   A    
C44   H23   S    
C47   H29   S    
C29   H6    S    
C22   C24   A    
C3    C4    S    
C40   H19   S    
C45   C46   S    
C21   H8    S    
C20   C32   A    
C2    C36   S    
C6    C17   A    
C36   C37   S    
C8    H4    S    
O9    C45   S    
C10   C13   A    
C49   H34   S    
C38   H13   S    
O4    Zn2   S    
C25   C27   A    
C50   H37   S    
C54   C55   A    
C9    H3    S    
C22   C51   S    
C13   C17   A    
C31   N1    A    
C2    C3    S    
C21   N2    A    
C37   H12   S    
C3    H15   S    
C41   H20   S    
C6    C23   S    
C48   H31   S    
C39   C40   A    
C50   H36   S    
C10   C11   A    
C18   H16   S    
C41   C42   A    
O2    Zn2   S    
C50   H35   S    
C31   H7    S    
C47   H30   S    
C52   C53   A    
C14   C15   A    
C34   H9    S    
C13   C14   A    
C27   C28   A    
