data_mof_unit_pretest_869.cif
_audit_creation_date              2012-12-10T17:52:40-0500
_audit_creation_method            fapswitch 2.2
_symmetry_space_group_name_H-M    P1
_symmetry_Int_Tables_number       1
_space_group_crystal_system       triclinic
_cell_length_a                    14.679554
_cell_length_b                    14.625852
_cell_length_c                    23.565063
_cell_angle_alpha                 75.939873
_cell_angle_beta                  102.694085
_cell_angle_gamma                 115.00476
_cell_volume                      4408.26154405

loop_
_atom_site_label
_atom_site_type_symbol
_atom_type_description
_atom_site_fract_x
_atom_site_fract_y
_atom_site_fract_z
_atom_type_partial_charge
C1    C     C_R   0.880332 0.311745 0.510310 0.920326
C2    C     C_R   0.119784 0.688486 0.487386 0.880038
C3    C     C_R   0.077969 0.491111 0.773899 -0.273292
C4    C     C_R   0.925671 0.518044 0.225312 -0.269902
C5    C     C_R   0.079543 0.491585 0.714934 0.570573
C6    C     C_R   0.925361 0.518971 0.284231 0.570928
C7    C     C_R   0.998981 0.500702 0.671631 -0.389281
C8    C     C_R   0.999877 0.498132 0.328274 -0.391988
C9    C     C_R   0.917572 0.510078 0.689060 0.445954
C10   C     C_R   0.073929 0.475770 0.311496 0.465825
C11   C     C_R   0.916961 0.509795 0.748203 0.602042
C12   C     C_R   0.073593 0.475227 0.252316 0.601372
C13   C     C_R   0.996923 0.500003 0.790665 0.037227
C14   C     C_R   0.999607 0.496522 0.209107 0.032242
C15   C     C_R   0.812593 0.203300 0.521710 -0.342103
C16   C     C_R   0.186612 0.798046 0.475630 -0.382493
C17   C     C_R   0.770682 0.033346 0.579674 0.396015
C18   C     C_R   0.211924 0.976437 0.439464 0.374888
C19   C     C_R   0.840274 0.134159 0.566480 0.439414
C20   C     C_R   0.146885 0.873726 0.452864 0.460699
C21   C     C_R   0.715649 0.171262 0.490199 0.594858
C22   C     C_R   0.291979 0.827678 0.485702 0.609603
C23   C     C_R   0.999743 0.500225 0.609055 0.900536
C24   C     C_R   0.000053 0.499526 0.390914 0.907315
C25   C     C_R   0.637020 0.080969 0.512015 -0.128893
C26   C     C_R   0.356854 0.931296 0.484694 -0.140080
C27   C     C_R   0.666701 0.007916 0.555902 -0.296323
C28   C     C_R   0.317910 0.006640 0.457520 -0.280991
C29   C     C_R   0.531243 0.060435 0.491780 -0.069114
C30   C     C_R   0.459723 0.960547 0.510156 -0.119831
C31   C     C_R   0.490024 0.894434 0.557762 0.397110
C32   C     C_R   0.491792 0.136199 0.459222 0.383220
C33   C     C_R   0.592204 0.912837 0.576269 0.393508
C34   C     C_R   0.385523 0.109813 0.449381 0.342442
C35   C     C_R   0.725413 0.682530 0.408697 0.491780
C36   C     C_R   0.292494 0.346940 0.609059 0.480186
C37   C     C_R   0.800140 0.643549 0.419211 0.667395
C38   C     C_R   0.206647 0.368861 0.587776 0.657913
C39   C     C_R   0.716085 0.511259 0.493660 0.696771
C40   C     C_R   0.286640 0.491498 0.508718 0.720570
C41   C     C_R   0.637845 0.548572 0.486259 -0.247103
C42   C     C_R   0.379351 0.476807 0.529961 -0.263949
C43   C     C_R   0.644155 0.636450 0.442464 -0.285488
C44   C     C_R   0.379471 0.399591 0.580107 -0.278075
C45   C     C_R   0.024153 0.587631 0.109819 0.661108
C46   C     C_R   0.971712 0.408522 0.889697 0.670274
C47   C     C_R   0.553359 0.501581 0.519534 0.074596
C48   C     C_R   0.470145 0.533216 0.502566 0.064268
C49   C     C_R   0.483760 0.624830 0.462164 -0.215255
C50   C     C_R   0.551391 0.428126 0.570971 -0.227085
C51   C     C_R   0.570289 0.677796 0.434025 0.515750
C52   C     C_R   0.466024 0.376106 0.600209 0.489077
C53   C     C_R   0.973619 0.406143 0.129869 0.682722
C54   C     C_R   0.020504 0.589760 0.869529 0.673558
C55   C     C_R   0.973777 0.404263 0.070335 -0.179168
C56   C     C_R   0.019900 0.591507 0.929000 -0.176886
C57   C     C_R   0.997623 0.497515 0.029847 -0.144089
C58   C     C_R   0.996613 0.498332 0.969537 -0.144095
C59   C     C_R   0.022754 0.590075 0.049630 -0.183728
C60   C     C_R   0.971763 0.405837 0.949754 -0.185112
C61   C     C_R   0.950849 0.312353 0.050169 0.351871
C62   C     C_R   0.041483 0.683171 0.948993 0.354159
C63   C     C_R   0.947694 0.313409 0.990252 0.566766
C64   C     C_R   0.045421 0.682332 0.008949 0.567657
Cu1   Cu    Cu3+1 0.081740 0.475680 0.515360 1.140689
Cu2   Cu    Cu3+1 0.918260 0.524320 0.484640 1.121074
H1    H     H_    0.431639 0.662022 0.454328 0.253463
H2    H     H_    0.617347 0.412952 0.592404 0.259887
H3    H     H_    0.140103 0.484116 0.806793 0.213337
H4    H     H_    0.868138 0.534118 0.191947 0.215042
N1    N     N_R   0.999499 0.496788 0.148169 -0.432539
N2    N     N_R   0.996174 0.499370 0.851439 -0.432559
N3    N     N_R   0.795430 0.560810 0.461550 -0.342751
N4    N     N_R   0.204570 0.439190 0.538450 -0.337682
O1    O     O_R   0.977900 0.338110 0.520250 -0.530140
O2    O     O_R   0.022100 0.661890 0.479750 -0.517411
O3    O     O_R   0.839850 0.379180 0.494310 -0.513513
O4    O     O_R   0.160150 0.620820 0.505690 -0.506416
O5    O     O_R   0.069020 0.479430 0.595090 -0.496832
O6    O     O_R   0.930980 0.520570 0.404910 -0.510573
O7    O     O_R   0.930970 0.520500 0.569150 -0.523306
O8    O     O_R   0.069030 0.479500 0.430850 -0.502120
O9    O     O_2   0.050072 0.675141 0.130218 -0.428861
O10   O     O_2   0.947591 0.321366 0.869356 -0.421743
O11   O     O_2   0.946900 0.318410 0.169326 -0.476518
O12   O     O_2   0.046087 0.677343 0.829904 -0.490065
O13   O     O_3   0.925312 0.219367 0.088048 -0.499661
C65   C     C_3   0.012298 0.195704 0.106480 0.124661
H5    H     H_    0.074562 0.255999 0.129586 0.151101
H6    H     H_    0.039751 0.187366 0.068311 0.175489
C66   C     C_3   0.985533 0.094692 0.149251 -0.639831
H7    H     H_    0.924841 0.032542 0.127124 0.271784
H8    H     H_    0.053448 0.075411 0.164359 0.187878
H9    H     H_    0.958587 0.100659 0.188186 0.261951
O14   O     O_3   0.063616 0.775604 0.910668 -0.502409
C67   C     C_3   0.974058 0.794766 0.892262 0.114844
H10   H     H_    0.949689 0.808422 0.929883 0.178903
H11   H     H_    0.911192 0.729704 0.873111 0.149066
C68   C     C_3   0.994291 0.889923 0.844878 -0.606091
H12   H     H_    0.017382 0.877994 0.806311 0.258012
H13   H     H_    0.924457 0.905940 0.830189 0.206569
H14   H     H_    0.055674 0.956821 0.862676 0.265679
O15   O     O_3   0.802294 0.964003 0.621280 -0.489524
C69   C     C_3   0.863673 0.935697 0.596156 0.109615
H15   H     H_    0.935003 0.001981 0.585621 0.198663
H16   H     H_    0.822440 0.904030 0.555064 0.095367
C70   C     C_3   0.892855 0.854124 0.640065 -0.664575
H17   H     H_    0.824065 0.784804 0.650339 0.252945
H18   H     H_    0.942421 0.832757 0.620987 0.201956
H19   H     H_    0.934440 0.883766 0.681497 0.258253
O16   O     O_3   0.170241 0.046822 0.410284 -0.521106
C71   C     C_3   0.160562 0.049921 0.348922 0.131264
H20   H     H_    0.102101 0.976672 0.336171 0.192109
H21   H     H_    0.234077 0.064419 0.335025 0.131902
C72   C     C_3   0.127705 0.136423 0.315736 -0.671825
H22   H     H_    0.186530 0.211089 0.325778 0.272015
H23   H     H_    0.117613 0.137769 0.267518 0.193936
H24   H     H_    0.054830 0.125179 0.328628 0.260601
O17   O     O_3   0.419643 0.811817 0.589177 -0.522972
C73   C     C_3   0.391848 0.846751 0.630920 0.049602
H25   H     H_    0.361999 0.907200 0.609460 0.116996
H26   H     H_    0.457986 0.877412 0.664624 0.169718
C74   C     C_3   0.308560 0.757333 0.661887 -0.666084
H27   H     H_    0.285916 0.783428 0.695045 0.198483
H28   H     H_    0.241268 0.725872 0.629183 0.234385
H29   H     H_    0.336179 0.696025 0.684611 0.278075
O18   O     O_3   0.554282 0.239134 0.446825 -0.517680
C75   C     C_3   0.545641 0.273962 0.384717 0.163964
H30   H     H_    0.469051 0.271855 0.365322 0.163109
H31   H     H_    0.563286 0.226868 0.361400 0.170905
C76   C     C_3   0.618951 0.384973 0.371308 -0.600592
H32   H     H_    0.697572 0.393921 0.390961 0.299260
H33   H     H_    0.617024 0.410284 0.322811 0.212779
H34   H     H_    0.596176 0.434392 0.389343 0.202927
O19   O     O_3   0.579574 0.768743 0.395934 -0.489466
C77   C     C_3   0.616390 0.848144 0.429582 0.067678
H35   H     H_    0.689577 0.852478 0.457545 0.128099
H36   H     H_    0.560162 0.836874 0.458235 0.121368
C78   C     C_3   0.634815 0.949852 0.388097 -0.625048
H37   H     H_    0.562380 0.949738 0.361265 0.246083
H38   H     H_    0.666389 0.013083 0.414009 0.194174
H39   H     H_    0.689743 0.962993 0.358262 0.279907
O20   O     O_3   0.470396 0.305481 0.650809 -0.491011
C79   C     C_3   0.455869 0.213084 0.634302 0.087985
H40   H     H_    0.514238 0.224755 0.607001 0.135194
H41   H     H_    0.378975 0.179983 0.609340 0.134089
C80   C     C_3   0.464201 0.136039 0.689500 -0.634862
H42   H     H_    0.405699 0.120959 0.717336 0.278959
H43   H     H_    0.452477 0.063045 0.676907 0.157740
H44   H     H_    0.540583 0.166256 0.715270 0.261547
F1    F     F_    0.273915 0.551633 0.456605 -0.579028
F2    F     F_    0.712749 0.423525 0.530435 -0.618468
F3    F     F_    0.124585 0.319328 0.616972 -0.510138
F4    F     F_    0.879130 0.690050 0.387421 -0.525431
F5    F     F_    0.733733 0.765479 0.365726 -0.556953
F6    F     F_    0.289609 0.274737 0.658118 -0.562498
F7    F     F_    0.920616 0.222751 0.972345 -0.585526
F8    F     F_    0.071064 0.772877 0.026623 -0.586191
F9    F     F_    0.160394 0.483826 0.700641 -0.596608
F10   F     F_    0.851848 0.540256 0.297642 -0.597647
F11   F     F_    0.837915 0.518549 0.649327 -0.599218
F12   F     F_    0.146911 0.454456 0.351967 -0.573470
F13   F     F_    0.838077 0.518280 0.764450 -0.603678
F14   F     F_    0.145897 0.454749 0.236802 -0.601887
O21   O     O_3   0.617348 0.842026 0.620419 -0.508370
C81   C     C_3   0.598621 0.754011 0.597197 0.072194
H45   H     H_    0.662483 0.768287 0.573791 0.119603
H46   H     H_    0.527323 0.730540 0.565746 0.168790
C82   C     C_3   0.589572 0.664410 0.647615 -0.624589
H47   H     H_    0.658301 0.684094 0.680870 0.259728
H48   H     H_    0.522110 0.645061 0.669190 0.256605
H49   H     H_    0.580866 0.596611 0.630363 0.206671
O22   O     O_3   0.348417 0.186199 0.429148 -0.561022
C83   C     C_3   0.329466 0.213029 0.477665 0.085912
H50   H     H_    0.402210 0.261196 0.501099 0.140076
H51   H     H_    0.288676 0.144461 0.509293 0.137602
C84   C     C_3   0.262804 0.273952 0.455130 -0.601007
H52   H     H_    0.193373 0.230977 0.427287 0.279728
H53   H     H_    0.238704 0.286572 0.492887 0.148835
H54   H     H_    0.305002 0.348878 0.428829 0.264591
F15   F     F_    0.332260 0.756553 0.492878 -0.615671
F16   F     F_    0.705532 0.220307 0.434265 -0.672608
F17   F     F_    0.045268 0.848661 0.440280 -0.582685
F18   F     F_    0.934101 0.164213 0.598148 -0.571189

loop_
_geom_bond_atom_site_label_1
_geom_bond_atom_site_label_2
_ccdc_geom_bond_type
O13   C65   S    
O21   C81   S    
Cu1   O5    S    
C72   H23   S    
C45   N1    A    
C1    O3    A    
C82   H47   S    
O14   C67   S    
C76   H34   S    
C75   H30   S    
C71   H21   S    
C57   C58   A    
C74   H27   S    
C39   C41   A    
C76   H33   S    
O22   C83   S    
C27   C33   A    
C15   C19   A    
C59   C64   A    
C60   C63   A    
C32   O18   S    
C80   H43   S    
C35   F5    S    
C29   C32   A    
C77   C78   S    
C38   N4    A    
C30   C31   A    
C78   H39   S    
C74   H28   S    
C12   F14   S    
C58   C60   A    
C72   H22   S    
C67   C68   S    
C11   C13   A    
C14   N1    S    
C61   C63   A    
C24   O8    A    
C83   H50   S    
C71   H20   S    
C62   C64   A    
C61   O13   S    
C17   C19   A    
C51   O19   S    
C24   O6    A    
C80   H42   S    
C40   N4    A    
C49   C51   A    
C67   H11   S    
C50   C52   A    
C70   H17   S    
C31   C33   A    
C1    C15   S    
C35   C43   A    
C46   N2    A    
C3    C13   A    
C73   C74   S    
C72   H24   S    
C44   C52   A    
C40   C42   A    
C28   C34   A    
C10   F12   S    
C62   O14   S    
C81   H46   S    
C41   C43   A    
C45   O9    S    
C42   C44   A    
C79   C80   S    
C4    H4    S    
C69   H15   S    
C73   H26   S    
C47   C50   A    
C53   C55   A    
C25   C29   A    
C21   F16   S    
C78   H37   S    
C54   C56   A    
C52   O20   S    
C1    O1    A    
O19   C77   S    
C80   H44   S    
C18   C28   A    
C18   O16   S    
C4    C6    A    
C66   H7    S    
C5    C7    A    
C77   H35   S    
C74   H29   S    
C6    C8    A    
C84   H53   S    
Cu2   N3    S    
C39   F2    S    
Cu1   N4    S    
C40   F1    S    
C17   C27   A    
C29   C30   A    
C2    O4    A    
C66   H8    S    
C47   C48   A    
C65   C66   S    
C16   C20   A    
C84   H54   S    
Cu2   O2    S    
C67   H10   S    
C11   F13   S    
C41   C47   A    
C42   C48   A    
C69   C70   S    
C9    F11   S    
C9    C11   A    
C83   C84   S    
C31   O17   S    
C10   C12   A    
C20   F17   S    
C46   O10   S    
C79   H41   S    
C48   C49   A    
C68   H13   S    
C3    H3    S    
C12   C14   A    
C26   C30   A    
C55   C57   A    
C81   H45   S    
C70   H19   S    
C56   C62   A    
C36   C44   A    
C63   F7    S    
O18   C75   S    
C53   N1    A    
C75   C76   S    
C2    O2    A    
C73   H25   S    
C36   F6    S    
C77   H36   S    
C54   O12   S    
C82   H48   S    
C35   C37   A    
C7    C9    A    
Cu2   O3    S    
C21   C25   A    
C45   C59   A    
C16   C22   A    
Cu1   O4    S    
C23   O7    A    
O16   C71   S    
C46   C60   A    
C5    F9    S    
C26   C28   A    
C37   F4    S    
C33   O21   S    
C65   H6    S    
C79   H40   S    
C3    C5    A    
C75   H31   S    
C19   F18   S    
C6    F10   S    
O17   C73   S    
C49   H1    S    
C69   H16   S    
C13   N2    S    
C2    C16   S    
C25   C27   A    
Cu2   O6    S    
C37   N3    A    
Cu1   O1    S    
C68   H12   S    
C36   C38   A    
C17   O15   S    
Cu1   Cu2   S    
C34   O22   S    
C66   H9    S    
C78   H38   S    
C43   C51   A    
Cu1   O8    S    
C70   H18   S    
C7    C23   S    
C55   C61   A    
C8    C24   S    
C56   C58   A    
C18   C20   A    
C22   F15   S    
C39   N3    A    
C4    C14   A    
C76   H32   S    
C83   H51   S    
C57   C59   A    
C15   C21   A    
C68   H14   S    
C54   N2    A    
C65   H5    S    
C81   C82   S    
C8    C10   A    
C84   H52   S    
C22   C26   A    
C64   F8    S    
O15   C69   S    
C53   O11   S    
C82   H49   S    
C38   F3    S    
C23   O5    A    
C50   H2    S    
C71   C72   S    
O20   C79   S    
C32   C34   A    
Cu2   O7    S    
