data_mof_unit_pretest_503.cif
_audit_creation_date              2012-12-10T17:40:53-0500
_audit_creation_method            fapswitch 2.2
_symmetry_space_group_name_H-M    P1
_symmetry_Int_Tables_number       1
_space_group_crystal_system       triclinic
_cell_length_a                    14.889501
_cell_length_b                    15.429023
_cell_length_c                    9.902479
_cell_angle_alpha                 89.50103
_cell_angle_beta                  90.742965
_cell_angle_gamma                 90.454565
_cell_volume                      2274.55389665

loop_
_atom_site_label
_atom_site_type_symbol
_atom_type_description
_atom_site_fract_x
_atom_site_fract_y
_atom_site_fract_z
_atom_type_partial_charge
C1    C     C_R   0.382561 0.878132 0.500126 0.864271
C2    C     C_R   0.385918 0.124584 0.499268 0.864625
C3    C     C_R   0.882561 0.378132 0.500126 0.864271
C4    C     C_R   0.885918 0.624584 0.499268 0.864625
C5    C     C_R   0.272334 0.210574 0.388664 -0.233020
C6    C     C_R   0.248505 0.812563 0.413049 -0.216431
C7    C     C_R   0.772334 0.710574 0.388664 -0.233020
C8    C     C_R   0.748506 0.312562 0.413049 -0.216431
C9    C     C_R   0.707358 0.772337 0.392228 -0.218006
C10   C     C_R   0.684855 0.248402 0.413757 -0.216128
C11   C     C_R   0.207359 0.272337 0.392228 -0.218006
C12   C     C_R   0.184855 0.748402 0.413758 -0.216127
C13   C     C_R   0.697818 0.823461 0.506766 -0.122065
C14   C     C_R   0.694936 0.177619 0.500266 -0.095782
C15   C     C_R   0.197818 0.323461 0.506766 -0.122064
C16   C     C_R   0.194936 0.677619 0.500266 -0.095782
C17   C     C_R   0.336526 0.993283 0.137548 -0.167620
C18   C     C_R   0.836526 0.493283 0.137548 -0.167620
C19   C     C_R   0.256002 0.985757 0.066300 -0.218106
C20   C     C_R   0.756002 0.485757 0.066300 -0.218107
C21   C     C_R   0.255751 0.982881 0.926678 -0.183060
C22   C     C_R   0.755751 0.482881 0.926678 -0.183060
C23   C     C_R   0.336005 0.990478 0.857290 -0.148348
C24   C     C_R   0.836005 0.490478 0.857290 -0.148348
C25   C     C_R   0.419271 0.994866 0.926295 0.164609
C26   C     C_R   0.919271 0.494866 0.926295 0.164609
C27   C     C_R   0.419385 0.995544 0.070940 0.170406
C28   C     C_R   0.919385 0.495544 0.070940 0.170406
C29   C     C_R   0.577117 0.006759 0.073071 -0.115012
C30   C     C_R   0.077118 0.506759 0.073071 -0.115012
C31   C     C_R   0.623135 0.116520 0.500301 0.854851
C32   C     C_R   0.623766 0.883309 0.502099 0.852334
C33   C     C_R   0.123135 0.616520 0.500301 0.854851
C34   C     C_R   0.123766 0.383309 0.502099 0.852334
C35   C     C_R   0.576941 0.007914 0.930008 -0.141901
C36   C     C_R   0.076941 0.507914 0.930008 -0.141901
C37   C     C_R   0.398853 0.256598 0.710565 -0.212044
C38   C     C_R   0.412235 0.726224 0.672330 -0.215181
C39   C     C_R   0.898853 0.756598 0.710565 -0.212044
C40   C     C_R   0.912234 0.226224 0.672330 -0.215181
C41   C     C_R   0.387772 0.299918 0.832370 0.164018
C42   C     C_R   0.422695 0.654919 0.759030 0.167973
C43   C     C_R   0.887772 0.799918 0.832370 0.164018
C44   C     C_R   0.922695 0.154919 0.759031 0.167973
C45   C     C_R   0.813381 0.852703 0.846618 -0.210950
C46   C     C_R   0.859704 0.087475 0.753416 -0.177482
C47   C     C_R   0.313381 0.352703 0.846618 -0.210950
C48   C     C_R   0.359705 0.587475 0.753414 -0.177482
C49   C     C_R   0.753116 0.864235 0.739945 -0.239020
C50   C     C_R   0.785907 0.092946 0.665513 -0.218617
C51   C     C_R   0.253116 0.364235 0.739945 -0.239021
C52   C     C_R   0.285908 0.592945 0.665512 -0.218617
C53   C     C_R   0.759470 0.816509 0.618501 0.116948
C54   C     C_R   0.771435 0.167625 0.584839 0.099395
C55   C     C_R   0.259470 0.316510 0.618501 0.116949
C56   C     C_R   0.271435 0.667625 0.584838 0.099395
C57   C     C_R   0.330910 0.257875 0.608465 0.074858
C58   C     C_R   0.335973 0.734243 0.586362 0.067182
C59   C     C_R   0.830910 0.757875 0.608465 0.074859
C60   C     C_R   0.835973 0.234243 0.586362 0.067182
C61   C     C_R   0.331169 0.200517 0.497808 -0.103645
C62   C     C_R   0.322146 0.806730 0.500418 -0.089068
C63   C     C_R   0.831169 0.700517 0.497808 -0.103645
C64   C     C_R   0.822146 0.306730 0.500418 -0.089069
H1    H     H_    0.273649 0.167829 0.302374 0.164295
H2    H     H_    0.238668 0.868430 0.347458 0.149496
H3    H     H_    0.773649 0.667829 0.302374 0.164295
H4    H     H_    0.738669 0.368429 0.347457 0.149497
H5    H     H_    0.192715 0.978000 0.871628 0.149586
H6    H     H_    0.692715 0.478000 0.871627 0.149586
H7    H     H_    0.329757 0.994799 0.750300 0.206856
H8    H     H_    0.829757 0.494799 0.750300 0.206856
H9    H     H_    0.639642 0.016478 0.877992 0.133513
H10   H     H_    0.139642 0.516478 0.877992 0.133513
H11   H     H_    0.460326 0.221005 0.698147 0.168553
H12   H     H_    0.464389 0.774958 0.674909 0.175798
H13   H     H_    0.960326 0.721005 0.698147 0.168553
H14   H     H_    0.964389 0.274958 0.674910 0.175798
H15   H     H_    0.801736 0.885955 0.940579 0.134660
H16   H     H_    0.867190 0.030957 0.817910 0.135636
H17   H     H_    0.301736 0.385955 0.940579 0.134660
H18   H     H_    0.367191 0.530956 0.817909 0.135636
H19   H     H_    0.701862 0.909617 0.760490 0.177995
H20   H     H_    0.740539 0.038418 0.661370 0.151932
H21   H     H_    0.201862 0.409617 0.760490 0.177995
H22   H     H_    0.240540 0.538418 0.661369 0.151932
H23   H     H_    0.661338 0.776842 0.306742 0.172661
H24   H     H_    0.625983 0.254990 0.349456 0.163755
H25   H     H_    0.161338 0.276842 0.306742 0.172661
H26   H     H_    0.125982 0.754991 0.349457 0.163755
H27   H     H_    0.640140 0.012306 0.128023 0.147800
H28   H     H_    0.140140 0.512306 0.128023 0.147800
H29   H     H_    0.331151 0.998627 0.244203 0.199234
H30   H     H_    0.831151 0.498626 0.244203 0.199234
H31   H     H_    0.193385 0.984771 0.119858 0.145701
H32   H     H_    0.693385 0.484771 0.119858 0.145701
N1    N     N_R   0.498810 1.000000 0.142780 -0.122531
N2    N     N_R   0.998810 0.500000 0.142780 -0.122531
N3    N     N_R   0.498740 0.000000 0.857170 -0.123917
N4    N     N_R   0.998740 0.500000 0.857170 -0.123917
O1    O     O_R   0.408390 0.908380 0.614690 -0.644723
O2    O     O_R   0.408390 0.091620 0.614690 -0.645010
O3    O     O_R   0.908390 0.408380 0.614690 -0.644723
O4    O     O_R   0.908390 0.591620 0.614690 -0.645010
O5    O     O_R   0.408370 0.908380 0.385360 -0.627351
O6    O     O_R   0.408370 0.091620 0.385360 -0.640480
O7    O     O_R   0.908370 0.408380 0.385360 -0.627351
O8    O     O_R   0.908370 0.591620 0.385360 -0.640480
O9    O     O_R   0.591620 0.091610 0.614640 -0.633925
O10   O     O_R   0.591620 0.908390 0.614640 -0.645430
O11   O     O_R   0.091620 0.591610 0.614640 -0.633925
O12   O     O_R   0.091620 0.408390 0.614640 -0.645429
O13   O     O_R   0.591610 0.091610 0.385310 -0.614590
O14   O     O_R   0.591610 0.908390 0.385310 -0.611186
O15   O     O_R   0.091610 0.591610 0.385310 -0.614590
O16   O     O_R   0.091610 0.408390 0.385310 -0.611186
Zn1   Zn    Zn3+2 0.500010 0.000000 0.653130 0.908496
Zn2   Zn    Zn3+2 0.000010 0.500000 0.653130 0.908496
Zn3   Zn    Zn3+2 0.499980 0.000000 0.346870 0.932411
Zn4   Zn    Zn3+2 0.999980 0.500000 0.346870 0.932411
C65   C     C_3   0.450110 0.283489 0.950988 -0.412310
C66   C     C_3   0.494462 0.367094 0.003089 -0.342354
C67   C     C_3   0.546883 0.349411 0.133553 -0.888945
H33   H     H_    0.504002 0.314442 0.207501 0.264657
H34   H     H_    0.607254 0.310176 0.112403 0.268762
H35   H     H_    0.567963 0.411529 0.179921 0.236456
H36   H     H_    0.540526 0.394080 0.925622 0.218928
H37   H     H_    0.442987 0.416616 0.024523 0.211728
H38   H     H_    0.409961 0.252852 0.032752 0.208391
H39   H     H_    0.503458 0.236842 0.924038 0.203444
C68   C     C_3   0.497388 0.654865 0.863539 -0.442069
C69   C     C_3   0.590867 0.654176 0.799783 -0.342482
C70   C     C_3   0.663154 0.677616 0.904160 -0.847408
H40   H     H_    0.655821 0.746174 0.935183 0.262543
H41   H     H_    0.657343 0.635565 0.995104 0.258893
H42   H     H_    0.730656 0.669352 0.859984 0.269449
H43   H     H_    0.603977 0.588754 0.758855 0.211488
H44   H     H_    0.595534 0.701518 0.715043 0.229462
H45   H     H_    0.490124 0.713856 0.926176 0.215863
H46   H     H_    0.491128 0.597828 0.932409 0.186285
C71   C     C_3   0.950110 0.783489 0.950988 -0.412311
C72   C     C_3   0.994462 0.867094 0.003089 -0.342353
C73   C     C_3   0.046883 0.849411 0.133553 -0.888945
H47   H     H_    0.004002 0.814442 0.207501 0.264657
H48   H     H_    0.107254 0.810177 0.112403 0.268762
H49   H     H_    0.067962 0.911530 0.179921 0.236456
H50   H     H_    0.040526 0.894080 0.925622 0.218928
H51   H     H_    0.942987 0.916616 0.024523 0.211728
H52   H     H_    0.909961 0.752852 0.032752 0.208391
H53   H     H_    0.003458 0.736842 0.924038 0.203444
C74   C     C_3   0.997387 0.154865 0.863540 -0.442070
C75   C     C_3   0.090867 0.154175 0.799782 -0.342484
C76   C     C_3   0.163154 0.177616 0.904158 -0.847410
H54   H     H_    0.155821 0.246174 0.935180 0.262544
H55   H     H_    0.157343 0.135566 0.995104 0.258893
H56   H     H_    0.230656 0.169352 0.859982 0.269449
H57   H     H_    0.103976 0.088752 0.758857 0.211489
H58   H     H_    0.095533 0.201516 0.715041 0.229462
H59   H     H_    0.990125 0.213856 0.926176 0.215863
H60   H     H_    0.991128 0.097828 0.932410 0.186285

loop_
_geom_bond_atom_site_label_1
_geom_bond_atom_site_label_2
_ccdc_geom_bond_type
C58   C62   A    
C73   H49   S    
C46   H16   S    
C40   C60   A    
O6    Zn3   S    
C34   O12   A    
O8    Zn4   S    
C13   C32   S    
C14   C31   S    
C1    C62   S    
C51   H21   S    
C53   C59   A    
O9    Zn1   S    
C67   H33   S    
C54   C60   A    
C3    C64   S    
C4    O8    A    
C4    C63   S    
C10   H24   S    
C50   C54   A    
C32   O10   A    
O11   Zn2   S    
C39   H13   S    
C12   H26   S    
C19   C21   A    
C24   C26   A    
C5    C11   A    
C6    C12   A    
C67   H34   S    
C2    O2    A    
C34   O16   A    
C73   H47   S    
C18   C20   A    
C73   H48   S    
C41   C65   S    
C66   H36   S    
C9    C13   A    
C68   H46   S    
O13   Zn3   S    
C11   C15   A    
C25   N3    A    
C35   H9    S    
C12   C16   A    
C56   C58   A    
C69   C70   S    
C70   H42   S    
C74   C75   S    
C42   C68   S    
C33   O11   A    
C45   C49   A    
C76   H55   S    
C65   H39   S    
C15   C34   S    
O4    Zn2   S    
O14   Zn3   S    
C2    C61   S    
C23   C25   A    
C37   H11   S    
C38   C58   A    
C38   H12   S    
C37   C41   A    
C35   N3    A    
O10   Zn1   S    
C22   H6    S    
C44   C46   A    
C71   H53   S    
C13   C53   A    
C31   O9    A    
C75   H58   S    
C33   O15   A    
C44   C74   S    
C71   H52   S    
C17   C27   A    
C23   H7    S    
C18   C28   A    
C30   H28   S    
C10   C14   A    
C67   H35   S    
C47   C51   A    
C3    O7    A    
C69   H43   S    
C28   N2    A    
C2    O6    A    
O16   Zn4   S    
C21   H5    S    
C15   C55   A    
N1    Zn3   S    
C16   C56   A    
C72   H51   S    
C16   C33   S    
N3    Zn1   S    
C11   H25   S    
C6    H2    S    
C39   C59   A    
C41   C47   A    
C5    C61   A    
C45   H15   S    
C42   C48   A    
C76   H56   S    
C57   C61   A    
C43   C45   A    
C7    C63   A    
C65   C66   S    
O2    Zn1   S    
C36   H10   S    
C8    C64   A    
C40   H14   S    
C5    H1    S    
C14   C54   A    
C20   C22   A    
C8    H4    S    
C55   C57   A    
C70   H40   S    
C18   H30   S    
C22   C24   A    
C43   C71   S    
O3    Zn2   S    
N4    Zn2   S    
C40   C44   A    
C68   C69   S    
C1    O1    A    
O7    Zn4   S    
C29   H27   S    
C19   H31   S    
C24   H8    S    
C30   N2    A    
C3    O3    A    
C7    C9    A    
C29   C35   A    
C75   H57   S    
C27   N1    A    
C26   C28   A    
C72   H50   S    
C20   H32   S    
C65   H38   S    
C39   C43   A    
C36   N4    A    
N2    Zn4   S    
C26   N4    A    
C30   C36   A    
C25   C27   A    
C46   C50   A    
C59   C63   A    
C29   N1    A    
C60   C64   A    
O1    Zn1   S    
C74   H60   S    
C6    C62   A    
C21   C23   A    
C66   C67   S    
C71   C72   S    
C9    H23   S    
O12   Zn2   S    
C49   H19   S    
C49   C53   A    
C4    O4    A    
C52   H22   S    
C17   C19   A    
C48   H18   S    
C50   H20   S    
C51   C55   A    
C47   H17   S    
C66   H37   S    
C68   H45   S    
C7    H3    S    
C38   C42   A    
C48   C52   A    
C17   H29   S    
C75   C76   S    
C8    C10   A    
O15   Zn4   S    
C1    O5    A    
C70   H41   S    
C72   C73   S    
O5    Zn3   S    
C32   O14   A    
C76   H54   S    
C69   H44   S    
C31   O13   A    
C37   C57   A    
C52   C56   A    
C74   H59   S    
