data_mof_unit_pretest_1818.cif
_audit_creation_date              2013-03-05T16:03:18-0500
_audit_creation_method            fapswitch 2.2
_symmetry_space_group_name_H-M    P1
_symmetry_Int_Tables_number       1
_space_group_crystal_system       triclinic
_cell_length_a                    27.802311
_cell_length_b                    11.72463
_cell_length_c                    10.468328
_cell_angle_alpha                 89.96812
_cell_angle_beta                  89.999976
_cell_angle_gamma                 89.999974
_cell_volume                      3412.37929363

loop_
_atom_site_label
_atom_site_type_symbol
_atom_site_description
_atom_site_fract_x
_atom_site_fract_y
_atom_site_fract_z
_atom_type_partial_charge
O1    O     O_R   0.500000 0.337200 0.605810 -0.572029
O2    O     O_R   0.500000 0.662800 0.394190 -0.572030
O3    O     O_R   0.500000 0.662800 0.605810 -0.554541
O4    O     O_R   0.500000 0.337200 0.394190 -0.554541
C1    C     C_R   0.499960 0.283323 0.500046 0.846128
C2    C     C_R   0.499960 0.716677 0.499954 0.846128
O5    O     O_R   0.430260 0.500000 0.605800 -0.558620
O6    O     O_R   0.569740 0.500000 0.394200 -0.558771
O7    O     O_R   0.569740 0.500000 0.605800 -0.558770
O8    O     O_R   0.430260 0.500000 0.394200 -0.558620
C3    C     C_R   0.407311 0.500000 0.500000 0.880463
C4    C     C_R   0.592674 0.500000 0.500000 0.881583
Cu1   Cu    Cu3+1 0.500000 0.500000 0.625300 1.050667
Cu2   Cu    Cu3+1 0.500000 0.500000 0.374700 1.050667
C5    C     C_R   0.178135 0.449840 0.599121 0.600898
C6    C     C_R   0.821808 0.543315 0.396905 0.600677
C7    C     C_R   0.178135 0.550161 0.400880 0.600898
C8    C     C_R   0.821808 0.456682 0.603094 0.600676
O9    O     O_2   0.203071 0.401102 0.695410 -0.498685
O10   O     O_2   0.796871 0.585507 0.296800 -0.498659
O11   O     O_2   0.203071 0.598899 0.304591 -0.498686
O12   O     O_2   0.796870 0.414489 0.703198 -0.498658
N1    N     N_R   0.202191 0.500001 0.500001 -0.446412
N2    N     N_R   0.797751 0.499999 0.499999 -0.446538
C9    C     C_R   0.278811 0.591177 0.556360 0.173947
C10   C     C_R   0.721128 0.406565 0.448457 0.174558
C11   C     C_R   0.278811 0.408824 0.443641 0.173947
C12   C     C_R   0.721128 0.593434 0.551542 0.174557
C13   C     C_R   0.329370 0.591654 0.556149 0.066715
C14   C     C_R   0.670570 0.406283 0.448333 0.065492
C15   C     C_R   0.329370 0.408347 0.443852 0.066716
C16   C     C_R   0.670570 0.593716 0.551666 0.065492
C17   C     C_R   0.253799 0.500000 0.500000 0.170947
C18   C     C_R   0.746145 0.499999 0.499999 0.170704
C19   C     C_R   0.101982 0.500000 0.500001 -0.039945
C20   C     C_R   0.897958 0.499999 0.500000 -0.039938
C21   C     C_R   0.127648 0.448928 0.600980 -0.032564
C22   C     C_R   0.872293 0.544038 0.394937 -0.032079
C23   C     C_R   0.127648 0.551072 0.399021 -0.032564
C24   C     C_R   0.872293 0.455959 0.605062 -0.032079
C25   C     C_R   0.102540 0.397670 0.701096 -0.122380
C26   C     C_R   0.897400 0.587222 0.290142 -0.122939
C27   C     C_R   0.102540 0.602329 0.298905 -0.122379
C28   C     C_R   0.897400 0.412774 0.709857 -0.122939
C29   C     C_R   0.354578 0.500000 0.500000 -0.203455
C30   C     C_R   0.645383 0.500000 0.500000 -0.202088
H1    H     H_    0.121445 0.356698 0.779184 0.196134
H2    H     H_    0.878497 0.620395 0.207522 0.195544
H3    H     H_    0.121445 0.643301 0.220816 0.196134
H4    H     H_    0.878497 0.379599 0.792476 0.195544
C31   C     C_R   0.974398 0.453204 0.605886 0.042716
C32   C     C_R   0.025541 0.549964 0.395951 0.042048
C33   C     C_R   0.974398 0.546794 0.394114 0.042716
C34   C     C_R   0.025541 0.450034 0.604049 0.042048
C35   C     C_R   0.949139 0.499999 0.500000 0.076140
C36   C     C_R   0.050800 0.500000 0.500000 0.076115
C37   C     C_R   0.947334 0.411598 0.710703 -0.192942
C38   C     C_R   0.052606 0.602174 0.297281 -0.192633
C39   C     C_R   0.947334 0.588398 0.289296 -0.192942
C40   C     C_R   0.052606 0.397825 0.702719 -0.192634
H5    H     H_    0.963470 0.378612 0.796560 0.144215
H6    H     H_    0.036473 0.645541 0.217446 0.145757
H7    H     H_    0.963470 0.621382 0.203439 0.144215
H8    H     H_    0.036473 0.354456 0.782554 0.145758
C41   C     C_1   0.499934 0.161953 0.500091 -0.108998
C42   C     C_1   0.499934 0.838047 0.499909 -0.108997
C43   C     C_1   0.499923 0.059728 0.500038 0.057632
C44   C     C_1   0.499923 0.940272 0.499962 0.057632
N3    N     N_1   0.500000 0.500000 0.186410 -0.128826
N4    N     N_1   0.500000 0.500000 0.813590 -0.128826
C45   C     C_1   0.499999 0.499997 0.072058 0.141396
C46   C     C_1   0.499999 0.500003 0.927941 0.141397
I1    I     I_    0.367856 0.266576 0.365146 -0.226372
I2    I     I_    0.631982 0.737778 0.624475 -0.227215
I3    I     I_    0.367856 0.733424 0.634855 -0.226372
I4    I     I_    0.631982 0.262221 0.375525 -0.227215
I5    I     I_    0.238571 0.272948 0.359464 -0.178127
I6    I     I_    0.761339 0.733121 0.627625 -0.176933
I7    I     I_    0.238571 0.727053 0.640538 -0.178127
I8    I     I_    0.761339 0.266877 0.372374 -0.176933

loop_
_geom_bond_atom_site_label_1
_geom_bond_atom_site_label_2
_geom_bond_distance
_ccdc_geom_bond_type
C38   H6    1.075972 S    
O5    Cu1   1.949649 S    
C42   C44   1.198550 T    
C19   C23   1.408710 A    
O3    C2    1.275232 A    
C33   C39   1.416858 A    
C34   C40   1.416726 A    
C11   C17   1.405396 A    
O5    C3    1.278181 A    
C7    N1    1.367184 A    
O1    C1    1.275006 A    
C19   C21   1.408709 A    
C22   C26   1.395170 A    
C16   I2    2.141569 S    
C15   I1    2.142001 S    
Cu1   N4    1.971083 S    
C7    C23   1.403814 A    
N3    C45   1.197068 T    
O7    Cu1   1.949646 S    
C5    C21   1.403814 A    
C20   C24   1.408819 A    
C8    C24   1.403771 A    
C27   C38   1.388394 A    
C10   C18   1.405565 A    
C41   C43   1.198550 T    
C31   C37   1.416858 A    
C12   I6    2.137277 S    
O3    Cu1   1.919530 S    
C6    O10   1.350186 S    
C5    N1    1.367184 A    
C12   C18   1.405565 A    
C6    N2    1.367251 A    
C8    O12   1.350188 S    
Cu1   Cu2   2.623363 S    
C21   C25   1.395052 A    
O2    C2    1.275005 A    
C33   C35   1.422029 A    
C9    C13   1.405673 A    
C34   C36   1.421976 A    
C11   C15   1.405673 A    
C43   C44   1.400572 S    
C12   C16   1.405634 A    
C4    C30   1.465435 S    
O8    Cu2   1.949649 S    
C27   H3    1.083892 S    
C23   C27   1.395052 A    
N1    C17   1.434836 S    
C10   I8    2.137277 S    
C13   C29   1.411424 A    
C5    O9    1.350030 S    
C14   I4    2.141568 S    
C2    C42   1.423021 S    
C28   C37   1.388377 A    
O6    C4    1.277981 A    
C25   H1    1.083891 S    
C26   H2    1.084047 S    
C32   C38   1.416727 A    
C1    C41   1.423021 S    
C10   C14   1.405634 A    
Cu2   N3    1.971081 S    
C8    N2    1.367251 A    
C3    C29   1.466110 S    
O1    Cu1   1.919756 S    
C32   C33   1.422515 A    
C28   H4    1.084047 S    
O6    Cu2   1.949647 S    
C19   C36   1.422997 A    
C9    I7    2.137209 S    
C16   C30   1.410991 A    
C14   C30   1.410989 A    
C25   C40   1.388397 A    
O4    C1    1.275233 A    
C11   I5    2.137210 S    
C26   C39   1.388377 A    
C37   H5    1.076209 S    
C13   I3    2.142004 S    
C39   H7    1.076208 S    
C40   H8    1.075971 S    
C31   C34   1.422518 A    
C20   C22   1.408820 A    
C45   C46   1.508665 S    
C20   C35   1.422950 A    
C31   C35   1.422029 A    
O4    Cu2   1.919530 S    
O2    Cu2   1.919756 S    
O7    C4    1.277982 A    
N2    C18   1.434788 S    
O8    C3    1.278181 A    
C24   C28   1.395170 A    
C15   C29   1.411426 A    
C9    C17   1.405396 A    
N4    C46   1.197068 T    
C32   C36   1.421975 A    
C6    C22   1.403771 A    
C7    O11   1.350029 S    
