data_mof_unit_pretest_1428.cif
_audit_creation_date              2012-12-10T17:15:54-0500
_audit_creation_method            fapswitch 2.2
_symmetry_space_group_name_H-M    P1
_symmetry_Int_Tables_number       1
_space_group_crystal_system       triclinic
_cell_length_a                    10.170894
_cell_length_b                    10.770494
_cell_length_c                    10.849708
_cell_angle_alpha                 90.64283
_cell_angle_beta                  95.54817
_cell_angle_gamma                 80.975566
_cell_volume                      1168.31652789

loop_
_atom_site_label
_atom_site_type_symbol
_atom_type_description
_atom_site_fract_x
_atom_site_fract_y
_atom_site_fract_z
_atom_type_partial_charge
C1    C     C_R   0.443592 0.509541 0.267665 1.023594
C2    C     C_2   0.487153 0.516346 0.934331 -0.152998
C3    C     C_2   0.071319 0.495433 0.484337 0.353205
C4    C     C_R   0.497193 0.260892 0.488129 0.910658
C5    C     C_2   0.928391 0.505297 0.515263 0.364971
C6    C     C_R   0.556112 0.492428 0.732212 0.940023
C7    C     C_R   0.497472 0.739686 0.487952 0.904196
C8    C     C_R   0.676060 0.100906 0.323018 0.401960
C9    C     C_R   0.787810 0.023153 0.286633 -0.239230
C10   C     C_R   0.792497 0.894613 0.290229 -0.242302
C11   C     C_R   0.684197 0.845486 0.327980 0.415660
C12   C     C_R   0.585821 0.052450 0.395249 -0.026991
C13   C     C_R   0.588163 0.920710 0.396466 -0.019470
C14   C     C_3   0.930161 0.521691 0.725552 0.091051
C15   C     C_3   0.894229 0.612393 0.830006 -0.797101
C16   C     C_3   0.068512 0.480820 0.273976 0.100652
C17   C     C_3   0.103564 0.390880 0.168751 -0.800137
C18   C     C_R   0.490644 0.129752 0.462309 -0.074245
C19   C     C_R   0.390188 0.079643 0.513964 -0.185723
C20   C     C_R   0.390612 0.952857 0.513642 -0.212685
C21   C     C_R   0.492100 0.872196 0.462543 -0.078851
C22   C     C_2   0.411359 0.520292 0.135830 -0.351610
C23   C     C_2   0.512306 0.503679 0.065046 -0.002715
C24   C     C_2   0.587711 0.488273 0.863987 -0.366559
Cl1   Cl    Cl    0.628303 0.236332 0.232285 -0.672828
Cl2   Cl    Cl    0.649261 0.715460 0.240796 -0.675120
H1    H     H_    0.314783 0.137832 0.562262 0.174598
H2    H     H_    0.690288 0.459601 0.903395 0.155615
H3    H     H_    0.040106 0.490780 0.737262 0.098630
H4    H     H_    0.883429 0.436279 0.735492 0.164742
H5    H     H_    0.785593 0.649591 0.819311 0.271402
H6    H     H_    0.919639 0.563444 0.920631 0.199086
H7    H     H_    0.950954 0.692356 0.828241 0.245201
H8    H     H_    0.115514 0.566163 0.264420 0.163285
H9    H     H_    0.958541 0.511921 0.263024 0.132280
H10   H     H_    0.047163 0.310684 0.170636 0.253527
H11   H     H_    0.077053 0.440394 0.078515 0.192671
H12   H     H_    0.307936 0.543660 0.096921 0.128457
H13   H     H_    0.212305 0.353998 0.178398 0.273513
H14   H     H_    0.877653 0.383846 0.384592 0.172604
H15   H     H_    0.122525 0.616123 0.615491 0.152132
H16   H     H_    0.859415 0.061309 0.236252 0.187047
H17   H     H_    0.868126 0.835752 0.242797 0.177757
H18   H     H_    0.315175 0.917715 0.561566 0.171143
H19   H     H_    0.384317 0.545958 0.895675 0.181907
H20   H     H_    0.616007 0.479455 0.103278 0.230157
N1    N     N_2   0.157290 0.551390 0.551110 -0.231922
N2    N     N_2   0.842740 0.448550 0.448960 -0.205818
O1    O     O_R   0.568950 0.489660 0.307530 -0.536180
O2    O     O_3   0.114518 0.418852 0.388230 -0.587028
O3    O     O_R   0.348880 0.522640 0.340350 -0.613339
O4    O     O_R   0.610060 0.300270 0.483590 -0.602645
O5    O     O_R   0.389990 0.333260 0.516410 -0.586184
O6    O     O_R   0.651120 0.477360 0.659650 -0.597688
O7    O     O_R   0.431050 0.510340 0.692470 -0.621855
O8    O     O_R   0.610010 0.666740 0.483590 -0.541854
O9    O     O_R   0.389940 0.699730 0.516410 -0.639981
O10   O     O_3   0.884817 0.582717 0.610685 -0.582698
Zn1   Zn    Zn3+2 0.646940 0.477980 0.478090 1.038395
Zn2   Zn    Zn3+2 0.353060 0.522020 0.521910 0.975642

loop_
_geom_bond_atom_site_label_1
_geom_bond_atom_site_label_2
_ccdc_geom_bond_type
C15   H5    S    
C16   H8    S    
O4    Zn1   S    
C4    O5    A    
C19   H1    S    
C9    C10   A    
C1    C22   S    
C19   C20   A    
O1    Zn1   S    
O8    Zn1   S    
C6    O7    A    
C8    C12   A    
C6    C24   S    
N1    Zn2   S    
H15   N1    S    
C13   C21   A    
C15   H6    S    
C2    H19   S    
C23   H20   S    
C17   H11   S    
O7    Zn2   S    
C12   C13   A    
C8    Cl1   S    
C1    O3    A    
C9    H16   S    
C5    O10   S    
C6    O6    A    
C7    O8    A    
C3    N1    D    
C17   H10   S    
O5    Zn2   S    
C4    O4    A    
O6    Zn1   S    
C22   C23   D    
C16   H9    S    
C2    C24   D    
C14   O10   S    
C5    N2    D    
C7    O9    A    
C10   C11   A    
C14   H3    S    
C22   H12   S    
C11   C13   A    
C20   C21   A    
N2    Zn1   S    
C3    O2    S    
C18   C19   A    
C17   H13   S    
C12   C18   A    
C2    C23   S    
H14   N2    S    
C14   C15   S    
C16   C17   S    
O9    Zn2   S    
O3    Zn2   S    
C11   Cl2   S    
C20   H18   S    
C10   H17   S    
C7    C21   S    
C1    O1    A    
C4    C18   S    
C15   H7    S    
C14   H4    S    
C24   H2    S    
C16   O2    S    
C8    C9    A    
C3    C5    S    
