data_mof_unit_pretest_1688.cif
_audit_creation_date              2012-12-10T19:23:22-0500
_audit_creation_method            fapswitch 2.2
_symmetry_space_group_name_H-M    P1
_symmetry_Int_Tables_number       1
_space_group_crystal_system       triclinic
_cell_length_a                    15.757316
_cell_length_b                    14.994584
_cell_length_c                    27.628904
_cell_angle_alpha                 89.759329
_cell_angle_beta                  89.926014
_cell_angle_gamma                 90.111367
_cell_volume                      6527.92723664

loop_
_atom_site_label
_atom_site_type_symbol
_atom_type_description
_atom_site_fract_x
_atom_site_fract_y
_atom_site_fract_z
_atom_type_partial_charge
C1    C     C_R   0.338092 0.499937 0.499826 0.950118
C2    C     C_R   0.415183 0.445687 0.974372 0.029861
C3    C     C_R   0.518886 0.567266 0.975682 0.023841
C4    C     C_R   0.501342 0.500167 0.405916 0.888595
C5    C     C_R   0.471560 0.503489 0.949680 0.088530
C6    C     C_R   0.362176 0.389737 0.947023 -0.238292
C7    C     C_R   0.367728 0.385820 0.896859 0.238149
C8    C     C_R   0.428903 0.438377 0.872094 -0.093633
C9    C     C_R   0.481582 0.496997 0.898924 -0.068944
C10   C     C_R   0.544338 0.549390 0.875180 -0.097989
C11   C     C_R   0.544908 0.550424 0.824310 0.529476
C12   C     C_R   0.431105 0.563055 0.282144 -0.094924
C13   C     C_R   0.438851 0.436517 0.821530 0.578893
C14   C     C_R   0.433713 0.548733 0.722647 0.133160
C15   C     C_R   0.433344 0.548509 0.671774 -0.137813
C16   C     C_R   0.662134 0.500073 0.500117 0.916994
C17   C     C_R   0.557847 0.450270 0.672704 0.118970
C18   C     C_R   0.555916 0.449717 0.722854 -0.133467
C19   C     C_R   0.494408 0.498023 0.747657 0.235654
C20   C     C_R   0.414768 0.444823 0.025707 0.039409
C21   C     C_R   0.457284 0.513414 0.050966 0.064984
C22   C     C_R   0.502060 0.580731 0.025292 -0.004934
C23   C     C_R   0.480296 0.507597 0.253093 0.259252
C24   C     C_R   0.375254 0.376242 0.052529 -0.234657
C25   C     C_R   0.527744 0.658169 0.100872 -0.132985
C26   C     C_R   0.588084 0.608437 0.952795 -0.135331
C27   C     C_R   0.602384 0.599871 0.903201 -0.020858
C28   C     C_R   0.499921 0.499785 0.594159 0.966678
C29   C     C_R   0.528773 0.657989 0.050631 0.124905
C30   C     C_3   0.047866 0.600895 0.510173 0.097166
C31   C     C_3   0.048163 0.437242 0.541771 0.038818
C32   C     C_3   0.950504 0.427184 0.534401 -0.334401
C33   C     C_3   0.949658 0.593583 0.516828 -0.488217
C34   C     C_R   0.456402 0.514219 0.102121 -0.075861
C35   C     C_1   0.750807 0.500277 0.500158 -0.096218
C36   C     C_3   0.082834 0.501944 0.499731 -0.012467
C37   C     C_3   0.917295 0.501196 0.499928 0.130342
C38   C     C_3   0.949630 0.484119 0.447921 -0.288343
C39   C     C_3   0.047927 0.467955 0.448216 -0.109301
C40   C     C_1   0.825966 0.500621 0.500123 -0.024891
C41   C     C_1   0.174462 0.500856 0.499829 -0.090316
C42   C     C_R   0.424520 0.444963 0.179464 0.578633
C43   C     C_1   0.249561 0.500019 0.499808 -0.051547
C44   C     C_3   0.431443 0.053250 0.460365 0.178812
C45   C     C_R   0.417760 0.443757 0.128558 -0.080125
C46   C     C_3   0.424400 0.946149 0.465621 0.131072
C47   C     C_3   0.475583 0.051042 0.548125 -0.021125
C48   C     C_3   0.489319 0.947334 0.549754 -0.002738
C49   C     C_3   0.501282 0.090408 0.497013 -0.138217
C50   C     C_3   0.502602 0.909455 0.497034 -0.127102
C51   C     C_3   0.591022 0.947275 0.475654 -0.143863
C52   C     C_3   0.594948 0.054990 0.484441 -0.218481
C53   C     C_1   0.499925 0.808951 0.498254 0.307096
C54   C     C_1   0.499279 0.191071 0.498261 0.126195
C55   C     C_R   0.501126 0.582513 0.177066 0.597072
C56   C     C_R   0.376304 0.374688 0.102899 0.235034
C57   C     C_R   0.540074 0.448233 0.273863 -0.026781
C58   C     C_R   0.548014 0.444870 0.324720 0.040547
C59   C     C_R   0.439624 0.560270 0.331851 -0.204813
C60   C     C_2   0.594293 0.390526 0.242972 0.503755
C61   C     C_2   0.682050 0.638441 0.883143 0.533361
C62   C     C_2   0.087177 0.645458 0.554329 0.455963
C63   C     C_2   0.070489 0.471135 0.592087 0.439353
C64   C     C_2   0.089026 0.514270 0.404995 0.417140
C65   C     C_2   0.069891 0.370548 0.439224 0.497939
C66   C     C_2   0.634830 0.104082 0.441420 0.285937
C67   C     C_R   0.495708 0.585260 0.126764 -0.051069
C68   C     C_2   0.596067 0.922878 0.421922 0.439938
C69   C     C_2   0.653400 0.087019 0.525604 0.525753
C70   C     C_2   0.671006 0.901993 0.495536 0.658596
C71   C     C_2   0.365393 0.597611 0.645678 0.495611
C72   C     C_R   0.496904 0.501165 0.353362 -0.063852
C73   C     C_R   0.496455 0.499127 0.646829 -0.138286
H1    H     H_    0.400246 0.603515 0.353745 0.179886
H2    H     H_    0.933386 0.543670 0.425554 0.215311
H3    H     H_    0.913998 0.428212 0.431097 0.226282
H4    H     H_    0.406305 0.061216 0.552589 0.165791
H5    H     H_    0.430376 0.918522 0.565054 0.145616
H6    H     H_    0.312960 0.350277 0.963822 0.171202
H7    H     H_    0.346135 0.319841 0.035063 0.170886
H8    H     H_    0.619471 0.328438 0.257000 0.113028
H9    H     H_    0.713053 0.608264 0.852254 0.113489
H10   H     H_    0.047951 0.666942 0.584408 0.102348
H11   H     H_    0.136861 0.479196 0.601707 0.132704
H12   H     H_    0.550862 0.716659 0.119630 0.215572
H13   H     H_    0.153895 0.538326 0.407109 0.082190
H14   H     H_    0.136242 0.351090 0.437755 0.080385
H15   H     H_    0.607731 0.165364 0.427538 0.145160
H16   H     H_    0.583325 0.971065 0.393738 0.145421
H17   H     H_    0.665010 0.158192 0.529301 0.085253
H18   H     H_    0.732253 0.933334 0.489227 0.114391
H19   H     H_    0.342182 0.660625 0.659434 0.111051
H20   H     H_    0.635215 0.642521 0.974321 0.201368
H21   H     H_    0.602724 0.411885 0.742912 0.175029
H22   H     H_    0.930420 0.602347 0.555297 0.201229
H23   H     H_    0.914859 0.427693 0.569147 0.228549
H24   H     H_    0.385638 0.608231 0.265918 0.168802
H25   H     H_    0.936232 0.361252 0.518000 0.219517
H26   H     H_    0.916949 0.647436 0.496320 0.220970
I1    I     I_    0.658726 0.379660 0.638905 -0.240491
I2    I     I_    0.403892 0.875244 0.397493 -0.159314
I3    I     I_    0.313305 0.261706 0.133837 -0.124753
I4    I     I_    0.341283 0.621556 0.763177 -0.215604
I5    I     I_    0.276388 0.298858 0.864683 -0.122328
I6    I     I_    0.643457 0.363231 0.358106 -0.274162
I7    I     I_    0.551628 0.785431 0.018194 -0.197108
I8    I     I_    0.105133 0.305173 0.546165 -0.221618
I9    I     I_    0.073038 0.701641 0.454850 -0.196570
I10   I     I_    0.304990 0.898204 0.498075 -0.175486
I11   I     I_    0.310729 0.122955 0.471888 -0.165910
I12   I     I_    0.514093 0.125996 0.611810 -0.155418
I13   I     I_    0.570743 0.893887 0.606121 -0.100260
I14   I     I_    0.450639 0.102664 0.386782 -0.228464
N1    N     N_R   0.468091 0.511881 0.201928 -0.341115
N2    N     N_R   0.493274 0.494340 0.799234 -0.340465
N3    N     N_1   0.498630 0.731150 0.499030 -0.054905
N4    N     N_1   0.498630 0.268850 0.499030 -0.065274
O1    O     O_R   0.377210 0.574260 0.500050 -0.580139
O2    O     O_2   0.394390 0.378922 0.794181 -0.486425
O3    O     O_2   0.540738 0.648832 0.201099 -0.514093
O4    O     O_2   0.593451 0.609262 0.799638 -0.542764
O5    O     O_2   0.612729 0.411976 0.201598 -0.542543
O6    O     O_2   0.715349 0.703341 0.901838 -0.513573
O7    O     O_2   0.163395 0.659976 0.556427 -0.503646
O8    O     O_2   0.016568 0.489572 0.622226 -0.552073
O9    O     O_2   0.052343 0.519672 0.366138 -0.498308
O10   O     O_2   0.015832 0.313282 0.432800 -0.506685
O11   O     O_2   0.702811 0.079925 0.424660 -0.521110
O12   O     O_R   0.377210 0.425740 0.500050 -0.612148
O13   O     O_2   0.611484 0.846511 0.409183 -0.514996
O14   O     O_2   0.686664 0.037782 0.555184 -0.522576
O15   O     O_2   0.670078 0.828328 0.514482 -0.545325
O16   O     O_2   0.332542 0.566800 0.609420 -0.554107
O17   O     O_R   0.500080 0.574220 0.428810 -0.606727
O18   O     O_R   0.500080 0.425780 0.428810 -0.596219
O19   O     O_R   0.622930 0.574200 0.500050 -0.585740
O20   O     O_R   0.622930 0.425800 0.500050 -0.609913
O21   O     O_R   0.500060 0.574240 0.571300 -0.602053
O22   O     O_R   0.500060 0.425760 0.571300 -0.589399
O23   O     O_2   0.389461 0.380093 0.206772 -0.505420
Zn1   Zn    Zn3+2 0.500090 0.599130 0.500070 1.086094
Zn2   Zn    Zn3+2 0.500090 0.400870 0.500070 1.047941

loop_
_geom_bond_atom_site_label_1
_geom_bond_atom_site_label_2
_ccdc_geom_bond_type
C44   C49   S    
C10   C27   A    
O20   Zn2   S    
C8    C13   A    
C22   C29   A    
C39   C65   S    
C70   H18   S    
C25   C67   A    
C62   H10   S    
O1    Zn1   S    
C62   O7    D    
C57   C58   A    
C7    C8    A    
C47   C49   S    
C38   H3    S    
C39   C64   S    
C12   C23   A    
C26   C27   A    
O19   Zn1   S    
C65   O10   D    
C51   C68   S    
C70   O15   D    
C37   C40   S    
C1    O12   A    
C61   H9    S    
C16   C35   S    
C66   H15   S    
C38   C39   S    
O22   Zn2   S    
C49   C54   S    
C18   C19   A    
C48   H5    S    
C52   C69   S    
C27   C61   S    
C24   H7    S    
C12   C59   A    
C42   N1    A    
O18   Zn2   S    
C71   H19   S    
C16   O20   A    
C45   C56   A    
C32   H25   S    
C8    C9    A    
C65   H14   S    
C51   C70   S    
C11   N2    A    
C9    C10   A    
C53   N3    T    
C59   C72   A    
C55   O3    S    
C30   I9    S    
C26   H20   S    
C48   C50   S    
C21   C22   A    
C17   C73   A    
C41   C43   T    
C36   C41   S    
C2    C6    A    
C28   O22   A    
C28   C73   S    
C33   H22   S    
C64   H13   S    
C13   O2    S    
C44   C46   S    
C17   C18   A    
C38   H2    S    
C3    C26   A    
C25   C29   A    
C46   I2    S    
C50   C53   S    
C42   O23   S    
C51   C52   S    
C47   C48   S    
C20   C24   A    
C28   O21   A    
C57   C60   S    
O12   Zn2   S    
C2    C20   A    
C33   C37   S    
C33   H26   S    
C42   C45   A    
C60   O5    D    
C5    C9    A    
C37   C38   S    
C31   C63   S    
C60   H8    S    
C31   C32   S    
C19   N2    S    
C69   O14   D    
C49   C52   S    
C25   H12   S    
C50   C51   S    
C34   C45   A    
C63   O8    D    
C32   C37   S    
C68   O13   D    
C59   H1    S    
C12   H24   S    
C13   N2    A    
C1    C43   S    
C4    O18   A    
C11   O4    S    
C48   I13   S    
C44   I14   S    
C64   O9    D    
C7    I5    S    
C30   C62   S    
C18   H21   S    
C29   I7    S    
C54   N4    T    
C2    C5    A    
C47   H4    S    
C69   H17   S    
C16   O19   A    
C4    C72   S    
C52   C66   S    
C4    O17   A    
C23   C57   A    
C30   C33   S    
C15   C73   A    
C14   C15   A    
C31   I8    S    
C14   C19   A    
C36   C39   S    
C3    C5    A    
O21   Zn1   S    
C34   C67   A    
C71   O16   D    
C55   C67   A    
C6    C7    A    
C21   C34   A    
C55   N1    A    
C24   C56   A    
C15   C71   S    
C46   C50   S    
C30   C36   S    
C63   H11   S    
C61   O6    D    
C58   I6    S    
N4    Zn2   S    
C56   I3    S    
C32   H23   S    
C23   N1    S    
C58   C72   A    
C6    H6    S    
C47   I12   S    
C66   O11   D    
C35   C40   T    
C1    O1    A    
C17   I1    S    
C10   C11   A    
N3    Zn1   S    
C20   C21   A    
C46   I10   S    
C14   I4    S    
C31   C36   S    
C3    C22   A    
C68   H16   S    
O17   Zn1   S    
C44   I11   S    
