data_mof_unit_pretest_1694.cif
_audit_creation_date              2012-12-10T17:55:42-0500
_audit_creation_method            fapswitch 2.2
_symmetry_space_group_name_H-M    P1
_symmetry_Int_Tables_number       1
_space_group_crystal_system       triclinic
_cell_length_a                    21.629379
_cell_length_b                    21.629369
_cell_length_c                    23.54676
_cell_angle_alpha                 90.001372
_cell_angle_beta                  90.000948
_cell_angle_gamma                 89.999453
_cell_volume                      11015.8764785

loop_
_atom_site_label
_atom_site_type_symbol
_atom_type_description
_atom_site_fract_x
_atom_site_fract_y
_atom_site_fract_z
_atom_type_partial_charge
C1    C     C_R   0.119960 0.499999 0.999998 1.009503
C2    C     C_R   0.500000 1.000000 0.109373 0.944089
C3    C     C_3   0.113421 0.691958 0.404445 -0.279787
C4    C     C_3   0.692010 0.113401 0.595614 -0.279765
C5    C     C_3   0.886582 0.692002 0.595583 -0.279746
C6    C     C_3   0.308002 0.886559 0.595564 -0.279779
C7    C     C_3   0.113449 0.308025 0.595542 -0.279782
C8    C     C_R   0.000000 0.499999 0.890627 0.944130
C9    C     C_R   0.499999 0.000000 0.890627 0.944144
C10   C     C_R   0.500000 0.000001 0.609373 0.944146
C11   C     C_R   0.000000 0.500000 0.609373 0.944117
C12   C     C_R   0.500000 0.999999 0.390627 0.944128
C13   C     C_R   1.000000 0.500000 0.390627 0.944136
C14   C     C_1   0.999999 0.500002 0.169588 -0.153034
C15   C     C_1   0.500001 0.999999 0.169588 -0.153009
C16   C     C_1   0.000001 0.499998 0.830412 -0.153035
C17   C     C_R   0.500001 0.880040 0.000008 1.009546
C18   C     C_1   0.499999 0.000001 0.830412 -0.153031
C19   C     C_1   0.499999 0.000002 0.669588 -0.153045
C20   C     C_1   0.000001 0.499999 0.669588 -0.153034
C21   C     C_1   0.500001 0.999998 0.330412 -0.153033
C22   C     C_1   0.999999 0.500001 0.330412 -0.153038
C23   C     C_1   0.999999 0.500002 0.220362 0.015530
C24   C     C_1   0.500002 0.999998 0.220362 0.015530
C25   C     C_1   0.000001 0.499998 0.779638 0.015528
C26   C     C_1   0.499999 0.000002 0.779638 0.015518
C27   C     C_1   0.499999 0.000002 0.720362 0.015521
C28   C     C_R   0.880039 0.500000 0.000002 1.009483
C29   C     C_1   0.000002 0.499998 0.720362 0.015528
C30   C     C_1   0.500001 0.999998 0.279638 0.015532
C31   C     C_1   0.999999 0.500002 0.279638 0.015529
C32   C     C_R   0.217152 0.473454 0.954005 0.461614
C33   C     C_R   0.473459 0.782855 0.954007 0.461752
C34   C     C_R   0.782848 0.526555 0.954013 0.461676
C35   C     C_R   0.526537 0.217149 0.954003 0.461644
C36   C     C_R   0.217150 0.526544 0.045993 0.461667
C37   C     C_R   0.473459 0.217152 0.045995 0.461640
C38   C     C_R   0.782848 0.473446 0.045990 0.461621
C39   C     C_R   0.500000 0.119960 1.000000 1.009492
C40   C     C_R   0.526545 0.782848 0.045998 0.461551
C41   C     C_R   0.717151 0.973458 0.454003 0.461625
C42   C     C_R   0.973441 0.282850 0.454015 0.461695
C43   C     C_R   0.282846 0.026562 0.454015 0.461629
C44   C     C_R   0.026545 0.717151 0.454006 0.461626
C45   C     C_R   0.717151 0.026540 0.545996 0.461655
C46   C     C_R   0.973452 0.717152 0.545991 0.461656
C47   C     C_R   0.282849 0.973440 0.545987 0.461672
C48   C     C_R   0.026561 0.282847 0.545989 0.461603
C49   C     C_R   0.281278 0.475581 0.953416 -0.283103
C50   C     C_R   0.619960 1.000000 0.499999 1.009510
C51   C     C_R   0.475585 0.718724 0.953416 -0.283350
C52   C     C_R   0.718721 0.524429 0.953423 -0.283155
C53   C     C_R   0.524410 0.281276 0.953413 -0.283130
C54   C     C_R   0.281278 0.524419 0.046582 -0.283155
C55   C     C_R   0.475586 0.281279 0.046584 -0.283126
C56   C     C_R   0.718722 0.475573 0.046579 -0.283087
C57   C     C_R   0.524415 0.718722 0.046586 -0.283100
C58   C     C_R   0.781278 0.975586 0.453414 -0.283102
C59   C     C_R   0.975567 0.218721 0.453424 -0.283212
C60   C     C_R   0.218719 0.024436 0.453425 -0.283078
C61   C     C_R   0.000001 0.380039 0.500004 1.009499
C62   C     C_R   0.024419 0.781277 0.453417 -0.283084
C63   C     C_R   0.781278 0.024415 0.546585 -0.283131
C64   C     C_R   0.975579 0.781279 0.546580 -0.283123
C65   C     C_R   0.218722 0.975567 0.546577 -0.283128
C66   C     C_R   0.024432 0.218721 0.546578 -0.283096
C67   C     C_R   0.312966 0.500001 0.999999 -0.171339
C68   C     C_R   0.499999 0.687035 0.000001 -0.171254
C69   C     C_R   0.687033 0.500001 0.000001 -0.171342
C70   C     C_R   0.499998 0.312966 0.999999 -0.171341
C71   C     C_R   0.812966 0.000001 0.499999 -0.171350
C72   C     C_R   0.380039 0.000000 0.499999 1.009470
C73   C     C_R   0.999999 0.187034 0.500001 -0.171308
C74   C     C_R   0.187033 0.000001 0.500001 -0.171352
C75   C     C_R   0.999999 0.812966 0.499999 -0.171360
C76   C     C_R   0.499999 0.620730 0.000000 0.934671
C77   C     C_R   0.620730 0.500000 0.000000 0.934673
C78   C     C_R   0.500000 0.379270 0.999999 0.934674
C79   C     C_R   0.379270 0.500000 1.000000 0.934674
C80   C     C_R   0.999999 0.120730 0.500000 0.934663
C81   C     C_R   0.120730 0.000000 0.500000 0.934664
C82   C     C_R   1.000000 0.879270 0.499999 0.934668
C83   C     C_R   1.000000 0.619960 0.499998 1.009485
C84   C     C_R   0.879270 0.000000 0.500000 0.934667
C85   C     C_R   0.185797 0.499998 0.999999 -0.243867
C86   C     C_R   0.500003 0.814203 0.000004 -0.243765
C87   C     C_R   0.814203 0.500000 0.000002 -0.243890
C88   C     C_R   0.499999 0.185797 0.999999 -0.243856
C89   C     C_R   0.685797 0.999999 0.499999 -0.243878
C90   C     C_R   0.000002 0.314202 0.500003 -0.243862
C91   C     C_R   0.314202 0.000001 0.500000 -0.243922
C92   C     C_R   0.999999 0.685797 0.499998 -0.243897
C93   C     C_3   0.191974 0.386581 0.904428 -0.279791
C94   C     C_R   1.000000 0.500001 0.109373 0.944130
C95   C     C_3   0.386631 0.807781 0.904215 -0.279583
C96   C     C_3   0.807971 0.613428 0.904406 -0.279732
C97   C     C_3   0.613398 0.192005 0.904389 -0.279746
C98   C     C_3   0.192035 0.613406 0.095624 -0.279726
C99   C     C_3   0.386601 0.192013 0.095612 -0.279763
C100  C     C_3   0.808035 0.386560 0.095539 -0.279786
C101  C     C_3   0.613414 0.808008 0.095589 -0.279775
C102  C     C_3   0.691980 0.886591 0.404414 -0.279791
C103  C     C_3   0.886570 0.307915 0.404370 -0.279643
C104  C     C_3   0.308037 0.113458 0.404481 -0.279772
H1    H     H_    0.306188 0.457610 0.917068 0.177688
H2    H     H_    0.957591 0.193808 0.417080 0.177630
H3    H     H_    0.193808 0.042420 0.417083 0.177693
H4    H     H_    0.042391 0.806186 0.417070 0.177696
H5    H     H_    0.806189 0.042380 0.582934 0.177674
H6    H     H_    0.957608 0.806191 0.582927 0.177678
H7    H     H_    0.193812 0.957585 0.582920 0.177670
H8    H     H_    0.042414 0.193811 0.582921 0.177685
H9    H     H_    0.179688 0.363584 0.945238 0.161738
H10   H     H_    0.239792 0.374049 0.891523 0.152826
H11   H     H_    0.160152 0.368503 0.871425 0.192445
H12   H     H_    0.457631 0.693808 0.917066 0.177569
H13   H     H_    0.363426 0.819522 0.945074 0.161258
H14   H     H_    0.374391 0.760034 0.890837 0.152990
H15   H     H_    0.368504 0.839866 0.871446 0.192452
H16   H     H_    0.820142 0.636463 0.945232 0.161629
H17   H     H_    0.760166 0.625901 0.891401 0.152845
H18   H     H_    0.839849 0.631520 0.871456 0.192443
H19   H     H_    0.636432 0.179800 0.945209 0.161655
H20   H     H_    0.625888 0.239814 0.891409 0.152838
H21   H     H_    0.631476 0.160138 0.871420 0.192446
H22   H     H_    0.179884 0.636455 0.054800 0.161616
H23   H     H_    0.693809 0.542404 0.917078 0.177658
H24   H     H_    0.239835 0.625865 0.108649 0.152867
H25   H     H_    0.160145 0.631495 0.128568 0.192446
H26   H     H_    0.363567 0.179806 0.054796 0.161664
H27   H     H_    0.374113 0.239820 0.108589 0.152851
H28   H     H_    0.368522 0.160152 0.128582 0.192449
H29   H     H_    0.820341 0.363579 0.054725 0.161750
H30   H     H_    0.760215 0.374015 0.108426 0.152813
H31   H     H_    0.839849 0.368477 0.128546 0.192438
H32   H     H_    0.636425 0.820259 0.054775 0.161698
H33   H     H_    0.625927 0.760194 0.108526 0.152841
H34   H     H_    0.542374 0.306186 0.917063 0.177674
H35   H     H_    0.631493 0.839850 0.128578 0.192446
H36   H     H_    0.679711 0.863585 0.445225 0.161719
H37   H     H_    0.739795 0.874069 0.391493 0.152835
H38   H     H_    0.660148 0.868515 0.371418 0.192443
H39   H     H_    0.863493 0.319950 0.445215 0.161500
H40   H     H_    0.874165 0.260128 0.391248 0.152895
H41   H     H_    0.868458 0.339864 0.371482 0.192445
H42   H     H_    0.320356 0.136428 0.445299 0.161751
H43   H     H_    0.260215 0.126014 0.391606 0.152799
H44   H     H_    0.339844 0.131544 0.371471 0.192434
H45   H     H_    0.306190 0.542387 0.082931 0.177659
H46   H     H_    0.136408 0.679641 0.445255 0.161753
H47   H     H_    0.125969 0.739781 0.391565 0.152809
H48   H     H_    0.131495 0.660147 0.371430 0.192441
H49   H     H_    0.679804 0.136435 0.554798 0.161663
H50   H     H_    0.739818 0.125888 0.608593 0.152845
H51   H     H_    0.660149 0.131480 0.628585 0.192442
H52   H     H_    0.863564 0.679771 0.554763 0.161676
H53   H     H_    0.874080 0.739815 0.608540 0.152835
H54   H     H_    0.868500 0.660149 0.628560 0.192442
H55   H     H_    0.320236 0.863550 0.554745 0.161690
H56   H     H_    0.457622 0.306192 0.082933 0.177676
H57   H     H_    0.260191 0.874054 0.608511 0.152828
H58   H     H_    0.339848 0.868468 0.628542 0.192427
H59   H     H_    0.136433 0.320319 0.554727 0.161734
H60   H     H_    0.125986 0.260206 0.608438 0.152818
H61   H     H_    0.131536 0.339844 0.628545 0.192440
H62   H     H_    0.693812 0.457594 0.082923 0.177691
H63   H     H_    0.542382 0.693811 0.082935 0.177684
H64   H     H_    0.806188 0.957618 0.417065 0.177688
O1    O     O_R   0.091600 0.551710 0.999990 -0.623178
O2    O     O_R   0.051710 0.408400 0.499990 -0.623275
O3    O     O_R   0.408400 0.948290 0.499990 -0.623206
O4    O     O_R   0.948290 0.591600 0.499990 -0.623218
O5    O     O_R   0.591600 0.948290 0.500010 -0.623256
O6    O     O_R   0.051710 0.591600 0.500010 -0.623275
O7    O     O_R   0.408400 0.051710 0.500010 -0.623264
O8    O     O_R   0.948290 0.408400 0.500010 -0.623106
O9    O     O_R   0.999980 0.551710 0.082770 -0.618263
O10   O     O_R   0.551710 0.000020 0.082770 -0.618278
O11   O     O_R   0.000020 0.448290 0.082770 -0.618268
O12   O     O_R   0.551710 0.908400 0.999990 -0.623304
O13   O     O_R   0.448290 0.999980 0.082770 -0.618281
O14   O     O_R   0.999980 0.448290 0.917230 -0.618272
O15   O     O_R   0.551710 0.999980 0.917230 -0.618276
O16   O     O_R   0.000020 0.551710 0.917230 -0.618259
O17   O     O_R   0.448290 0.000020 0.917230 -0.618233
O18   O     O_R   0.499980 0.051710 0.582770 -0.618269
O19   O     O_R   0.051710 0.500020 0.582770 -0.618266
O20   O     O_R   0.500020 0.948290 0.582770 -0.618259
O21   O     O_R   0.948290 0.499980 0.582770 -0.618275
O22   O     O_R   0.499980 0.948290 0.417230 -0.618275
O23   O     O_R   0.908400 0.448290 0.999990 -0.623268
O24   O     O_R   0.051710 0.499980 0.417230 -0.618278
O25   O     O_R   0.500020 0.051710 0.417230 -0.618263
O26   O     O_R   0.948290 0.500020 0.417230 -0.618244
O27   O     O_R   0.499980 0.591700 0.953290 -0.628603
O28   O     O_R   0.591700 0.500020 0.953290 -0.628590
O29   O     O_R   0.500020 0.408300 0.953290 -0.628589
O30   O     O_R   0.408300 0.499980 0.953290 -0.628596
O31   O     O_R   0.499980 0.408300 0.046710 -0.628588
O32   O     O_R   0.591700 0.499980 0.046710 -0.628583
O33   O     O_R   0.500020 0.591700 0.046710 -0.628592
O34   O     O_R   0.448290 0.091600 0.999990 -0.623231
O35   O     O_R   0.408300 0.500020 0.046710 -0.628587
O36   O     O_R   0.999980 0.091700 0.453290 -0.628588
O37   O     O_R   0.091700 0.000020 0.453290 -0.628582
O38   O     O_R   0.000020 0.908300 0.453290 -0.628584
O39   O     O_R   0.908300 0.999980 0.453290 -0.628591
O40   O     O_R   0.999980 0.908300 0.546710 -0.628588
O41   O     O_R   0.091700 0.999980 0.546710 -0.628584
O42   O     O_R   0.000020 0.091700 0.546710 -0.628586
O43   O     O_R   0.908300 0.000020 0.546710 -0.628589
O44   O     O_3   0.184544 0.451273 0.907649 -0.605191
O45   O     O_R   0.091600 0.448290 0.000010 -0.623266
O46   O     O_3   0.451282 0.815492 0.907664 -0.605203
O47   O     O_3   0.815461 0.548743 0.907664 -0.605179
O48   O     O_3   0.548710 0.184535 0.907647 -0.605190
O49   O     O_3   0.184536 0.548724 0.092346 -0.605191
O50   O     O_3   0.451287 0.184542 0.092351 -0.605190
O51   O     O_3   0.815455 0.451255 0.092341 -0.605177
O52   O     O_3   0.548724 0.815456 0.092354 -0.605196
O53   O     O_3   0.684542 0.951282 0.407646 -0.605188
O54   O     O_3   0.951245 0.315470 0.407672 -0.605183
O55   O     O_3   0.315449 0.048759 0.407665 -0.605162
O56   O     O_R   0.551710 0.091600 0.000010 -0.623225
O57   O     O_3   0.048726 0.684544 0.407651 -0.605182
O58   O     O_3   0.684539 0.048714 0.592352 -0.605188
O59   O     O_3   0.951272 0.684543 0.592344 -0.605183
O60   O     O_3   0.315461 0.951248 0.592336 -0.605169
O61   O     O_3   0.048755 0.315454 0.592340 -0.605178
O62   O     O_R   0.908400 0.551710 0.000010 -0.623179
O63   O     O_R   0.448290 0.908400 0.000010 -0.622959
O64   O     O_R   0.591600 0.051710 0.499990 -0.623209
Zn1   Zn    Zn3+2 0.000000 0.569060 0.000000 0.973351
Zn2   Zn    Zn3+2 0.500000 0.500000 0.062400 0.949708
Zn3   Zn    Zn3+2 0.000000 0.000000 0.437600 0.949715
Zn4   Zn    Zn3+2 0.000000 0.000000 0.562400 0.949712
Zn5   Zn    Zn3+2 0.569060 0.000000 0.000000 0.973281
Zn6   Zn    Zn3+2 0.000000 0.430940 0.000000 0.973244
Zn7   Zn    Zn3+2 0.430940 0.000000 0.000000 0.973487
Zn8   Zn    Zn3+2 0.500000 0.069060 0.500000 0.973268
Zn9   Zn    Zn3+2 0.069060 0.500000 0.500000 0.973227
Zn10  Zn    Zn3+2 0.500000 0.930940 0.500000 0.973271
Zn11  Zn    Zn3+2 0.930940 0.500000 0.500000 0.973362
Zn12  Zn    Zn3+2 0.500000 0.500000 0.937600 0.949671

loop_
_geom_bond_atom_site_label_1
_geom_bond_atom_site_label_2
_ccdc_geom_bond_type
C41   C89   A    
O27   Zn12  S    
O29   Zn12  S    
C35   O48   S    
C35   C53   A    
C11   O21   A    
C12   O25   A    
C104  H44   S    
C37   C88   A    
C69   C77   S    
O11   Zn6   S    
C18   C26   T    
O19   Zn9   S    
C103  H40   S    
C82   O40   A    
C6    H55   S    
C17   O63   A    
C84   O43   A    
O39   Zn3   S    
C80   O36   A    
C95   H13   S    
C102  H38   S    
C83   C92   S    
O14   Zn6   S    
C3    H48   S    
C36   C54   A    
C96   O47   S    
O1    Zn1   S    
C96   H17   S    
O28   Zn12  S    
C50   O5    A    
C11   O19   A    
C39   C88   S    
C83   O6    A    
C81   O37   A    
C51   C68   A    
C77   O28   A    
O32   Zn2   S    
C4    H50   S    
O36   Zn3   S    
C9    O17   A    
C34   O47   S    
C103  O54   S    
C32   O44   S    
C93   H10   S    
C70   C78   S    
O7    Zn8   S    
O43   Zn4   S    
O62   Zn1   S    
O63   Zn7   S    
C93   H11   S    
C72   O7    A    
C40   C86   A    
C65   H7    S    
C17   C86   S    
C52   C69   A    
O2    Zn9   S    
O6    Zn9   S    
O20   Zn10  S    
O5    Zn10  S    
C64   C75   A    
C47   O60   S    
C6    H58   S    
C100  O51   S    
C84   O39   A    
C97   O48   S    
C6    O60   S    
O21   Zn11  S    
C10   O20   A    
C46   O59   S    
C99   O50   S    
C50   O64   A    
C40   C57   A    
C78   O29   A    
C4    O58   S    
C45   C89   A    
C44   O57   S    
C3    O57   S    
C104  O55   S    
C44   C92   A    
C100  H31   S    
C94   O11   A    
C8    O16   A    
O23   Zn6   S    
C98   H24   S    
C4    H49   S    
C7    H61   S    
C8    C16   S    
C79   O30   A    
C48   C90   A    
C40   O52   S    
C1    C85   S    
C104  H43   S    
C61   O8    A    
C37   O50   S    
C28   C87   S    
C53   C70   A    
C52   H23   S    
C100  H30   S    
C54   H45   S    
C20   C29   T    
C95   H14   S    
C101  H35   S    
O16   Zn1   S    
C11   C20   S    
C59   H2    S    
O26   Zn11  S    
C7    H60   S    
C53   H34   S    
C72   O3    A    
C104  H42   S    
O37   Zn3   S    
C67   C79   S    
C61   O2    A    
O4    Zn11  S    
O35   Zn2   S    
C97   H21   S    
O45   Zn6   S    
C22   C31   T    
O31   Zn2   S    
O34   Zn7   S    
C56   C69   A    
C72   C91   S    
C101  H33   S    
C76   O33   A    
C49   H1    S    
C54   C67   A    
C1    O1    A    
C44   C62   A    
C66   C73   A    
C7    H59   S    
C12   C21   S    
C45   C63   A    
C43   C91   A    
C65   C74   A    
C5    O59   S    
C46   C64   A    
O38   Zn3   S    
C42   C90   A    
C2    O13   A    
C23   C31   S    
C14   C23   T    
C63   H5    S    
C43   O55   S    
C33   C86   A    
C97   H20   S    
O25   Zn8   S    
C9    O15   A    
C76   O27   A    
C34   C87   A    
C35   C88   A    
C50   C89   S    
C64   H6    S    
C46   C92   A    
C6    H57   S    
C10   C19   S    
O56   Zn5   S    
C83   O4    A    
C93   O44   S    
C26   C27   S    
C38   C56   A    
C102  H36   S    
C2    C15   S    
C13   O24   A    
C60   H3    S    
C43   C60   A    
O8    Zn11  S    
O18   Zn8   S    
C48   O61   S    
C99   H28   S    
C17   O12   A    
C55   H56   S    
C102  H37   S    
C63   C71   A    
O22   Zn10  S    
C5    H53   S    
C13   O26   A    
O3    Zn10  S    
C1    O45   A    
C100  H29   S    
C39   O56   A    
C98   O49   S    
C68   C76   S    
C78   O31   A    
C57   C68   A    
C5    H54   S    
C28   O23   A    
C28   O62   A    
C82   O38   A    
C19   C27   T    
C61   C90   S    
C103  H41   S    
C80   O42   A    
C71   C84   S    
C7    O61   S    
C101  H32   S    
C8    O14   A    
C16   C25   T    
O40   Zn4   S    
C15   C24   T    
C3    H46   S    
O24   Zn9   S    
C49   C67   A    
C99   H26   S    
C47   C91   A    
C38   O51   S    
C96   H16   S    
C3    H47   S    
C103  H39   S    
C42   C59   A    
C41   C58   A    
O9    Zn1   S    
C33   O46   S    
C75   C82   S    
C57   H63   S    
C96   H18   S    
C36   C85   A    
C33   C51   A    
C5    H52   S    
C12   O22   A    
C21   C30   T    
C66   H8    S    
C34   C52   A    
C51   H12   S    
C99   H27   S    
C38   C87   A    
C79   O35   A    
O30   Zn12  S    
O41   Zn4   S    
C97   H19   S    
O15   Zn5   S    
C14   C94   S    
C101  O52   S    
C25   C29   S    
O33   Zn2   S    
O17   Zn7   S    
O12   Zn5   S    
O42   Zn4   S    
C32   C85   A    
C98   H25   S    
C60   C74   A    
C10   O18   A    
C73   C80   S    
C47   C65   A    
C13   C22   S    
C93   H9    S    
C45   O58   S    
C59   C73   A    
C62   C75   A    
C77   O32   A    
C24   C30   S    
C32   C49   A    
C55   C70   A    
C95   H15   S    
O13   Zn7   S    
C36   O49   S    
C37   C55   A    
C9    C18   S    
C98   H22   S    
C4    H51   S    
C62   H4    S    
C81   O41   A    
C39   O34   A    
C56   H62   S    
O64   Zn8   S    
C95   O46   S    
C58   C71   A    
C74   C81   S    
C2    O10   A    
C48   C66   A    
C42   O54   S    
C94   O9    A    
O10   Zn5   S    
C41   O53   S    
C102  O53   S    
C58   H64   S    
