data_mof_unit_pretest_120.cif
_audit_creation_date              2013-03-05T16:21:03-0500
_audit_creation_method            fapswitch 2.2
_symmetry_space_group_name_H-M    P1
_symmetry_Int_Tables_number       1
_space_group_crystal_system       triclinic
_cell_length_a                    8.309105
_cell_length_b                    18.675932
_cell_length_c                    19.084756
_cell_angle_alpha                 104.025541
_cell_angle_beta                  93.172708
_cell_angle_gamma                 90.888088
_cell_volume                      2867.6043923

loop_
_atom_site_label
_atom_site_type_symbol
_atom_site_description
_atom_site_fract_x
_atom_site_fract_y
_atom_site_fract_z
_atom_type_partial_charge
P1    P     P_3+3 0.941030 0.670050 0.569830 0.486292
O1    O     O_2   0.114280 0.679350 0.549180 -0.400027
O2    O     O_3   0.866400 0.589600 0.543550 -0.346379
O3    O     O_3   0.362150 0.623490 0.415650 -0.373133
O4    O     O_2   0.252120 0.754475 0.478059 -0.390804
O5    O     O_3   0.936040 0.701007 0.664139 -0.594252
O6    O     O_3   0.311875 0.739700 0.344093 -0.539100
H1    H     H_    0.313801 0.634650 0.278376 0.114215
C1    C     C_3   0.349578 0.716314 0.217244 -0.427872
H2    H     H_    0.219379 0.724998 0.206610 0.229926
P2    P     P_3+3 0.370400 0.428500 0.331430 0.458222
P3    P     P_3+3 0.918643 0.575067 0.285388 0.407190
O7    O     O_2   0.197490 0.449210 0.322030 -0.371244
O8    O     O_3   0.950520 0.583920 0.376610 -0.371423
O9    O     O_2   0.031548 0.514323 0.249862 -0.422897
O10   O     O_3   0.364066 0.332024 0.303739 -0.572101
O11   O     O_3   0.983349 0.657440 0.266240 -0.543498
C2    C     C_3   0.910801 0.715681 0.314423 0.509148
H3    H     H_    0.969833 0.724329 0.369700 0.137681
H4    H     H_    0.779617 0.704710 0.316678 -0.005470
C3    C     C_3   0.928661 0.786704 0.289652 -1.056487
H5    H     H_    0.057223 0.804533 0.293641 0.289575
H6    H     H_    0.879726 0.778210 0.232797 0.255765
C4    C     C_3   0.831368 0.356164 0.300415 0.330975
H7    H     H_    0.701457 0.367448 0.295421 0.080452
H8    H     H_    0.899219 0.407685 0.328530 0.128427
C5    C     C_3   0.895859 0.327913 0.225380 -0.419494
H9    H     H_    0.855730 0.269375 0.201979 0.206066
H10   H     H_    0.029836 0.328539 0.231836 0.185156
Ba1   Ba    Ba6+2 0.155460 0.532000 0.467920 1.576341
C6    C     C_3   0.045867 0.666709 0.702491 0.787435
H11   H     H_    0.129374 0.631128 0.667346 0.036297
C7    C     C_3   0.141459 0.727141 0.758818 -0.444720
H12   H     H_    0.216510 0.758009 0.729050 0.184645
H13   H     H_    0.221532 0.701765 0.794145 0.181679
C8    C     C_3   0.302050 0.302936 0.357940 0.451939
H14   H     H_    0.180700 0.324471 0.370220 0.082086
H15   H     H_    0.384478 0.316561 0.407494 0.119835
C9    C     C_3   0.287192 0.219393 0.330775 -1.049064
H16   H     H_    0.199049 0.204368 0.283279 0.270965
H17   H     H_    0.245461 0.194210 0.373796 0.220473
H18   H     H_    0.406241 0.196959 0.314624 0.264812
P4    P     P_3+3 0.869270 0.329940 0.430110 0.480051
O12   O     O_2   0.696020 0.320600 0.450800 -0.363782
O13   O     O_3   0.943900 0.410390 0.456390 -0.364770
O14   O     O_3   0.448150 0.376500 0.584290 -0.352606
O15   O     O_3   0.849000 0.299060 0.335732 -0.607289
P5    P     P_3+3 0.891231 0.410547 0.713276 0.561661
O16   O     O_3   0.365880 0.544470 0.588730 -0.329436
O17   O     O_3   0.859790 0.416060 0.623340 -0.257671
O18   O     O_2   0.763367 0.460869 0.754446 -0.375947
O19   O     O_3   0.835275 0.321059 0.717862 -0.473080
Ba2   Ba    Ba6+2 0.654730 0.467990 0.532020 1.645141
P6    P     P_3+3 0.378290 0.718949 0.425211 0.435115
C10   C     C_3   0.376491 0.689284 0.286468 0.398032
H19   H     H_    0.507708 0.682691 0.296505 -0.010119
H20   H     H_    0.385025 0.672732 0.171136 0.134743
O20   O     O_3   0.444420 0.455520 0.411210 -0.386864
C11   C     C_3   0.506366 0.697306 0.645674 0.418706
H21   H     H_    0.614660 0.667363 0.624523 0.131861
H22   H     H_    0.410254 0.689824 0.601537 0.106037
C12   C     C_3   0.552493 0.779103 0.671191 -0.987304
H23   H     H_    0.654118 0.787466 0.712949 0.293411
H24   H     H_    0.589851 0.800611 0.625111 0.220602
H25   H     H_    0.448442 0.810931 0.694554 0.240165
P7    P     P_3+3 0.433554 0.576127 0.679866 0.483326
O21   O     O_2   0.612810 0.550740 0.677950 -0.284262
O22   O     O_3   0.450238 0.672535 0.704050 -0.590331
H26   H     H_    0.861257 0.831029 0.324735 0.231050
C13   C     C_3   0.968702 0.275961 0.701374 0.215292
H27   H     H_    0.006569 0.275227 0.646212 0.033732
H28   H     H_    0.070411 0.296157 0.741881 -0.002809
C14   C     C_3   0.927695 0.196924 0.704857 0.665106
H29   H     H_    0.034868 0.162590 0.691301 -0.016369
P8    P     P_3+3 0.433720 0.281002 0.575232 0.501522
C15   C     C_3   0.429075 0.322322 0.713658 0.508903
H30   H     H_    0.300674 0.332673 0.702232 -0.036226
O23   O     O_2   0.572553 0.246469 0.529280 -0.342358
O24   O     O_3   0.482753 0.263895 0.659916 -0.466359
H31   H     H_    0.502668 0.373327 0.717073 0.134633
H32   H     H_    0.408984 0.348949 0.829802 0.204337
C16   C     C_3   0.446781 0.302413 0.786312 -0.881680
H33   H     H_    0.574528 0.290867 0.798575 0.315350
H34   H     H_    0.370302 0.252765 0.785090 0.254109
C17   C     C_R   0.999719 0.953226 0.532782 0.018242
C18   C     C_R   0.090676 0.908566 0.568848 0.120753
C19   C     C_R   0.243805 0.933824 0.600992 -0.178520
C20   C     C_R   0.306045 0.002841 0.597584 -0.156722
C21   C     C_R   0.214959 0.048703 0.563335 0.108220
C22   C     C_R   0.061055 0.023955 0.530851 0.024704
C23   C     C_R   0.274857 0.119107 0.562154 -0.220940
C24   C     C_R   0.181265 0.167090 0.531014 -0.059578
C25   C     C_R   0.026667 0.141945 0.497448 0.019909
C26   C     C_R   0.968131 0.069955 0.497004 0.017116
C27   C     C_R   0.236094 0.239791 0.532830 0.147878
C28   C     C_R   0.136649 0.285523 0.502731 -0.472654
C29   C     C_R   0.984176 0.262549 0.470130 0.268676
C30   C     C_R   0.929773 0.188671 0.464740 -0.022512
C31   C     C_R   0.846556 0.927772 0.499913 -0.005822
C32   C     C_R   0.788016 0.855745 0.499254 -0.009150
C33   C     C_R   0.883157 0.809350 0.532820 -0.053635
C34   C     C_R   0.028792 0.838978 0.571551 -0.115562
H35   H     H_    0.316328 0.899829 0.628203 0.132850
H36   H     H_    0.424931 0.020714 0.622522 0.173335
H37   H     H_    0.182585 0.339271 0.501220 0.203294
H38   H     H_    0.394121 0.136108 0.586523 0.221196
H39   H     H_    0.098403 0.808061 0.602862 0.153464
C35   C     C_R   0.781581 0.159957 0.428210 -0.137624
C36   C     C_R   0.720425 0.090361 0.430970 0.130751
C37   C     C_R   0.813969 0.044847 0.465010 0.043040
C38   C     C_R   0.752739 0.974163 0.467003 0.023885
C39   C     C_R   0.564846 0.066204 0.401420 -0.176084
C40   C     C_R   0.502712 0.997385 0.405197 -0.200052
C41   C     C_R   0.596656 0.950379 0.436759 0.130552
C42   C     C_R   0.633328 0.830820 0.466123 -0.023225
C43   C     C_R   0.537086 0.879959 0.437869 -0.236895
C44   C     C_R   0.580597 0.757343 0.462090 0.186525
C45   C     C_R   0.682141 0.710059 0.489065 -0.536382
C46   C     C_R   0.829769 0.734930 0.525990 0.264123
H40   H     H_    0.709722 0.191567 0.398447 0.165125
H41   H     H_    0.490041 0.101003 0.376231 0.131816
H42   H     H_    0.381412 0.980758 0.382825 0.131912
H43   H     H_    0.415852 0.863916 0.415888 0.180938
H44   H     H_    0.641143 0.653854 0.485032 0.179862
C47   C     C_R   0.342188 0.548249 0.812092 -0.334624
H45   H     H_    0.418126 0.596250 0.836553 0.169654
C48   C     C_R   0.315748 0.529960 0.736864 0.134340
C49   C     C_R   0.157832 0.448831 0.819007 -0.409112
H46   H     H_    0.104212 0.411496 0.847052 0.172222
C50   C     C_R   0.098719 0.446021 0.748278 0.177888
C51   C     C_R   0.645724 0.555896 0.190380 -0.343965
H47   H     H_    0.725671 0.582530 0.162628 0.152964
C52   C     C_R   0.710304 0.546701 0.256184 0.256498
C53   C     C_R   0.411040 0.483547 0.202041 -0.292521
H48   H     H_    0.302672 0.451477 0.180230 0.161726
C54   C     C_R   0.473681 0.478624 0.271892 0.308902
C55   C     C_R   0.276919 0.503001 0.854174 0.129639
C56   C     C_R   0.192792 0.478130 0.705146 0.187571
C57   C     C_R   0.490805 0.528214 0.161396 0.070247
C58   C     C_R   0.621622 0.512331 0.298413 -0.430676
H49   H     H_    0.672984 0.507762 0.350466 0.151017
C59   C     C_R   0.042695 0.501497 0.966874 -0.161154
C60   C     C_R   0.934661 0.489741 0.016024 -0.113814
C61   C     C_R   0.984089 0.503689 0.088192 -0.102603
C62   C     C_R   0.141291 0.527790 0.110823 -0.143658
C63   C     C_R   0.260254 0.523411 0.061451 0.051054
C64   C     C_R   0.210207 0.512102 0.986356 0.104761
C65   C     C_R   0.423040 0.540289 0.087272 -0.091621
C66   C     C_R   0.518488 0.567167 0.038697 0.096514
C67   C     C_R   0.485412 0.541062 0.962750 0.070760
C68   C     C_R   0.326263 0.515324 0.934573 -0.056289
C69   C     C_R   0.630666 0.627104 0.061562 -0.182532
C70   C     C_R   0.737760 0.644273 0.013849 -0.093369
C71   C     C_R   0.733378 0.602173 0.942823 -0.104644
C72   C     C_R   0.610851 0.548694 0.917944 -0.199274
H50   H     H_    0.989799 0.504430 0.915083 0.153498
H51   H     H_    0.809731 0.474998 0.999088 0.144511
H52   H     H_    0.898703 0.498346 0.126534 0.155328
H53   H     H_    0.170911 0.553211 0.166745 0.182901
H54   H     H_    0.631799 0.663224 0.115236 0.121332
H55   H     H_    0.826254 0.688954 0.032436 0.123831
H56   H     H_    0.821840 0.612297 0.906524 0.167476
H57   H     H_    0.609621 0.516979 0.862643 0.185818
N1    N     N_2   0.846640 0.373273 0.176736 -0.093494
H58   H     H_    0.936504 0.379713 0.143450 0.210806
C73   C     C_3   0.693673 0.352028 0.136343 -0.858237
H59   H     H_    0.661725 0.393448 0.105279 0.247219
H60   H     H_    0.596705 0.348971 0.173301 0.254660
H61   H     H_    0.702263 0.297450 0.097540 0.255310
Cl1   Cl    Cl    0.935833 0.611025 0.747842 -0.676155
N2    N     N_2   0.035247 0.778007 0.802892 -0.063217
H62   H     H_    0.959805 0.753579 0.832074 0.233044
C74   C     C_3   0.114186 0.844859 0.846471 -0.813121
H63   H     H_    0.022812 0.881567 0.875567 0.244569
H64   H     H_    0.176556 0.874901 0.811607 0.253576
H65   H     H_    0.202884 0.831432 0.886841 0.241095
N3    N     N_2   0.446344 0.782434 0.219860 -0.079965
H66   H     H_    0.563180 0.782817 0.241285 0.190771
C75   C     C_3   0.366657 0.852043 0.240087 -0.802735
H67   H     H_    0.451537 0.897786 0.237697 0.230875
H68   H     H_    0.326323 0.861174 0.295802 0.248764
H69   H     H_    0.260879 0.852617 0.202016 0.243145
Cl2   Cl    Cl    0.765289 0.157550 0.641887 -0.585935
Cl3   Cl    Cl    0.876178 0.194403 0.793675 -0.598959
Cl4   Cl    Cl    0.156376 0.450974 0.611546 -0.576677

loop_
_geom_bond_atom_site_label_1
_geom_bond_atom_site_label_2
_geom_bond_distance
_ccdc_geom_bond_type
P7    O22   1.748270 S    
C10   H19   1.110439 S    
C69   H54   1.080854 S    
C33   C34   1.413815 A    
C43   H43   1.078626 S    
C5    H10   1.112800 S    
C2    C3    1.520040 S    
P2    O7    1.506087 D    
C14   H29   1.110808 S    
C35   H40   1.078705 S    
Ba1   O13   2.808554 S    
C27   C28   1.396185 A    
C15   O24   1.401723 S    
O6    C10   1.401209 S    
C54   C58   1.384289 A    
C49   H46   1.081121 S    
C29   C30   1.423146 A    
P8    C27   1.858913 S    
C9    H17   1.108664 S    
C5    N1    1.447980 S    
C17   C18   1.407433 A    
P7    C48   1.852345 S    
N2    C74   1.446263 S    
C25   C26   1.420569 A    
N1    H58   1.030688 S    
C4    H8    1.109524 S    
C2    H3    1.112332 S    
C62   C63   1.392797 A    
C73   H61   1.111166 S    
C62   H53   1.070853 S    
O16   Ba2   2.935373 S    
C42   C43   1.409723 A    
C30   C35   1.411777 A    
C35   C36   1.402154 A    
P1    O1    1.531672 D    
P1    C46   1.861029 S    
C45   C46   1.394648 A    
C24   C25   1.423172 A    
C12   H24   1.108469 S    
C37   C38   1.417245 A    
C66   C67   1.422427 A    
O12   Ba2   2.849114 S    
P4    Ba2   3.421027 S    
P5    O18   1.547512 D    
C40   H42   1.083043 S    
C31   C32   1.420241 A    
P2    Ba1   3.448589 S    
C42   C44   1.416831 A    
P3    O11   1.748685 S    
C6    C7    1.532943 S    
C60   H51   1.081066 S    
C13   H27   1.112337 S    
C1    C10   1.531100 S    
C48   C56   1.401450 A    
C21   C23   1.404422 A    
P2    O20   1.570183 S    
C1    H2    1.111289 S    
C2    H4    1.111089 S    
C75   H69   1.110815 S    
P5    O17   1.749795 S    
P7    O21   1.569760 D    
O13   Ba2   2.953833 S    
C11   H21   1.109839 S    
C3    H5    1.107019 S    
C73   H60   1.109481 S    
C39   C40   1.397173 A    
C23   H38   1.080186 S    
P5    C50   1.865492 S    
C32   C42   1.420339 A    
O8    Ba1   2.723691 S    
H1    C10   1.111083 S    
O14   P8    1.751229 S    
C20   H36   1.083752 S    
C22   C26   1.409195 A    
C9    H18   1.110423 S    
C63   C65   1.417545 A    
C15   H30   1.106468 S    
C74   H64   1.111837 S    
Ba1   Ba2   4.520664 S    
C57   C65   1.561886 S    
C11   H22   1.109888 S    
O17   Ba2   2.724513 S    
C13   H28   1.109312 S    
O16   P7    1.753261 S    
C63   C64   1.433911 A    
P1    O5    1.755017 S    
C33   C46   1.425537 A    
C15   H31   1.110407 S    
O7    Ba1   2.881408 S    
C56   Cl4   1.742430 S    
C51   C57   1.411443 A    
C4    H7    1.106387 S    
C36   C37   1.407465 A    
C36   C39   1.403789 A    
C15   C16   1.520362 S    
C23   C24   1.410525 A    
C14   Cl3   1.782443 S    
C18   C19   1.404453 A    
C53   C54   1.428490 A    
C72   H57   1.077221 S    
C74   H63   1.110432 S    
C26   C37   1.410517 A    
C24   C27   1.417222 A    
H32   C16   1.109298 S    
C70   H55   1.082343 S    
P1    O2    1.570018 S    
O2    Ba1   2.953062 S    
C64   C68   1.429237 A    
P4    O12   1.532050 D    
C12   H23   1.110679 S    
C17   C31   1.409772 A    
C11   O22   1.404779 S    
P2    O10   1.749537 S    
O4    P6    1.539725 D    
C6    H11   1.105749 S    
P3    O9    1.535380 D    
Ba2   O20   2.775791 S    
C4    C5    1.530903 S    
C31   C38   1.408310 A    
C28   C29   1.393837 A    
C13   C14   1.527680 S    
O11   C2    1.410298 S    
C34   H39   1.079055 S    
C45   H44   1.081966 S    
C58   H49   1.082387 S    
P4    O13   1.570021 S    
N2    H62   1.031592 S    
C71   C72   1.394493 A    
C52   C58   1.380707 A    
C49   C55   1.421059 A    
C19   H35   1.083027 S    
Ba1   O16   2.776324 S    
P3    O8    1.713610 S    
N3    H66   1.031560 S    
C16   H34   1.110733 S    
C67   C72   1.411044 A    
C3    H6    1.110659 S    
C50   C56   1.394330 A    
C73   H59   1.109757 S    
C66   C69   1.413539 A    
C61   H52   1.067454 S    
C51   H47   1.060949 S    
C18   C34   1.403838 A    
C53   C57   1.445779 A    
C1    N3    1.452137 S    
C28   H37   1.075877 S    
C40   C41   1.402964 A    
C74   H65   1.111826 S    
C8    H14   1.107441 S    
C11   C12   1.522594 S    
C12   H25   1.108943 S    
O3    P6    1.749799 S    
C67   C68   1.430117 A    
C4    O15   1.398376 S    
C59   C64   1.418894 A    
C71   H56   1.082353 S    
C8    C9    1.520932 S    
P4    C29   1.871214 S    
C61   C62   1.385789 A    
C51   C52   1.388318 A    
C49   C50   1.399132 A    
C41   C43   1.403427 A    
C17   C22   1.418004 A    
C53   H48   1.078772 S    
C6    Cl1   1.777901 S    
O1    Ba1   2.848584 S    
C47   C55   1.419915 A    
N1    C73   1.447366 S    
C21   C22   1.410088 A    
C39   H41   1.081986 S    
P2    C54   1.871494 S    
O10   C8    1.397636 S    
O2    Ba2   2.809114 S    
C47   H45   1.080152 S    
P4    O15   1.750755 S    
N3    C75   1.445410 S    
C14   Cl2   1.779716 S    
Ba1   O20   2.936146 S    
O14   Ba2   2.790304 S    
C8    H15   1.111085 S    
P1    Ba1   3.420511 S    
C7    H13   1.112129 S    
C7    H12   1.109413 S    
O5    C6    1.396518 S    
C38   C41   1.409765 A    
C1    H20   1.101154 S    
C65   C66   1.426526 A    
Ba2   O21   2.881659 S    
P8    O23   1.541653 D    
O19   C13   1.405923 S    
C75   H67   1.110437 S    
C9    H16   1.110693 S    
P5    O19   1.751654 S    
C20   C21   1.403686 A    
C19   C20   1.398845 A    
C16   H33   1.109975 S    
P6    C44   1.849942 S    
C3    H26   1.111063 S    
C5    H9    1.114174 S    
C47   C48   1.396875 A    
C59   C60   1.385939 A    
C55   C68   1.526989 S    
C32   C33   1.421370 A    
C69   C70   1.395060 A    
O6    P6    1.747663 S    
C59   H50   1.073333 S    
C70   C71   1.390685 A    
C44   C45   1.397187 A    
P8    O24   1.749714 S    
C25   C30   1.424616 A    
O3    Ba1   2.790878 S    
P3    C52   1.819254 S    
C60   C61   1.376104 A    
C75   H68   1.106963 S    
C7    N2    1.452462 S    
