data_mof_unit_pretest_1684.cif
_audit_creation_date              2012-12-10T19:20:40-0500
_audit_creation_method            fapswitch 2.2
_symmetry_space_group_name_H-M    P1
_symmetry_Int_Tables_number       1
_space_group_crystal_system       triclinic
_cell_length_a                    15.995719
_cell_length_b                    14.782923
_cell_length_c                    17.760812
_cell_angle_alpha                 89.950351
_cell_angle_beta                  89.992865
_cell_angle_gamma                 90.000287
_cell_volume                      4199.78184471

loop_
_atom_site_label
_atom_site_type_symbol
_atom_type_description
_atom_site_fract_x
_atom_site_fract_y
_atom_site_fract_z
_atom_type_partial_charge
C1    C     C_R   0.340858 0.500000 0.500013 0.825652
C2    C     C_R   0.659141 0.500000 0.499987 0.825118
C3    C     C_1   0.823318 0.500000 0.499988 -0.047071
C4    C     C_1   0.176678 0.500000 0.500011 -0.045167
C5    C     C_1   0.251731 0.499999 0.500013 -0.128843
C6    C     C_1   0.748266 0.500000 0.499986 -0.132154
C7    C     C_R   0.501512 0.952049 0.568822 0.401368
C8    C     C_R   0.498526 0.047950 0.431177 0.401513
C9    C     C_R   0.498397 0.952184 0.431179 0.402589
C10   C     C_R   0.501379 0.047814 0.568824 0.402598
C11   C     C_R   0.499964 0.902670 0.500001 -0.353884
C12   C     C_R   0.499962 0.097328 0.499999 -0.353803
C13   C     C_1   0.499986 0.802467 0.500001 0.192425
C14   C     C_1   0.499985 0.197533 0.499999 0.192606
C15   C     C_R   0.500064 0.500057 0.355208 0.934161
C16   C     C_R   0.500067 0.499943 0.644792 0.934119
C17   C     C_R   0.543412 0.569736 0.846442 0.274528
C18   C     C_R   0.543434 0.430301 0.153546 0.274557
C19   C     C_R   0.461600 0.569810 0.152417 0.279147
C20   C     C_R   0.461637 0.430187 0.847598 0.279160
C21   C     C_R   0.543845 0.568896 0.766741 0.237784
C22   C     C_R   0.543865 0.431134 0.233247 0.237747
C23   C     C_R   0.461438 0.570876 0.232130 0.234572
C24   C     C_R   0.461476 0.429112 0.767885 0.234526
C25   C     C_R   0.500719 0.499953 0.727875 -0.197997
C26   C     C_R   0.500712 0.500051 0.272127 -0.197999
C27   C     C_R   0.504479 0.499044 0.885562 -0.064271
C28   C     C_R   0.504472 0.500978 0.114439 -0.064281
C29   C     C_1   0.504708 0.499734 0.966260 0.214108
C30   C     C_1   0.504706 0.500296 0.033742 0.214111
C31   C     C_R   0.956372 0.581960 0.503991 -0.156453
C32   C     C_R   0.043623 0.418040 0.496008 -0.155728
C33   C     C_R   0.043623 0.581961 0.503996 -0.155724
C34   C     C_R   0.956372 0.418040 0.496000 -0.156444
C35   C     C_R   0.912778 0.500000 0.499992 0.143480
C36   C     C_R   0.087217 0.500000 0.500005 0.143533
Cu1   Cu    Cu3+1 0.500000 0.589220 0.500000 1.042047
Cu2   Cu    Cu3+1 0.500000 0.410780 0.500000 1.042080
H1    H     H_    0.077020 0.645619 0.507100 0.151420
H2    H     H_    0.922975 0.354382 0.492894 0.151265
H3    H     H_    0.922974 0.645618 0.507092 0.151265
H4    H     H_    0.077021 0.354382 0.492908 0.151425
N1    N     N_1   0.500000 0.276710 0.500000 -0.141319
N2    N     N_1   0.500000 0.723290 0.500000 -0.141316
O1    O     O_R   0.380310 0.575320 0.500010 -0.570819
O2    O     O_R   0.619690 0.424680 0.499990 -0.570721
O3    O     O_R   0.619690 0.575320 0.499990 -0.570743
O4    O     O_R   0.380310 0.424680 0.500010 -0.570838
O5    O     O_R   0.500000 0.575370 0.391250 -0.544805
O6    O     O_R   0.500000 0.424630 0.608750 -0.544787
O7    O     O_R   0.500000 0.575370 0.608750 -0.541732
O8    O     O_R   0.500000 0.424630 0.391250 -0.541743
O9    O     O_3   0.578700 0.639245 0.887637 -0.697581
H5    H     H_    0.576859 0.695441 0.857297 0.354404
O10   O     O_3   0.578753 0.360816 0.112339 -0.697603
H6    H     H_    0.576934 0.304614 0.142674 0.354327
O11   O     O_3   0.418689 0.633104 0.110054 -0.697276
H7    H     H_    0.370378 0.655396 0.139533 0.348324
O12   O     O_3   0.418753 0.366876 0.889974 -0.697295
H8    H     H_    0.370445 0.344567 0.860510 0.348234
O13   O     O_3   0.588789 0.631630 0.725535 -0.703039
H9    H     H_    0.637087 0.652370 0.755819 0.343751
O14   O     O_3   0.588835 0.368419 0.274440 -0.702883
H10   H     H_    0.637142 0.347706 0.244144 0.343634
O15   O     O_3   0.423575 0.639732 0.272149 -0.703175
H11   H     H_    0.427843 0.696458 0.242688 0.350504
O16   O     O_3   0.423642 0.360231 0.727881 -0.703052
H12   H     H_    0.427935 0.303513 0.757348 0.350449
O17   O     O_3   0.502739 0.089691 0.638540 -0.641893
H13   H     H_    0.502034 0.156190 0.632891 0.334626
O18   O     O_3   0.496736 0.910306 0.361468 -0.641931
H14   H     H_    0.496322 0.843807 0.367137 0.334843
O19   O     O_3   0.497140 0.089966 0.361460 -0.638347
H15   H     H_    0.497726 0.156452 0.367113 0.339339
O20   O     O_3   0.503150 0.910032 0.638534 -0.638327
H16   H     H_    0.503469 0.843545 0.632865 0.339704

loop_
_geom_bond_atom_site_label_1
_geom_bond_atom_site_label_2
_ccdc_geom_bond_type
C7    C10   A    
O10   H6    S    
C4    C36   S    
C27   C29   S    
O19   H15   S    
C16   O7    A    
C3    C6    T    
O9    H5    S    
C2    O2    A    
C7    C11   A    
C33   H1    S    
C1    C5    S    
C32   C36   A    
Cu1   Cu2   S    
C16   O6    A    
Cu1   O7    S    
Cu2   O8    S    
C33   C36   A    
C34   C35   A    
C23   C26   A    
C24   O16   S    
C22   O14   S    
C19   O11   S    
C20   C24   A    
C8    C9    A    
C31   C33   A    
Cu1   O3    S    
Cu2   O4    S    
O13   H9    S    
O12   H8    S    
C2    C6    S    
O16   H12   S    
C17   C27   A    
C18   C28   A    
C24   C25   A    
C15   C26   S    
C7    O20   S    
C17   C21   A    
C32   C34   A    
C19   C23   A    
O20   H16   S    
C29   C30   T    
Cu1   O5    S    
C3    C35   S    
C8    C12   A    
C15   O8    A    
C20   O12   S    
C19   C28   A    
C9    C11   A    
C10   C12   A    
C18   O10   S    
C12   C14   S    
C31   C35   A    
Cu1   O1    S    
C17   O9    S    
C16   C25   S    
C21   C25   A    
C31   H3    S    
C18   C22   A    
C21   O13   S    
C9    O18   S    
C4    C5    T    
C1    O4    A    
Cu2   O6    S    
C20   C27   A    
C2    O3    A    
C23   O15   S    
Cu1   N2    S    
C28   C30   S    
O18   H14   S    
C11   C13   S    
C1    O1    A    
O11   H7    S    
C8    O19   S    
C15   O5    A    
O17   H13   S    
Cu2   O2    S    
O14   H10   S    
C10   O17   S    
Cu2   N1    S    
O15   H11   S    
C22   C26   A    
C32   H4    S    
C34   H2    S    
C13   N2    T    
C14   N1    T    
