data_mof_unit_pretest_3.cif
_audit_creation_date              2012-12-10T18:31:48-0500
_audit_creation_method            fapswitch 2.2
_symmetry_space_group_name_H-M    P1
_symmetry_Int_Tables_number       1
_space_group_crystal_system       triclinic
_cell_length_a                    10.696906
_cell_length_b                    14.872744
_cell_length_c                    15.381956
_cell_angle_alpha                 82.207387
_cell_angle_beta                  89.41704
_cell_angle_gamma                 104.114987
_cell_volume                      2348.96920323

loop_
_atom_site_label
_atom_site_type_symbol
_atom_type_description
_atom_site_fract_x
_atom_site_fract_y
_atom_site_fract_z
_atom_type_partial_charge
C1    C     C_R   0.487552 0.441762 0.662357 0.934837
C2    C     C_3   0.121141 0.500974 0.496400 -0.211800
C3    C     C_3   0.105323 0.594493 0.444533 -0.367349
C4    C     C_3   0.061439 0.487402 0.593423 0.242846
C5    C     C_R   0.503357 0.407894 0.754374 -0.056042
C6    C     C_R   0.559661 0.593727 0.244895 -0.140601
C7    C     C_R   0.507293 0.284718 0.873703 -0.143000
C8    C     C_R   0.485518 0.312543 0.785964 -0.157407
C9    C     C_R   0.547280 0.474661 0.809870 -0.247625
C10   C     C_R   0.573513 0.448776 0.896882 0.100740
C11   C     C_R   0.548088 0.352145 0.929906 0.155227
C12   C     C_R   0.742358 0.501569 0.496862 0.881197
C13   C     C_R   0.613368 0.516882 0.953473 0.077565
C14   C     C_R   0.601820 0.487572 0.044750 0.103431
C15   C     C_R   0.584063 0.390995 0.076178 -0.198068
C16   C     C_R   0.560212 0.324493 0.018991 -0.194137
C17   C     C_R   0.661100 0.613200 0.922116 -0.216005
C18   C     C_R   0.680208 0.679710 0.979134 -0.098747
C19   C     C_R   0.646419 0.652940 0.068844 0.001607
C20   C     C_R   0.605095 0.555690 0.101294 0.056983
C21   C     C_R   0.649649 0.720036 0.126956 0.446425
C22   C     C_R   0.606964 0.689237 0.214805 -0.232703
C23   C     C_R   0.523315 0.558479 0.337440 0.955142
C24   C     C_R   0.557682 0.528520 0.187926 -0.247973
C25   C     C_R   0.708316 0.842966 0.632004 0.412237
C26   C     C_R   0.663122 0.751355 0.613338 -0.082282
C27   C     C_R   0.523721 0.798072 0.508199 -0.008233
C28   C     C_R   0.572804 0.893337 0.516681 -0.120141
C29   C     C_R   0.666144 0.916588 0.581313 -0.016537
C30   C     C_R   0.525739 0.964763 0.466049 -0.020222
C31   C     C_R   0.549864 0.054410 0.493830 -0.001734
C32   C     C_R   0.646729 0.077275 0.553999 -0.319672
C33   C     C_R   0.710755 0.012176 0.593215 0.431095
C34   C     C_R   0.257697 0.500064 0.498895 1.001721
C35   C     C_R   0.454398 0.950334 0.388977 0.419014
C36   C     C_R   0.384587 0.013741 0.355421 -0.165187
C37   C     C_R   0.394796 0.097107 0.389609 0.059670
C38   C     C_R   0.480348 0.119896 0.457468 0.031228
C39   C     C_R   0.325554 0.160534 0.352981 -0.255999
C40   C     C_R   0.343626 0.246755 0.382555 0.041789
C41   C     C_R   0.491700 0.207778 0.486046 -0.017496
C42   C     C_3   0.898745 0.413466 0.459847 -0.542111
C43   C     C_3   0.042919 0.418531 0.449009 0.267180
C44   C     C_3   0.960976 0.592369 0.437820 0.271011
C45   C     C_3   0.922675 0.499277 0.590666 -0.409605
C46   C     C_3   0.878787 0.502331 0.495730 -0.014617
H1    H     H_    0.849225 0.404806 0.397197 0.250351
H2    H     H_    0.155307 0.654879 0.476666 0.249017
H3    H     H_    0.544820 0.251036 0.045232 0.166374
H4    H     H_    0.514384 0.455805 0.211567 0.170785
H5    H     H_    0.610352 0.739563 0.259897 0.215486
H6    H     H_    0.716044 0.752243 0.950972 0.229142
H7    H     H_    0.489884 0.210669 0.898023 0.167119
H8    H     H_    0.454017 0.259848 0.743332 0.174336
H9    H     H_    0.555578 0.547326 0.785208 0.158315
H10   H     H_    0.852392 0.349724 0.506761 0.182990
H11   H     H_    0.590319 0.365354 0.144725 0.159207
H12   H     H_    0.686972 0.638764 0.853572 0.147346
H13   H     H_    0.552513 0.230963 0.538032 0.128778
H14   H     H_    0.294917 0.297835 0.352345 0.196711
H15   H     H_    0.327128 0.999789 0.298821 0.184847
H16   H     H_    0.698302 0.694680 0.647865 0.134402
H17   H     H_    0.445082 0.774595 0.466859 0.187907
H18   H     H_    0.058343 0.351126 0.482524 0.111962
H19   H     H_    0.679107 0.147681 0.568560 0.177955
H20   H     H_    0.260879 0.144642 0.300304 0.171866
H21   H     H_    0.933012 0.589750 0.368396 0.141318
H22   H     H_    0.151700 0.607151 0.377553 0.207172
H23   H     H_    0.915241 0.564897 0.615236 0.264726
H24   H     H_    0.857899 0.440049 0.634494 0.153151
H25   H     H_    0.056058 0.413732 0.622587 0.119891
N1    N     N_R   0.573860 0.731700 0.552730 -0.115347
N2    N     N_R   0.426060 0.268290 0.447230 -0.115348
O1    O     O_R   0.462770 0.383110 0.605620 -0.626230
O2    O     O_R   0.510160 0.531900 0.639510 -0.604641
O3    O     O_R   0.661510 0.425600 0.483070 -0.650784
O4    O     O_R   0.708900 0.574390 0.516960 -0.572118
O5    O     O_R   0.489840 0.468100 0.360490 -0.605783
O6    O     O_R   0.537230 0.616890 0.394380 -0.627104
O7    O     O_R   0.291100 0.425610 0.483040 -0.597499
O8    O     O_R   0.338490 0.574400 0.516930 -0.565227
Zn1   Zn    Zn3+2 0.468350 0.400660 0.477370 0.976655
Zn2   Zn    Zn3+2 0.531650 0.599340 0.522630 1.014366
S1    S     S_3+6 0.148846 0.558215 0.670936 0.045668
O9    O     O_2   0.206018 0.657467 0.629436 -0.270825
O10   O     O_2   0.058392 0.558786 0.746263 -0.273998
O11   O     O_3   0.266094 0.510164 0.711552 -0.562931
H26   H     H_    0.303730 0.548247 0.757328 0.385982
O12   O     O_3   0.938970 0.674170 0.464712 -0.724384
H27   H     H_    0.972399 0.725956 0.416006 0.347179
S2    S     S_3+6 0.704370 0.842351 0.092781 0.038626
O13   O     O_2   0.840688 0.864383 0.055623 -0.268125
O14   O     O_2   0.619254 0.872001 0.023098 -0.267398
O15   O     O_3   0.699938 0.901870 0.177833 -0.557048
H28   H     H_    0.728080 0.968783 0.152248 0.398317
S3    S     S_3+6 0.848520 0.057470 0.652685 0.096331
O16   O     O_2   0.815093 0.032829 0.749538 -0.159292
O17   O     O_2   0.958320 0.016747 0.630190 -0.231562
O18   O     O_3   0.896951 0.174892 0.628796 -0.566623
H29   H     H_    0.931865 0.186922 0.567267 0.341827
O19   O     O_3   0.788040 0.859520 0.701078 -0.656470
H30   H     H_    0.805068 0.799912 0.729360 0.334789
O20   O     O_3   0.461023 0.881349 0.338897 -0.752069
H31   H     H_    0.548528 0.870178 0.343751 0.349737
S4    S     S_3+6 0.086670 0.424548 0.333211 -0.005257
O21   O     O_2   0.056176 0.326464 0.310848 -0.302626
O22   O     O_2   0.010516 0.480208 0.276346 -0.306323
O23   O     O_3   0.243842 0.474301 0.310056 -0.583246
H32   H     H_    0.257987 0.468280 0.247588 0.381973

loop_
_geom_bond_atom_site_label_1
_geom_bond_atom_site_label_2
_ccdc_geom_bond_type
O11   H26   S    
O19   H30   S    
C40   H14   S    
C26   N1    A    
C19   C20   A    
S1    O11   S    
O2    Zn2   S    
C18   H6    S    
C7    C8    A    
C45   C46   S    
O23   H32   S    
C7    C11   A    
S4    O22   D    
C30   C35   A    
C1    C5    S    
C1    O1    A    
C36   C37   A    
C19   C21   A    
C3    H22   S    
S1    O10   D    
C35   O20   S    
C42   C46   S    
C30   C31   A    
O4    Zn2   S    
C15   C16   A    
C6    C22   A    
S3    O18   S    
C29   C33   A    
C3    H2    S    
C40   N2    A    
C18   C19   A    
C43   S4    S    
C42   H10   S    
C20   C24   A    
S3    O17   D    
C9    H9    S    
C34   O8    A    
C9    C10   A    
C17   H12   S    
C34   O7    A    
C2    C34   S    
C21   C22   A    
C12   O4    A    
C25   C29   A    
C15   H11   S    
O1    Zn1   S    
O8    Zn2   S    
C44   C46   S    
C43   H18   S    
C4    C45   S    
C24   H4    S    
S4    O23   S    
C3    C44   S    
C45   H23   S    
C1    O2    A    
C14   C20   A    
C16   H3    S    
C41   H13   S    
C38   C41   A    
O7    Zn1   S    
O3    Zn1   S    
C39   C40   A    
C25   C26   A    
C35   C36   A    
C2    C4    S    
C5    C9    A    
C37   C38   A    
S2    O14   D    
C11   C16   A    
O5    Zn1   S    
C31   C32   A    
C4    S1    S    
C2    C43   S    
C6    C24   A    
S3    O16   D    
C17   C18   A    
S1    O9    D    
C27   H17   S    
C12   C46   S    
C12   O3    A    
C39   H20   S    
C42   C43   S    
C7    H7    S    
C8    H8    S    
C36   H15   S    
C33   S3    S    
N2    Zn1   S    
S2    O13   D    
C21   S2    S    
C28   C29   A    
C45   H24   S    
C10   C13   A    
C5    C8    A    
S4    O21   D    
C31   C38   A    
C13   C17   A    
C32   C33   A    
C28   C30   A    
C2    C3    S    
C26   H16   S    
C37   C39   A    
O18   H29   S    
S2    O15   S    
O6    Zn2   S    
C25   O19   S    
C6    C23   S    
C42   H1    S    
C23   O5    A    
O15   H28   S    
N1    Zn2   S    
C10   C11   A    
C44   O12   S    
C41   N2    A    
O20   H31   S    
C14   C15   A    
C32   H19   S    
C44   H21   S    
C23   O6    A    
O12   H27   S    
C13   C14   A    
C4    H25   S    
C27   N1    A    
C22   H5    S    
C27   C28   A    
