data_mof_unit_pretest_1426.cif
_audit_creation_date              2012-12-10T19:42:53-0500
_audit_creation_method            fapswitch 2.2
_symmetry_space_group_name_H-M    P1
_symmetry_Int_Tables_number       1
_space_group_crystal_system       triclinic
_cell_length_a                    10.790073
_cell_length_b                    13.04499
_cell_length_c                    11.666043
_cell_angle_alpha                 98.885634
_cell_angle_beta                  93.959432
_cell_angle_gamma                 90.769773
_cell_volume                      1618.00688177

loop_
_atom_site_label
_atom_site_type_symbol
_atom_type_description
_atom_site_fract_x
_atom_site_fract_y
_atom_site_fract_z
_atom_type_partial_charge
C1    C     C_R   0.495767 0.299832 0.479842 0.800782
C2    C     C_R   0.504209 0.700168 0.520154 0.800645
C3    C     C_R   0.871529 0.496403 0.499896 -0.083799
C4    C     C_R   0.128479 0.503670 0.500128 -0.083782
C5    C     C_R   0.943489 0.448404 0.581378 0.023080
C6    C     C_R   0.056518 0.551631 0.418615 0.023090
C7    C     C_R   0.498760 0.812078 0.529217 -0.074151
C8    C     C_R   0.501179 0.187918 0.470758 -0.074115
C9    C     C_R   0.608678 0.034938 0.394284 -0.229364
C10   C     C_R   0.391241 0.965053 0.605660 -0.229170
C11   C     C_R   0.585939 0.138882 0.397280 -0.258968
C12   C     C_R   0.413980 0.861109 0.602676 -0.258962
C13   C     C_R   0.433147 0.131918 0.541139 0.089682
C14   C     C_R   0.566780 0.868076 0.458817 0.089648
C15   C     C_R   0.455406 0.024526 0.537020 0.109632
C16   C     C_R   0.544514 0.975467 0.462928 0.109531
C17   C     C_R   0.360661 0.425490 0.026024 -0.350994
C18   C     C_R   0.639326 0.574512 0.973976 -0.351060
C19   C     C_R   0.377063 0.429285 0.147224 0.119538
C20   C     C_R   0.622919 0.570724 0.852777 0.119432
C21   C     C_R   0.564654 0.527057 0.154274 0.003216
C22   C     C_R   0.435355 0.472933 0.845724 0.003314
C23   C     C_R   0.262332 0.501946 0.500190 0.788126
C24   C     C_R   0.737671 0.498083 0.499814 0.788203
C25   C     C_R   0.551861 0.525593 0.032405 0.068818
C26   C     C_R   0.448141 0.474399 0.967593 0.068788
C27   C     C_R   0.238888 0.758477 0.303995 -0.115947
C28   C     C_R   0.761207 0.241103 0.695290 -0.115954
C29   C     C_R   0.179207 0.703591 0.378889 -0.178821
C30   C     C_R   0.820967 0.296199 0.620634 -0.179174
C31   C     C_R   0.113260 0.610493 0.335438 0.113312
C32   C     C_R   0.886730 0.389318 0.664351 0.113327
C33   C     C_R   0.106901 0.572798 0.214545 0.226108
C34   C     C_R   0.892828 0.426822 0.785274 0.226205
C35   C     C_R   0.167484 0.629115 0.140370 -0.127926
C36   C     C_R   0.832098 0.370330 0.859203 -0.127779
C37   C     C_R   0.233376 0.721123 0.185060 -0.164853
C38   C     C_R   0.766413 0.278292 0.814252 -0.164860
C39   C     C_R   0.928074 0.547266 0.419456 -0.243757
C40   C     C_R   0.071933 0.452816 0.580580 -0.243693
Cu1   Cu    Cu3+1 0.509250 0.507730 0.615930 0.938909
Cu2   Cu    Cu3+1 0.490750 0.492270 0.384070 0.938877
H1    H     H_    0.280463 0.763457 0.127317 0.135775
H2    H     H_    0.719243 0.235794 0.871801 0.135739
H3    H     H_    0.355972 0.433715 0.795094 0.125736
H4    H     H_    0.644045 0.566275 0.204905 0.125767
H5    H     H_    0.691101 0.608362 0.808669 0.130126
H6    H     H_    0.308862 0.391662 0.191334 0.130143
H7    H     H_    0.279809 0.385226 0.978721 0.135338
H8    H     H_    0.720163 0.614790 0.021284 0.135368
H9    H     H_    0.290111 0.829787 0.338299 0.149206
H10   H     H_    0.710155 0.169763 0.660782 0.149270
H11   H     H_    0.185387 0.733023 0.471204 0.118618
H12   H     H_    0.814990 0.266910 0.528290 0.118680
H13   H     H_    0.164852 0.601395 0.047802 0.136957
H14   H     H_    0.834499 0.397916 0.951784 0.136922
H15   H     H_    0.872061 0.586080 0.359068 0.141933
H16   H     H_    0.127941 0.413979 0.640951 0.141928
H17   H     H_    0.360688 0.817380 0.655034 0.159697
H18   H     H_    0.639229 0.182609 0.344922 0.159736
H19   H     H_    0.678429 0.003326 0.337836 0.161269
H20   H     H_    0.321488 0.996663 0.662095 0.161192
N1    N     N_R   0.523180 0.519350 0.790130 -0.178168
N2    N     N_R   0.476820 0.480650 0.209870 -0.178177
O1    O     O_R   0.506570 0.354460 0.582000 -0.567693
O2    O     O_R   0.493430 0.645540 0.418000 -0.567785
O3    O     O_R   0.490940 0.341410 0.386200 -0.588371
O4    O     O_R   0.509060 0.658590 0.613800 -0.588359
O5    O     O_R   0.327460 0.506540 0.597900 -0.595703
O6    O     O_R   0.672540 0.493460 0.402100 -0.595701
O7    O     O_R   0.311830 0.493480 0.402100 -0.581108
O8    O     O_R   0.688170 0.506520 0.597900 -0.581089
C41   C     C_3   0.039924 0.472046 0.164607 -0.940616
H21   H     H_    0.074996 0.408907 0.210936 0.241696
H22   H     H_    0.938693 0.479739 0.173851 0.234314
H23   H     H_    0.054458 0.449333 0.070926 0.229292
C42   C     C_3   0.959691 0.527524 0.835479 -0.940259
H24   H     H_    0.924769 0.590744 0.789146 0.241645
H25   H     H_    0.944855 0.550133 0.929157 0.229243
H26   H     H_    0.060995 0.519807 0.826451 0.234121
C43   C     C_3   0.663597 0.814056 0.382470 -0.402041
C44   C     C_3   0.614619 0.791409 0.254551 -0.815388
H27   H     H_    0.687467 0.752727 0.201863 0.223370
H28   H     H_    0.530642 0.739931 0.244023 0.273609
H29   H     H_    0.589289 0.863331 0.219825 0.241618
H30   H     H_    0.751047 0.861343 0.392223 0.184339
H31   H     H_    0.693085 0.740164 0.410682 0.193668
C45   C     C_3   0.336365 0.185944 0.617485 -0.402273
C46   C     C_3   0.385349 0.208609 0.745371 -0.815641
H32   H     H_    0.410369 0.136689 0.780153 0.241668
H33   H     H_    0.469476 0.259890 0.755870 0.273701
H34   H     H_    0.312639 0.247503 0.798011 0.223387
H35   H     H_    0.306894 0.259834 0.589270 0.193733
H36   H     H_    0.248927 0.138669 0.607760 0.184436

loop_
_geom_bond_atom_site_label_1
_geom_bond_atom_site_label_2
_ccdc_geom_bond_type
C8    C13   A    
C27   C29   A    
C1    C8    S    
Cu1   Cu2   S    
C23   O5    A    
C2    C7    S    
C43   C44   S    
C24   O6    A    
C42   H24   S    
C30   H12   S    
C24   O8    A    
C9    H19   S    
C17   C26   A    
C35   C37   A    
C9    C16   A    
C2    O4    A    
C10   C15   A    
C34   C42   S    
C15   C16   A    
C39   H15   S    
Cu2   O6    S    
C41   H21   S    
C21   N2    A    
C33   C35   A    
C22   N1    A    
C12   H17   S    
C7    C14   A    
C4    C40   A    
C1    O1    A    
C31   C33   A    
C46   H33   S    
C34   C36   A    
C43   H30   S    
C5    C32   S    
C6    C31   S    
C3    C39   A    
C41   H22   S    
C3    C24   S    
C10   H20   S    
C18   C25   A    
C27   H9    S    
Cu1   O4    S    
C42   H25   S    
C7    C12   A    
C45   H36   S    
C40   H16   S    
C35   H13   S    
C23   O7    A    
C4    C6    A    
C17   H7    S    
C4    C23   S    
C19   H6    S    
Cu1   O1    S    
C3    C5    A    
C25   C26   A    
C32   C34   A    
C37   H1    S    
C38   H2    S    
C36   H14   S    
C28   C38   A    
C19   N2    A    
C46   H34   S    
C9    C11   A    
C43   H31   S    
C10   C12   A    
Cu1   O8    S    
C33   C41   S    
C44   H28   S    
C13   C15   A    
Cu2   O3    S    
C41   H23   S    
C14   C16   A    
Cu1   N1    S    
C11   H18   S    
Cu2   N2    S    
C18   H8    S    
Cu1   O5    S    
C21   H4    S    
C42   H26   S    
C21   C25   A    
C45   H35   S    
C2    O2    A    
C1    O3    A    
C44   H29   S    
C20   N1    A    
C36   C38   A    
C29   C31   A    
C30   C32   A    
C28   H10   S    
C29   H11   S    
C27   C37   A    
C8    C11   A    
C13   C45   S    
C28   C30   A    
Cu2   O7    S    
C17   C19   A    
C18   C20   A    
C20   H5    S    
C22   H3    S    
C45   C46   S    
C44   H27   S    
C22   C26   A    
C5    C40   A    
Cu2   O2    S    
C6    C39   A    
C14   C43   S    
C46   H32   S    
