data_mof_unit_pretest_1356.cif
_audit_creation_date              2012-12-10T17:14:40-0500
_audit_creation_method            fapswitch 2.2
_symmetry_space_group_name_H-M    P1
_symmetry_Int_Tables_number       1
_space_group_crystal_system       triclinic
_cell_length_a                    10.647033
_cell_length_b                    12.999907
_cell_length_c                    11.839836
_cell_angle_alpha                 99.759617
_cell_angle_beta                  93.725161
_cell_angle_gamma                 93.450886
_cell_volume                      1607.39787887

loop_
_atom_site_label
_atom_site_type_symbol
_atom_type_description
_atom_site_fract_x
_atom_site_fract_y
_atom_site_fract_z
_atom_type_partial_charge
C1    C     C_R   0.498396 0.299384 0.478643 0.791149
C2    C     C_R   0.501604 0.700616 0.521356 0.791145
C3    C     C_R   0.493845 0.138895 0.564409 -0.248181
C4    C     C_R   0.506155 0.861105 0.435591 -0.248186
C5    C     C_R   0.496211 0.030975 0.554617 0.165660
C6    C     C_R   0.503789 0.969025 0.445383 0.165661
C7    C     C_R   0.396348 0.388372 0.020297 -0.270530
C8    C     C_R   0.603652 0.611628 0.979702 -0.270536
C9    C     C_R   0.400642 0.400679 0.140926 0.306513
C10   C     C_R   0.599358 0.599321 0.859074 0.306522
C11   C     C_R   0.543356 0.551409 0.156304 0.533512
C12   C     C_R   0.456645 0.448591 0.843696 0.533512
C13   C     C_R   0.536291 0.541394 0.034363 -0.052355
C14   C     C_R   0.463709 0.458606 0.965637 -0.052359
C15   C     C_R   0.259713 0.499674 0.499944 0.810627
C16   C     C_R   0.740287 0.500326 0.500056 0.810628
C17   C     C_3   0.039360 0.417468 0.545547 -0.289069
C18   C     C_3   0.960639 0.582532 0.454453 -0.289151
C19   C     C_3   0.946301 0.409378 0.436876 -0.281949
C20   C     C_3   0.053699 0.590622 0.563124 -0.282029
C21   C     C_3   0.876951 0.500192 0.500130 -0.057358
C22   C     C_3   0.123049 0.499808 0.499870 -0.057356
C23   C     C_3   0.968729 0.508090 0.606321 0.494569
C24   C     C_3   0.031270 0.491910 0.393679 0.494560
C25   C     C_R   0.500866 0.814151 0.533479 -0.047362
C26   C     C_R   0.499134 0.185849 0.466521 -0.047365
C27   C     C_R   0.508879 0.015938 0.347649 -0.204255
C28   C     C_R   0.491121 0.984062 0.652351 -0.204253
C29   C     C_R   0.506646 0.123943 0.358177 -0.199542
C30   C     C_R   0.493354 0.876057 0.641823 -0.199544
Cu1   Cu    Cu3+1 0.509400 0.507730 0.615930 0.953557
Cu2   Cu    Cu3+1 0.490600 0.492270 0.384070 0.953555
H1    H     H_    0.900539 0.336580 0.383659 0.157063
H2    H     H_    0.099462 0.663420 0.616341 0.157053
H3    H     H_    0.073707 0.351587 0.584709 0.159146
H4    H     H_    0.926293 0.648413 0.415292 0.159138
H5    H     H_    0.512119 0.813941 0.351575 0.189819
H6    H     H_    0.487881 0.186059 0.648425 0.189823
H7    H     H_    0.488074 0.841100 0.718261 0.160202
H8    H     H_    0.511926 0.158900 0.281739 0.160204
H9    H     H_    0.514934 0.969260 0.263422 0.144793
H10   H     H_    0.485066 0.030740 0.736578 0.144794
H11   H     H_    0.337505 0.323841 0.969376 0.204116
H12   H     H_    0.662495 0.676159 0.030624 0.204114
N1    N     N_R   0.523540 0.519360 0.790140 -0.221097
N2    N     N_R   0.476460 0.480640 0.209860 -0.221099
O1    O     O_R   0.506670 0.354460 0.582000 -0.577609
O2    O     O_R   0.493330 0.645540 0.418000 -0.577621
O3    O     O_R   0.490800 0.341410 0.386200 -0.600812
O4    O     O_R   0.509200 0.658590 0.613800 -0.600812
O5    O     O_R   0.324790 0.506500 0.597880 -0.623427
O6    O     O_R   0.675210 0.493500 0.402120 -0.623426
O7    O     O_R   0.308910 0.493440 0.402080 -0.541494
O8    O     O_R   0.691090 0.506560 0.597920 -0.541493
O9    O     O_3   0.932264 0.516627 0.718665 -0.715317
H13   H     H_    0.011929 0.521066 0.768018 0.319777
O10   O     O_3   0.067735 0.483369 0.281334 -0.715323
H14   H     H_    0.988076 0.479058 0.231997 0.319789
O11   O     O_3   0.382705 0.364701 0.781975 -0.772469
H15   H     H_    0.350198 0.383570 0.709635 0.362963
O12   O     O_3   0.617297 0.635298 0.218024 -0.772477
H16   H     H_    0.649795 0.616433 0.290370 0.362964
C31   C     C_3   0.683051 0.678288 0.813917 -0.719534
H17   H     H_    0.779100 0.683750 0.858236 0.212153
H18   H     H_    0.696987 0.660346 0.722437 0.273866
H19   H     H_    0.644610 0.756343 0.832623 0.182960
C32   C     C_3   0.316949 0.321713 0.186083 -0.719512
H20   H     H_    0.220899 0.316251 0.141765 0.212172
H21   H     H_    0.355388 0.243657 0.167376 0.182954
H22   H     H_    0.303013 0.339654 0.277562 0.273867

loop_
_geom_bond_atom_site_label_1
_geom_bond_atom_site_label_2
_ccdc_geom_bond_type
O9    H13   S    
C9    C32   S    
C16   C21   S    
C23   O9    S    
C8    C13   A    
C12   N1    A    
C15   O5    A    
C27   C29   A    
C18   C21   S    
C11   C13   A    
C27   H9    S    
C18   C20   S    
C17   C22   S    
C20   C23   S    
C3    C5    A    
C32   H22   S    
C20   H2    S    
O12   H16   S    
C10   N1    A    
C31   H18   S    
C4    C25   A    
C31   H19   S    
O11   H15   S    
C16   O8    A    
Cu1   O1    S    
C13   C14   A    
Cu2   O2    S    
C8    H12   S    
O10   H14   S    
C17   C23   S    
Cu2   N2    S    
C11   O12   S    
C32   H20   S    
C18   C24   S    
C5    C6    A    
C15   O7    A    
C29   H8    S    
C28   C30   A    
Cu1   O5    S    
C17   C19   S    
C12   C14   A    
C30   H7    S    
C19   C24   S    
C2    C25   S    
C7    H11   S    
C15   C22   S    
Cu1   O8    S    
C19   H1    S    
C1    C26   S    
Cu1   Cu2   S    
C22   C24   S    
Cu2   O3    S    
C4    C6    A    
Cu2   O6    S    
Cu1   O4    S    
C31   H17   S    
C5    C28   A    
C16   O6    A    
Cu2   O7    S    
C9    N2    A    
C17   H3    S    
C4    H5    S    
C26   C29   A    
C8    C10   A    
Cu1   N1    S    
C28   H10   S    
C25   C30   A    
C7    C9    A    
C1    O1    A    
C11   N2    A    
C2    O4    A    
C2    O2    A    
C19   C21   S    
C12   O11   S    
C18   H4    S    
C21   C23   S    
C10   C31   S    
C3    C26   A    
C7    C14   A    
C6    C27   A    
C3    H6    S    
C20   C22   S    
C24   O10   S    
C32   H21   S    
C1    O3    A    
