data_mof_unit_pretest_1615.cif
_audit_creation_date              2013-03-05T16:32:48-0500
_audit_creation_method            fapswitch 2.2
_symmetry_space_group_name_H-M    P1
_symmetry_Int_Tables_number       1
_space_group_crystal_system       triclinic
_cell_length_a                    35.688701
_cell_length_b                    35.687969
_cell_length_c                    38.837407
_cell_angle_alpha                 90.014722
_cell_angle_beta                  90.001113
_cell_angle_gamma                 90.144789
_cell_volume                      49465.3856034

loop_
_atom_site_label
_atom_site_type_symbol
_atom_site_description
_atom_site_fract_x
_atom_site_fract_y
_atom_site_fract_z
_atom_type_partial_charge
O1    O     O_R   0.054320 0.468590 0.500060 -0.555734
O2    O     O_R   0.468590 0.945680 0.500060 -0.555834
O3    O     O_R   0.945680 0.531410 0.500060 -0.555716
O4    O     O_R   0.531410 0.054320 0.500060 -0.555836
O5    O     O_R   0.054320 0.531410 0.499940 -0.555838
O6    O     O_R   0.468590 0.054320 0.499940 -0.555732
O7    O     O_R   0.945680 0.468590 0.499940 -0.555838
O8    O     O_R   0.531410 0.945680 0.499940 -0.555732
O9    O     O_R   0.554320 0.968590 0.000060 -0.556098
O10   O     O_R   0.968590 0.445680 0.000060 -0.556176
O11   O     O_R   0.445680 0.031410 0.000060 -0.556054
O12   O     O_R   0.031410 0.554320 0.000060 -0.556361
O13   O     O_R   0.554320 0.031410 0.999940 -0.556181
O14   O     O_R   0.968590 0.554320 0.999940 -0.555665
O15   O     O_R   0.445680 0.968590 0.999940 -0.556184
O16   O     O_R   0.031410 0.445680 0.999940 -0.556064
C1    C     C_R   0.072205 0.500055 0.500005 0.910870
C2    C     C_R   0.499945 0.927795 0.499995 0.910869
C3    C     C_R   0.927795 0.499945 0.500004 0.910877
C4    C     C_R   0.500055 0.072205 0.499995 0.910873
C5    C     C_R   0.572191 0.000041 0.999995 0.911517
C6    C     C_R   0.999959 0.427809 0.000007 0.911484
C7    C     C_R   0.427808 0.999959 0.999995 0.911477
C8    C     C_R   0.000041 0.572195 0.000029 0.911293
O17   O     O_R   0.999950 0.468590 0.450130 -0.572815
O18   O     O_R   0.468590 0.000050 0.450130 -0.573143
O19   O     O_R   0.000050 0.531410 0.450130 -0.572804
O20   O     O_R   0.531410 0.999950 0.450130 -0.573116
O21   O     O_R   0.999950 0.531410 0.549870 -0.573123
O22   O     O_R   0.468590 0.999950 0.549870 -0.572820
O23   O     O_R   0.000050 0.468590 0.549870 -0.573127
O24   O     O_R   0.531410 0.000050 0.549870 -0.572789
O25   O     O_R   0.499950 0.968590 0.950130 -0.573073
O26   O     O_R   0.968590 0.500050 0.950130 -0.573063
O27   O     O_R   0.500050 0.031410 0.950130 -0.573061
O28   O     O_R   0.031410 0.499950 0.950130 -0.573175
O29   O     O_R   0.499950 0.031410 0.049870 -0.573175
O30   O     O_R   0.968590 0.499950 0.049870 -0.572999
O31   O     O_R   0.500050 0.968590 0.049870 -0.573170
O32   O     O_R   0.031410 0.500050 0.049870 -0.573140
C9    C     C_R   0.000001 0.499996 0.433649 0.851996
C10   C     C_R   0.500000 1.000000 0.433650 0.852324
C11   C     C_R   0.000001 0.500004 0.566351 0.852324
C12   C     C_R   0.500000 0.000000 0.566350 0.852004
C13   C     C_R   0.500001 0.999996 0.933649 0.852883
C14   C     C_R   1.000000 0.500002 0.933650 0.852898
C15   C     C_R   0.500001 0.000004 0.066351 0.853020
C16   C     C_R   0.000000 0.500000 0.066351 0.852722
Cu1   Cu    Cu3+1 1.000000 0.462790 0.500000 1.108874
Cu2   Cu    Cu3+1 0.462790 1.000000 0.500000 1.108871
Cu3   Cu    Cu3+1 1.000000 0.537210 0.500000 1.108912
Cu4   Cu    Cu3+1 0.537210 1.000000 0.500000 1.108884
Cu5   Cu    Cu3+1 0.500000 0.962790 0.000000 1.107847
Cu6   Cu    Cu3+1 0.962790 0.500000 0.000000 1.108357
Cu7   Cu    Cu3+1 0.500000 0.037210 0.000000 1.107898
Cu8   Cu    Cu3+1 0.037210 0.500000 0.000000 1.107700
Cu9   Cu    Cu3+1 0.500000 0.500000 0.465840 1.094409
Cu10  Cu    Cu3+1 0.500000 0.500000 0.534160 1.094478
Cu11  Cu    Cu3+1 0.000000 1.000000 0.965840 1.086036
Cu12  Cu    Cu3+1 0.000000 0.000000 0.034160 1.087024
C17   C     C_R   0.012314 0.531634 0.377354 -0.119080
C18   C     C_R   0.531602 0.987738 0.377347 -0.119630
C19   C     C_R   0.987700 0.468336 0.377345 -0.119063
C20   C     C_R   0.468399 0.012274 0.377353 -0.119654
C21   C     C_R   0.012272 0.468413 0.622646 -0.119645
C22   C     C_R   0.531651 0.012300 0.622653 -0.119036
C23   C     C_R   0.987738 0.531617 0.622654 -0.119605
C24   C     C_R   0.468355 0.987685 0.622647 -0.119074
C25   C     C_R   0.512316 0.031633 0.877355 -0.119107
C26   C     C_R   0.031598 0.487732 0.877347 -0.119299
C27   C     C_R   0.487696 0.968338 0.877345 -0.119127
C28   C     C_R   0.968403 0.512286 0.877353 -0.119174
C29   C     C_R   0.512282 0.968416 0.122646 -0.119325
C30   C     C_R   0.031650 0.512303 0.122653 -0.119399
C31   C     C_R   0.487728 0.031613 0.122654 -0.119311
C32   C     C_R   0.968356 0.487683 0.122647 -0.119060
H1    H     H_    0.022075 0.556358 0.390854 0.166419
H2    H     H_    0.556286 0.978004 0.390841 0.166033
H3    H     H_    0.977936 0.443616 0.390838 0.166416
H4    H     H_    0.443714 0.022004 0.390851 0.166034
H5    H     H_    0.022003 0.443725 0.609147 0.166045
H6    H     H_    0.556372 0.022065 0.609160 0.166431
H7    H     H_    0.978006 0.556300 0.609162 0.166065
H8    H     H_    0.443632 0.977924 0.609147 0.166423
H9    H     H_    0.522081 0.056356 0.890854 0.166096
H10   H     H_    0.056280 0.477991 0.890841 0.166026
H11   H     H_    0.477930 0.943618 0.890838 0.166075
H12   H     H_    0.943720 0.522023 0.890851 0.166179
H13   H     H_    0.522020 0.943732 0.109146 0.165992
H14   H     H_    0.056370 0.522070 0.109160 0.165985
H15   H     H_    0.477989 0.056293 0.109161 0.166001
H16   H     H_    0.943634 0.477920 0.109147 0.166102
C33   C     C_R   0.012666 0.531496 0.341378 -0.117227
C34   C     C_R   0.531469 0.987395 0.341371 -0.118104
C35   C     C_R   0.987352 0.468466 0.341368 -0.117187
C36   C     C_R   0.468536 0.012630 0.341376 -0.118106
C37   C     C_R   0.012623 0.468552 0.658622 -0.118082
C38   C     C_R   0.531519 0.012645 0.658630 -0.117155
C39   C     C_R   0.987390 0.531486 0.658631 -0.118009
C40   C     C_R   0.468491 0.987329 0.658623 -0.117186
C41   C     C_R   0.512669 0.031494 0.841379 -0.117401
C42   C     C_R   0.031465 0.487388 0.841371 -0.117685
C43   C     C_R   0.487348 0.968467 0.841368 -0.117396
C44   C     C_R   0.968539 0.512640 0.841377 -0.117515
C45   C     C_R   0.512633 0.968555 0.158621 -0.117766
C46   C     C_R   0.031518 0.512647 0.158630 -0.117583
C47   C     C_R   0.487381 0.031482 0.158631 -0.117732
C48   C     C_R   0.968492 0.487327 0.158623 -0.117485
H17   H     H_    0.022425 0.556237 0.327922 0.169455
H18   H     H_    0.556176 0.977669 0.327909 0.169145
H19   H     H_    0.977594 0.443721 0.327903 0.169478
H20   H     H_    0.443830 0.022359 0.327919 0.169147
H21   H     H_    0.022350 0.443846 0.672078 0.169163
H22   H     H_    0.556263 0.022401 0.672093 0.169500
H23   H     H_    0.977663 0.556195 0.672095 0.169220
H24   H     H_    0.443749 0.977568 0.672081 0.169479
H25   H     H_    0.522431 0.056235 0.827922 0.169328
H26   H     H_    0.056169 0.477655 0.827909 0.169092
H27   H     H_    0.477587 0.943723 0.827904 0.169320
H28   H     H_    0.943836 0.522376 0.827919 0.169191
H29   H     H_    0.522367 0.943852 0.172078 0.169063
H30   H     H_    0.056261 0.522406 0.172093 0.169265
H31   H     H_    0.477647 0.056188 0.172094 0.169077
H32   H     H_    0.943751 0.477564 0.172081 0.169317
C49   C     C_R   0.000010 0.499979 0.323032 0.039767
C50   C     C_R   0.500003 0.000015 0.323032 0.040040
C51   C     C_R   0.000007 0.500021 0.676968 0.040016
C52   C     C_R   0.500006 0.999984 0.676968 0.039756
C53   C     C_R   0.500010 0.999978 0.823032 0.039956
C54   C     C_R   0.000003 0.500017 0.823032 0.040033
C55   C     C_R   0.500007 0.000021 0.176968 0.040098
C56   C     C_R   0.000006 0.499984 0.176968 0.039987
C57   C     C_R   0.000005 0.499988 0.395658 -0.002091
C58   C     C_R   0.500000 0.000003 0.395658 -0.001384
C59   C     C_R   0.000004 0.500012 0.604342 -0.001426
C60   C     C_R   0.500001 0.999996 0.604342 -0.002096
C61   C     C_R   0.500004 0.999988 0.895658 -0.001335
C62   C     C_R   1.000000 0.500006 0.895658 -0.001549
C63   C     C_R   0.500004 0.000012 0.104342 -0.001304
C64   C     C_R   0.000002 0.499996 0.104342 -0.001231
N1    N     N_R   0.976895 0.476745 0.267140 -0.208187
N2    N     N_R   0.476831 0.023076 0.267151 -0.208820
N3    N     N_R   0.023126 0.523209 0.267152 -0.208254
N4    N     N_R   0.523181 0.976965 0.267141 -0.208847
N5    N     N_R   0.976952 0.523199 0.732859 -0.208696
N6    N     N_R   0.476778 0.976862 0.732847 -0.208176
N7    N     N_R   0.023062 0.476847 0.732849 -0.208817
N8    N     N_R   0.523241 0.023095 0.732860 -0.208171
N9    N     N_R   0.476892 0.976747 0.767140 -0.208249
N10   N     N_R   0.976837 0.523084 0.767152 -0.208524
N11   N     N_R   0.523128 0.023207 0.767153 -0.208224
N12   N     N_R   0.023174 0.476959 0.767142 -0.208702
N13   N     N_R   0.476946 0.023191 0.232859 -0.208704
N14   N     N_R   0.976780 0.476860 0.232847 -0.208235
N15   N     N_R   0.523069 0.976853 0.232848 -0.208732
N16   N     N_R   0.023239 0.523097 0.232859 -0.208383
C65   C     C_R   0.000009 0.499980 0.215017 0.423271
C66   C     C_R   0.500008 0.000023 0.215017 0.423362
C67   C     C_R   0.000005 0.500020 0.784983 0.423382
C68   C     C_R   0.500011 0.999976 0.784983 0.423307
C69   C     C_R   0.500009 0.999979 0.715017 0.423372
C70   C     C_R   0.000007 0.500023 0.715017 0.423230
C71   C     C_R   0.500005 0.000019 0.284983 0.423237
C72   C     C_R   0.000011 0.499976 0.284983 0.423366
C73   C     C_R   0.326805 0.526502 0.520656 0.277673
C74   C     C_R   0.521138 0.673776 0.524592 0.267506
C75   C     C_R   0.673196 0.473489 0.520634 0.277705
C76   C     C_R   0.478841 0.326235 0.524554 0.267504
C77   C     C_R   0.326230 0.478845 0.475425 0.267513
C78   C     C_R   0.526497 0.326800 0.479336 0.277701
C79   C     C_R   0.673768 0.521162 0.475441 0.267519
C80   C     C_R   0.473498 0.673190 0.479357 0.277670
C81   C     C_R   0.826479 0.023096 0.023314 0.272033
C82   C     C_R   0.022965 0.173685 0.023260 0.272268
C83   C     C_R   0.173503 0.976672 0.023113 0.272303
C84   C     C_R   0.977573 0.826327 0.023231 0.274658
C85   C     C_R   0.826308 0.977143 0.976660 0.271832
C86   C     C_R   0.022173 0.826478 0.975617 0.271173
C87   C     C_R   0.173675 0.023102 0.976879 0.272249
C88   C     C_R   0.976802 0.173513 0.976791 0.272210
C89   C     C_R   0.366271 0.524723 0.521954 -0.125090
C90   C     C_R   0.522832 0.634204 0.523673 -0.132312
C91   C     C_R   0.633731 0.475268 0.521937 -0.125114
C92   C     C_R   0.477147 0.365806 0.523637 -0.132309
C93   C     C_R   0.365801 0.477153 0.476342 -0.132303
C94   C     C_R   0.524717 0.366266 0.478038 -0.125124
C95   C     C_R   0.634197 0.522854 0.476361 -0.132317
C96   C     C_R   0.475278 0.633725 0.478057 -0.125080
C97   C     C_R   0.866067 0.023175 0.023442 -0.142664
C98   C     C_R   0.023124 0.134095 0.023394 -0.143118
C99   C     C_R   0.133913 0.976587 0.023231 -0.142826
C100  C     C_R   0.977526 0.865845 0.023679 -0.142458
C101  C     C_R   0.865898 0.976987 0.976514 -0.144013
C102  C     C_R   0.022756 0.866084 0.975961 -0.144636
C103  C     C_R   0.134084 0.023252 0.976730 -0.142977
C104  C     C_R   0.976726 0.133924 0.976653 -0.142675
C105  C     C_R   0.386035 0.500014 0.499889 -0.251225
C106  C     C_R   0.499980 0.613966 0.500122 -0.251272
C107  C     C_R   0.613965 0.499985 0.499891 -0.251215
C108  C     C_R   0.500009 0.386035 0.500098 -0.251246
C109  C     C_R   0.886024 0.000046 0.999989 -0.256483
C110  C     C_R   0.999952 0.113971 0.000015 -0.255629
C111  C     C_R   0.113964 0.999952 0.999991 -0.255051
C112  C     C_R   0.000199 0.886017 0.999937 -0.250567
C113  C     C_R   0.306991 0.503403 0.497562 -0.121682
C114  C     C_R   0.496588 0.693009 0.502453 -0.121669
C115  C     C_R   0.693008 0.496597 0.497559 -0.121703
C116  C     C_R   0.503400 0.306992 0.502424 -0.121697
C117  C     C_R   0.806877 0.000135 0.999994 -0.126156
C118  C     C_R   0.999864 0.193117 0.000025 -0.126058
C119  C     C_R   0.193108 0.999874 0.000006 -0.126117
C120  C     C_R   0.999519 0.806898 0.999176 -0.119914
C121  C     C_1   0.266503 0.502925 0.498232 0.162447
C122  C     C_1   0.497068 0.733497 0.501781 0.162442
C123  C     C_1   0.733496 0.497075 0.498228 0.162448
C124  C     C_1   0.502924 0.266504 0.501754 0.162439
C125  C     C_1   0.766407 0.000176 0.999999 0.162012
C126  C     C_1   0.999825 0.233588 0.000026 0.162199
C127  C     C_1   0.233580 0.999834 0.000012 0.162165
C128  C     C_1   0.999761 0.766434 0.999636 0.159263
C129  C     C_1   0.232755 0.502323 0.498739 0.101333
C130  C     C_1   0.497672 0.767246 0.501272 0.101336
C131  C     C_1   0.767245 0.497677 0.498735 0.101348
C132  C     C_1   0.502323 0.232755 0.501250 0.101339
C133  C     C_1   0.732665 0.000197 0.999995 0.102386
C134  C     C_1   0.999803 0.267330 0.000030 0.102503
C135  C     C_1   0.267323 0.999812 0.000007 0.102445
C136  C     C_1   0.999922 0.732695 0.999917 0.098578
C137  C     C_R   0.172913 0.524095 0.522349 -0.155215
C138  C     C_R   0.521748 0.826974 0.523448 -0.154608
C139  C     C_R   0.827087 0.475917 0.522345 -0.155201
C140  C     C_R   0.478252 0.173042 0.523436 -0.154609
C141  C     C_R   0.173033 0.478243 0.476559 -0.154626
C142  C     C_R   0.524087 0.172904 0.477644 -0.155223
C143  C     C_R   0.826966 0.521746 0.476557 -0.154609
C144  C     C_R   0.475910 0.827080 0.477656 -0.155222
C145  C     C_R   0.672950 0.023007 0.022960 -0.155115
C146  C     C_R   0.022628 0.327130 0.023033 -0.155091
C147  C     C_R   0.327045 0.977002 0.022960 -0.155159
C148  C     C_R   0.977249 0.672880 0.023038 -0.155593
C149  C     C_R   0.672876 0.977368 0.976980 -0.155141
C150  C     C_R   0.022971 0.672984 0.977144 -0.154172
C151  C     C_R   0.327115 0.022634 0.976996 -0.155102
C152  C     C_R   0.976997 0.327037 0.977058 -0.155061
H33   H     H_    0.188333 0.541664 0.540209 0.212555
H34   H     H_    0.538792 0.811483 0.541613 0.214249
H35   H     H_    0.811667 0.458356 0.540203 0.212549
H36   H     H_    0.461208 0.188546 0.541599 0.214256
H37   H     H_    0.188529 0.461193 0.458395 0.214244
H38   H     H_    0.541650 0.188318 0.459783 0.212544
H39   H     H_    0.811470 0.538787 0.458394 0.214248
H40   H     H_    0.458346 0.811654 0.459797 0.212552
H41   H     H_    0.688442 0.040239 0.041044 0.214142
H42   H     H_    0.039836 0.311701 0.041113 0.214269
H43   H     H_    0.311554 0.959774 0.041039 0.214191
H44   H     H_    0.959962 0.688304 0.041064 0.212250
H45   H     H_    0.688313 0.960157 0.958902 0.214260
H46   H     H_    0.040197 0.688488 0.959070 0.213935
H47   H     H_    0.311677 0.039843 0.958925 0.214323
H48   H     H_    0.959768 0.311537 0.958978 0.214193
C153  C     C_R   0.133627 0.523375 0.523411 0.283957
C154  C     C_R   0.522287 0.866280 0.523809 0.282888
C155  C     C_R   0.866373 0.476636 0.523408 0.283973
C156  C     C_R   0.477715 0.133736 0.523803 0.282885
C157  C     C_R   0.133728 0.477706 0.476194 0.282895
C158  C     C_R   0.523368 0.133618 0.476585 0.283976
C159  C     C_R   0.866271 0.522282 0.476194 0.282901
C160  C     C_R   0.476631 0.866366 0.476591 0.283965
C161  C     C_R   0.633657 0.022884 0.023665 0.283202
C162  C     C_R   0.022572 0.366420 0.023740 0.283249
C163  C     C_R   0.366339 0.977122 0.023661 0.283215
C164  C     C_R   0.977361 0.633586 0.023759 0.283976
C165  C     C_R   0.633587 0.977425 0.976267 0.283230
C166  C     C_R   0.022902 0.633691 0.976442 0.282967
C167  C     C_R   0.366405 0.022573 0.976279 0.283226
C168  C     C_R   0.977120 0.366330 0.976346 0.283186
C169  C     C_R   0.113612 0.500276 0.499936 -0.268807
C170  C     C_R   0.499724 0.886388 0.500066 -0.268805
C171  C     C_R   0.886388 0.499724 0.499934 -0.268806
C172  C     C_R   0.500277 0.113611 0.500062 -0.268804
C173  C     C_R   0.613570 0.000130 0.999970 -0.268834
C174  C     C_R   0.999871 0.386428 0.000036 -0.268825
C175  C     C_R   0.386425 0.999871 0.999972 -0.268824
C176  C     C_R   0.000122 0.613582 0.000089 -0.268979
C177  C     C_R   0.192485 0.501528 0.499241 -0.028027
C178  C     C_R   0.498469 0.807515 0.500766 -0.028031
C179  C     C_R   0.807515 0.498472 0.499238 -0.028025
C180  C     C_R   0.501529 0.192485 0.500751 -0.028030
C181  C     C_R   0.692413 0.000197 0.999976 -0.028670
C182  C     C_R   0.999803 0.307584 0.000043 -0.028682
C183  C     C_R   0.307579 0.999810 0.999986 -0.028701
C184  C     C_R   0.000087 0.692436 0.000075 -0.027405
O33   O     O_R   0.499940 0.554330 0.471170 -0.551548
O34   O     O_R   0.554330 0.500060 0.471170 -0.577131
O35   O     O_R   0.500060 0.445670 0.471170 -0.551479
O36   O     O_R   0.445670 0.499940 0.471170 -0.577107
O37   O     O_R   0.499940 0.445670 0.528830 -0.577120
O38   O     O_R   0.554330 0.499940 0.528830 -0.551371
O39   O     O_R   0.500060 0.554330 0.528830 -0.577098
O40   O     O_R   0.445670 0.500060 0.528830 -0.551501
O41   O     O_R   0.999940 0.054330 0.971170 -0.574177
O42   O     O_R   0.054330 0.000060 0.971170 -0.573942
O43   O     O_R   0.000060 0.945670 0.971170 -0.574723
O44   O     O_R   0.945670 0.999940 0.971170 -0.573561
O45   O     O_R   0.999940 0.945670 0.028830 -0.572752
O46   O     O_R   0.054330 0.999940 0.028830 -0.574252
O47   O     O_R   0.000060 0.054330 0.028830 -0.573832
O48   O     O_R   0.945670 0.000060 0.028830 -0.574144
C185  C     C_R   0.500063 0.572308 0.500014 0.870307
C186  C     C_R   0.572308 0.500062 0.499991 0.870245
C187  C     C_R   0.499935 0.427692 0.500006 0.870216
C188  C     C_R   0.427691 0.499936 0.499990 0.870314
C189  C     C_R   0.999994 0.072311 0.000004 0.940190
C190  C     C_R   0.072308 0.999995 0.999998 0.939348
C191  C     C_R   0.000090 0.927685 0.999990 0.941614
C192  C     C_R   0.927687 1.000000 0.999998 0.939939
N17   N     N_R   0.306794 0.551591 0.543093 0.140524
O49   O     O_R   0.281362 0.573936 0.530751 -0.295669
O50   O     O_R   0.313714 0.551975 0.575987 -0.282916
N18   N     N_R   0.545511 0.694620 0.547104 0.148374
O51   O     O_R   0.531829 0.719560 0.568034 -0.299363
O52   O     O_R   0.581589 0.689603 0.545890 -0.281538
N19   N     N_R   0.693210 0.448393 0.543053 0.140574
O53   O     O_R   0.718642 0.426053 0.530693 -0.295629
O54   O     O_R   0.686291 0.447998 0.575947 -0.282911
N20   N     N_R   0.454459 0.305401 0.547055 0.148371
O55   O     O_R   0.468133 0.280476 0.567993 -0.299393
O56   O     O_R   0.418381 0.310414 0.545824 -0.281569
N21   N     N_R   0.305392 0.454463 0.452915 0.148371
O57   O     O_R   0.280458 0.468137 0.431983 -0.299408
O58   O     O_R   0.310408 0.418385 0.454134 -0.281573
N22   N     N_R   0.551587 0.306783 0.456904 0.140542
O59   O     O_R   0.573932 0.281355 0.469252 -0.295650
O60   O     O_R   0.551971 0.313695 0.424011 -0.282932
N23   N     N_R   0.694605 0.545553 0.452950 0.148378
O61   O     O_R   0.719537 0.531887 0.432007 -0.299409
O62   O     O_R   0.689587 0.581631 0.454197 -0.281557
N24   N     N_R   0.448414 0.693197 0.456920 0.140499
O63   O     O_R   0.426066 0.718631 0.469263 -0.295683
O64   O     O_R   0.448041 0.686271 0.424026 -0.282934
N25   N     N_R   0.806079 0.047361 0.046164 0.148802
O65   O     O_R   0.780682 0.033708 0.066701 -0.304431
O66   O     O_R   0.812221 0.083315 0.045871 -0.277568
N26   N     N_R   0.047285 0.194266 0.046015 0.148857
O67   O     O_R   0.033671 0.219583 0.066596 -0.304114
O68   O     O_R   0.083246 0.188362 0.045600 -0.277723
N27   N     N_R   0.193900 0.952174 0.045742 0.148876
O69   O     O_R   0.219298 0.965614 0.066403 -0.304220
O70   O     O_R   0.187760 0.916224 0.045117 -0.277914
N28   N     N_R   0.954210 0.805695 0.046569 0.139593
O71   O     O_R   0.924410 0.788715 0.035139 -0.299192
O72   O     O_R   0.965840 0.799014 0.077703 -0.265794
N29   N     N_R   0.805727 0.952931 0.953807 0.148839
O73   O     O_R   0.780413 0.966642 0.933287 -0.303771
O74   O     O_R   0.811635 0.916968 0.954066 -0.278434
N30   N     N_R   0.045740 0.806037 0.952190 0.148995
O75   O     O_R   0.031476 0.780558 0.932081 -0.301878
O76   O     O_R   0.081734 0.811927 0.951786 -0.278699
N31   N     N_R   0.194253 0.047554 0.954253 0.148909
O77   O     O_R   0.219578 0.034062 0.933615 -0.304182
O78   O     O_R   0.188333 0.083511 0.954839 -0.277680
N32   N     N_R   0.952438 0.193911 0.954040 0.148823
O79   O     O_R   0.965998 0.219312 0.933457 -0.304170
O80   O     O_R   0.916487 0.187759 0.954465 -0.277583
C193  C     C_2   0.386671 0.551172 0.544595 0.949490
O81   O     O_2   0.389403 0.584125 0.536375 -0.521440
O82   O     O_R   0.401890 0.538522 0.575624 -0.697380
H49   H     H_    0.415040 0.559207 0.588868 0.351545
C194  C     C_2   0.548441 0.614370 0.547731 0.978651
O83   O     O_2   0.548649 0.622579 0.578308 -0.508522
O84   O     O_R   0.572429 0.586527 0.535431 -0.716390
H50   H     H_    0.588401 0.575105 0.554272 0.351246
C195  C     C_2   0.613334 0.448807 0.544556 0.949343
O85   O     O_2   0.610659 0.415844 0.536337 -0.521269
O86   O     O_R   0.598062 0.461454 0.575570 -0.697412
H51   H     H_    0.584923 0.440760 0.588801 0.351535
C196  C     C_2   0.451526 0.385651 0.547686 0.978648
O87   O     O_2   0.451301 0.377454 0.578262 -0.508534
O88   O     O_R   0.427548 0.413492 0.535379 -0.716430
H52   H     H_    0.411566 0.424923 0.554214 0.351228
C197  C     C_2   0.385641 0.451534 0.452285 0.978630
O89   O     O_2   0.377436 0.451313 0.421709 -0.508552
O90   O     O_R   0.413484 0.427555 0.464585 -0.716422
H53   H     H_    0.424911 0.411576 0.445746 0.351234
C198  C     C_2   0.551165 0.386662 0.455404 0.949418
O91   O     O_2   0.584121 0.389382 0.463624 -0.521447
O92   O     O_R   0.538511 0.401887 0.424380 -0.697396
H54   H     H_    0.559195 0.415032 0.411140 0.351533
C199  C     C_2   0.614356 0.548480 0.452323 0.978632
O93   O     O_2   0.622560 0.548711 0.421747 -0.508546
O94   O     O_R   0.586511 0.572454 0.464640 -0.716442
H55   H     H_    0.575084 0.588439 0.445812 0.351218
C200  C     C_2   0.448836 0.613319 0.455415 0.949524
O95   O     O_2   0.415887 0.610565 0.463645 -0.521540
O96   O     O_R   0.461490 0.598117 0.424374 -0.697351
H56   H     H_    0.440810 0.584960 0.411130 0.351539
C201  C     C_2   0.886188 0.047896 0.048134 0.973803
O97   O     O_2   0.878042 0.047165 0.078715 -0.509790
O98   O     O_R   0.914102 0.072260 0.036365 -0.724862
H57   H     H_    0.925695 0.087630 0.055584 0.346000
C202  C     C_2   0.047932 0.114148 0.048040 0.973142
O99   O     O_2   0.047333 0.122382 0.078605 -0.509579
O100  O     O_R   0.072215 0.086291 0.036251 -0.724598
H58   H     H_    0.087645 0.074814 0.055442 0.346086
C203  C     C_2   0.113770 0.951605 0.047672 0.973016
O101  O     O_2   0.121934 0.951956 0.078255 -0.509148
O102  O     O_R   0.085811 0.927430 0.035657 -0.726190
H59   H     H_    0.074209 0.911843 0.054716 0.346249
C204  C     C_2   0.951868 0.885601 0.047738 0.952078
O103  O     O_2   0.951822 0.877679 0.078362 -0.502256
O104  O     O_R   0.927572 0.913100 0.035286 -0.727733
H60   H     H_    0.911560 0.924564 0.054082 0.345736
C205  C     C_2   0.885834 0.952316 0.951733 0.973219
O105  O     O_2   0.877592 0.953094 0.921176 -0.509064
O106  O     O_R   0.913691 0.927960 0.963382 -0.724284
H61   H     H_    0.925164 0.912645 0.944106 0.346659
C206  C     C_2   0.047305 0.886258 0.951176 0.973920
O107  O     O_2   0.046087 0.878462 0.920529 -0.509536
O108  O     O_R   0.072038 0.913861 0.962937 -0.724615
H62   H     H_    0.087228 0.925555 0.943657 0.346203
C207  C     C_2   0.114130 0.048171 0.952184 0.972993
O109  O     O_2   0.122396 0.047755 0.921627 -0.509450
O110  O     O_R   0.086224 0.072347 0.964060 -0.724985
H63   H     H_    0.074749 0.087870 0.944933 0.345996
C208  C     C_2   0.951920 0.113795 0.952039 0.973496
O111  O     O_2   0.952511 0.121964 0.921463 -0.509568
O112  O     O_R   0.927637 0.085846 0.963877 -0.725167
H64   H     H_    0.912195 0.074253 0.944708 0.346013
N33   N     N_R   0.114714 0.545196 0.549225 0.144328
O113  O     O_R   0.087207 0.530711 0.566772 -0.367175
O114  O     O_R   0.128542 0.577282 0.558925 -0.290018
N34   N     N_R   0.544686 0.885133 0.549300 0.145006
O115  O     O_R   0.530896 0.913044 0.566694 -0.364963
O116  O     O_R   0.576495 0.870838 0.558986 -0.291346
N35   N     N_R   0.885287 0.454829 0.549221 0.144330
O117  O     O_R   0.912793 0.469323 0.566771 -0.367174
O118  O     O_R   0.871459 0.422747 0.558919 -0.290033
N36   N     N_R   0.455318 0.114900 0.549298 0.145002
O119  O     O_R   0.469107 0.086996 0.566689 -0.364942
O120  O     O_R   0.423512 0.129204 0.558987 -0.291380
N37   N     N_R   0.114882 0.455299 0.450702 0.144998
O121  O     O_R   0.086975 0.469084 0.433309 -0.364959
O122  O     O_R   0.129182 0.423488 0.441015 -0.291392
N38   N     N_R   0.545179 0.114694 0.450771 0.144322
O123  O     O_R   0.530686 0.087185 0.433223 -0.367224
O124  O     O_R   0.577263 0.128517 0.441072 -0.290054
N39   N     N_R   0.885117 0.544676 0.450703 0.145001
O125  O     O_R   0.913023 0.530882 0.433309 -0.364967
O126  O     O_R   0.870818 0.576483 0.441018 -0.291379
N40   N     N_R   0.454820 0.885272 0.450775 0.144321
O127  O     O_R   0.469309 0.912775 0.433229 -0.367190
O128  O     O_R   0.422738 0.871440 0.441073 -0.290059
N41   N     N_R   0.614805 0.044873 0.049392 0.144795
O129  O     O_R   0.587058 0.030646 0.066796 -0.366248
O130  O     O_R   0.628925 0.076789 0.059210 -0.291693
N42   N     N_R   0.044587 0.385354 0.049467 0.144888
O131  O     O_R   0.030406 0.413065 0.066864 -0.366113
O132  O     O_R   0.076471 0.371339 0.059291 -0.291578
N43   N     N_R   0.385193 0.955137 0.049380 0.144792
O133  O     O_R   0.412939 0.969367 0.066790 -0.366220
O134  O     O_R   0.371073 0.923222 0.059187 -0.291730
N44   N     N_R   0.955321 0.614646 0.049454 0.144586
O135  O     O_R   0.969494 0.586948 0.066862 -0.366714
O136  O     O_R   0.923408 0.628638 0.059236 -0.290719
N45   N     N_R   0.614666 0.955406 0.950535 0.144907
O137  O     O_R   0.586958 0.969582 0.933140 -0.366057
O138  O     O_R   0.628687 0.923521 0.940707 -0.291535
N46   N     N_R   0.044949 0.614859 0.950745 0.144963
O139  O     O_R   0.030762 0.587126 0.933284 -0.365543
O140  O     O_R   0.076880 0.628996 0.941003 -0.291978
N47   N     N_R   0.385324 0.044586 0.950551 0.144889
O141  O     O_R   0.413028 0.030404 0.933149 -0.366096
O142  O     O_R   0.371303 0.076469 0.940734 -0.291533
N48   N     N_R   0.955137 0.385172 0.950618 0.144816
O143  O     O_R   0.969365 0.412914 0.933211 -0.366161
O144  O     O_R   0.923224 0.371046 0.940802 -0.291609

loop_
_geom_bond_atom_site_label_1
_geom_bond_atom_site_label_2
_geom_bond_distance
_ccdc_geom_bond_type
N43   O133  1.301109 A    
C31   C47   1.397294 A    
O25   C13   1.290840 A    
C208  O111  1.223010 D    
N8    N11   1.331859 A    
O112  H64   1.013794 S    
C92   C196  1.487630 S    
C142  H38   1.084058 S    
C17   C57   1.404182 A    
C45   C55   1.404942 A    
C87   C103  1.412969 A    
C46   C56   1.404946 A    
C85   C101  1.412938 A    
C146  H42   1.084087 S    
C19   C57   1.404180 A    
C165  N45   1.438464 S    
O18   Cu2   1.947856 S    
C77   C113  1.407610 A    
N44   O136  1.301377 A    
N1    N14   1.331865 A    
C38   H22   1.082952 S    
C103  C111  1.421437 A    
C109  C192  1.486914 S    
C101  C109  1.421612 A    
C89   C193  1.479973 S    
C146  C162  1.402455 A    
C5    C173  1.476780 S    
O24   Cu4   1.947852 S    
C122  C130  1.204721 T    
C206  O108  1.397653 S    
C100  C204  1.487162 S    
O39   C185  1.290170 A    
Cu1   Cu3   2.655895 S    
Cu2   Cu4   2.655950 S    
C76   C116  1.407600 A    
O3    C3    1.290240 A    
N20   O55   1.301237 A    
Cu11  O43   1.950006 S    
C88   C104  1.412870 A    
Cu11  O42   1.949974 S    
C114  C122  1.445231 S    
C34   C50   1.404948 A    
C28   H12   1.083051 S    
Cu11  Cu12  2.653368 S    
C205  O106  1.397566 S    
N15   C66   1.358090 A    
C93   C197  1.487628 S    
C150  H46   1.084085 S    
C161  C173  1.420179 A    
C84   N28   1.433950 S    
C48   H32   1.082954 S    
N29   O74   1.301227 A    
O44   C192  1.290517 A    
C151  C183  1.394384 A    
C148  C184  1.394372 A    
N6    C69   1.358094 A    
C20   C58   1.404180 A    
N10   C67   1.358093 A    
N19   O53   1.301291 A    
O46   C190  1.290569 A    
C27   C61   1.404176 A    
O17   C9    1.290839 A    
N2    C71   1.358094 A    
N23   O62   1.301267 A    
C120  C128  1.444262 S    
O27   Cu7   1.947799 S    
C84   C120  1.403345 A    
C54   C67   1.477721 S    
C55   C66   1.477724 S    
N39   O126  1.301366 A    
Cu9   O35   1.950006 S    
C22   H6    1.083050 S    
O40   C188  1.290819 A    
C96   C106  1.418534 A    
C100  C112  1.421502 A    
C86   C120  1.405905 A    
C88   C118  1.406384 A    
C150  C166  1.402570 A    
C21   C59   1.404182 A    
C22   C60   1.404184 A    
N34   O115  1.301104 A    
C26   C62   1.404177 A    
O7    C3    1.289654 A    
C147  H43   1.084077 S    
C197  O89   1.223080 D    
O92   H54   1.013804 S    
O27   C13   1.290811 A    
O31   C15   1.290817 A    
C156  N36   1.438343 S    
O32   C16   1.290842 A    
C160  N40   1.438544 S    
C24   C40   1.397296 A    
C139  H35   1.084059 S    
C42   C54   1.404950 A    
C81   C97   1.412870 A    
N7    C70   1.358088 A    
Cu10  O40   1.949988 S    
O86   H51   1.013807 S    
C25   C41   1.397279 A    
C200  O95   1.222319 D    
C56   C65   1.477721 S    
C10   C58   1.475488 S    
C110  C189  1.486769 S    
C117  C125  1.444326 S    
C30   H14   1.083052 S    
C201  O98   1.397565 S    
C41   H25   1.082954 S    
C130  C178  1.437482 S    
C145  C181  1.394425 A    
C203  O101  1.223007 D    
O38   C186  1.290815 A    
O9    C5    1.289583 A    
N48   O143  1.301110 A    
C168  C174  1.420174 A    
O11   C7    1.289605 A    
N28   O71   1.300781 A    
C149  C181  1.394370 A    
N23   O61   1.301238 A    
O4    C4    1.289659 A    
N31   O77   1.301205 A    
O5    Cu3   1.950147 S    
C140  H36   1.084082 S    
C204  O103  1.222561 D    
C193  O81   1.222319 D    
C73   C113  1.407344 A    
C126  C134  1.204186 T    
C198  O92   1.397345 S    
C98   C202  1.486721 S    
C164  C176  1.420291 A    
N40   O128  1.301385 A    
C23   H7    1.083053 S    
C207  O109  1.223013 D    
C160  C170  1.420446 A    
C86   N30   1.438820 S    
O108  H62   1.013788 S    
C152  H48   1.084079 S    
C96   C200  1.479968 S    
C89   C105  1.418536 A    
C9    C57   1.475484 S    
C202  O99   1.223010 D    
N33   O113  1.301141 A    
N43   O134  1.301375 A    
C154  N34   1.438334 S    
C135  C183  1.436667 S    
C164  N44   1.438456 S    
N47   O142  1.301378 A    
C155  C171  1.420448 A    
C30   C46   1.397289 A    
N32   O79   1.301202 A    
C85   N29   1.438835 S    
O98   H57   1.013795 S    
C101  C205  1.486762 S    
O14   C8    1.289640 A    
N13   C66   1.358093 A    
C35   C49   1.404953 A    
O2    Cu2   1.950112 S    
Cu12  O45   1.949889 S    
C163  C175  1.420192 A    
C95   C199  1.487633 S    
C17   H1    1.083053 S    
N42   O131  1.301106 A    
C92   C108  1.421274 A    
O28   C14   1.290843 A    
O26   C14   1.290848 A    
C83   C119  1.406439 A    
O29   C15   1.290845 A    
C167  C175  1.420193 A    
O8    Cu4   1.949071 S    
O30   C16   1.290841 A    
N5    N10   1.331861 A    
C31   H15   1.083051 S    
C137  H33   1.084060 S    
C28   C62   1.404183 A    
N12   C67   1.358090 A    
N21   O58   1.301265 A    
C76   N20   1.439033 S    
C144  H40   1.084061 S    
Cu10  O38   1.949993 S    
O19   Cu3   1.947799 S    
C80   N24   1.440155 S    
N25   O66   1.301224 A    
C143  C159  1.402909 A    
C144  C160  1.402822 A    
C148  H44   1.084078 S    
C16   C64   1.475484 S    
C45   H29   1.082954 S    
N22   O59   1.301286 A    
C20   C36   1.397292 A    
N31   O78   1.301227 A    
C6    C174  1.476789 S    
C123  C131  1.204741 T    
C98   C110  1.421504 A    
C29   C63   1.404178 A    
C30   C64   1.404180 A    
O6    Cu2   1.949069 S    
N38   O123  1.301134 A    
N19   O54   1.301227 A    
N18   O52   1.301265 A    
C166  N46   1.438444 S    
O16   Cu8   1.949071 S    
C78   C116  1.407339 A    
C150  C184  1.394503 A    
C102  C112  1.422597 A    
C46   H30   1.082953 S    
N30   O76   1.301236 A    
C36   C50   1.404949 A    
C162  C174  1.420181 A    
N41   O130  1.301374 A    
C51   C70   1.477724 S    
N24   O64   1.301223 A    
C49   C72   1.477721 S    
C79   C115  1.407609 A    
C50   C71   1.477725 S    
C151  C167  1.402496 A    
C25   H9    1.083053 S    
O18   C10   1.290850 A    
C199  O94   1.397312 S    
O21   Cu3   1.947900 S    
C139  C155  1.402836 A    
C140  C156  1.402903 A    
O14   Cu6   1.949069 S    
C40   C52   1.404947 A    
C18   H2    1.083053 S    
C81   C117  1.406352 A    
C4    C172  1.477731 S    
N26   O68   1.301229 A    
C138  H34   1.084080 S    
C163  N43   1.438450 S    
C7    C175  1.476876 S    
C119  C127  1.444412 S    
O12   C8    1.289916 A    
C133  C181  1.436570 S    
C29   C45   1.397270 A    
C93   C105  1.421277 A    
C22   C38   1.397289 A    
C31   C63   1.404180 A    
C201  O97   1.223007 D    
O13   C5    1.289812 A    
Cu12  O47   1.949991 S    
Cu9   Cu10  2.653368 S    
N34   O116  1.301368 A    
N45   O138  1.301378 A    
N9    C68   1.358095 A    
C196  O88   1.397312 S    
O43   C191  1.290407 A    
O29   Cu7   1.947900 S    
C153  C169  1.420450 A    
N46   O139  1.301118 A    
N1    C72   1.358093 A    
C152  C168  1.402566 A    
N20   O56   1.301264 A    
N35   O118  1.301383 A    
C104  C110  1.421502 A    
C53   C68   1.477717 S    
O42   C190  1.290415 A    
C33   H17   1.082955 S    
Cu11  O41   1.949896 S    
C41   C53   1.404942 A    
C12   C60   1.475484 S    
C3    C171  1.477766 S    
C138  C154  1.402897 A    
C205  O105  1.223013 D    
C208  O112  1.397551 S    
C78   N22   1.440151 S    
C40   H24   1.082953 S    
C47   H31   1.082952 S    
C139  C179  1.394412 A    
N29   O73   1.301207 A    
C146  C182  1.394365 A    
C141  H37   1.084079 S    
O88   H52   1.013816 S    
C148  C164  1.402618 A    
O10   C6    1.289835 A    
C86   C102  1.413618 A    
O41   C189  1.290528 A    
C161  N41   1.438456 S    
O15   Cu5   1.950151 S    
C145  H41   1.084078 S    
O23   Cu1   1.947794 S    
C194  O83   1.223081 D    
C195  O86   1.397366 S    
C39   H23   1.082951 S    
C17   C33   1.397279 A    
N37   O122  1.301366 A    
O5    C1    1.289654 A    
C77   N21   1.439035 S    
O84   H50   1.013815 S    
C19   C35   1.397306 A    
C128  C136  1.204167 T    
C149  C165  1.402456 A    
N17   O50   1.301221 A    
N36   O119  1.301110 A    
C27   C43   1.397306 A    
Cu9   O34   1.949974 S    
C121  C129  1.204742 T    
C141  C177  1.394710 A    
O82   H49   1.013805 S    
O32   Cu8   1.947852 S    
C74   C90   1.414110 A    
O47   C189  1.290527 A    
C104  C208  1.486624 S    
C23   C39   1.397294 A    
O33   C185  1.290805 A    
C141  C157  1.402912 A    
C38   C52   1.404949 A    
O22   Cu2   1.947845 S    
C113  C121  1.445260 S    
C32   C48   1.397296 A    
C44   C54   1.404950 A    
O21   C11   1.290845 A    
C20   H4    1.083051 S    
O22   C12   1.290841 A    
C140  C180  1.394707 A    
C206  O107  1.223013 D    
C105  C188  1.486699 S    
C87   N31   1.438821 S    
N39   O125  1.301106 A    
C24   H8    1.083052 S    
C90   C194  1.487628 S    
N14   C65   1.358093 A    
C76   C92   1.414101 A    
N27   O69   1.301201 A    
O3    Cu3   1.949111 S    
N44   O135  1.301111 A    
C39   C51   1.404955 A    
C28   C44   1.397288 A    
C34   H18   1.082952 S    
O8    C2    1.290246 A    
C95   C107  1.421280 A    
C23   C59   1.404181 A    
N47   O141  1.301108 A    
O28   Cu8   1.947847 S    
N6    N9    1.331865 A    
C36   H20   1.082950 S    
N48   O144  1.301376 A    
O30   Cu6   1.947845 S    
C78   C94   1.410958 A    
C115  C123  1.445263 S    
C88   N32   1.438830 S    
C151  H47   1.084083 S    
N28   O72   1.300710 A    
C94   C108  1.418532 A    
O23   C11   1.290817 A    
C82   C98   1.412934 A    
C27   H11   1.083054 S    
C152  C182  1.394434 A    
C137  C153  1.402833 A    
C18   C34   1.397281 A    
N4    C71   1.358086 A    
C111  C190  1.486660 S    
C144  C178  1.394412 A    
C32   C64   1.404179 A    
N3    C72   1.358090 A    
O11   Cu7   1.949111 S    
C198  O91   1.222322 D    
O16   C6    1.289600 A    
C153  N33   1.438539 S    
C108  C187  1.486672 S    
C81   N25   1.438834 S    
O96   H56   1.013804 S    
C26   C42   1.397277 A    
C79   C95   1.414117 A    
O6    C4    1.290250 A    
C157  N37   1.438338 S    
O45   C191  1.290834 A    
C165  C173  1.420173 A    
C77   C93   1.414119 A    
C80   C114  1.407337 A    
C29   H13   1.083051 S    
Cu9   O36   1.949985 S    
N11   C68   1.358092 A    
C157  C169  1.420200 A    
O31   Cu5   1.947794 S    
N32   O80   1.301228 A    
C142  C180  1.394405 A    
C159  C171  1.420203 A    
C52   C69   1.477717 S    
C167  N47   1.438461 S    
O17   Cu1   1.947905 S    
C84   C100  1.410418 A    
C94   C198  1.479975 S    
Cu12  O46   1.949993 S    
N42   O132  1.301375 A    
C15   C63   1.475480 S    
O104  H60   1.013822 S    
C197  O90   1.397315 S    
C145  C161  1.402558 A    
C74   C114  1.407612 A    
C127  C135  1.204239 T    
C83   N27   1.438817 S    
C44   H28   1.082952 S    
C73   N17   1.440150 S    
Cu12  O48   1.949988 S    
O2    C2    1.289666 A    
O25   Cu5   1.947905 S    
N21   O57   1.301238 A    
C106  C185  1.486680 S    
O100  H58   1.013796 S    
C90   C106  1.421274 A    
C143  H39   1.084082 S    
C37   C51   1.404946 A    
C103  C207  1.486739 S    
C124  C132  1.204721 T    
Cu10  O39   1.949991 S    
N37   O121  1.301106 A    
O94   H55   1.013816 S    
C19   H3    1.083052 S    
N25   O65   1.301204 A    
C200  O96   1.397343 S    
C149  H45   1.084085 S    
O4    Cu4   1.950108 S    
N8    C69   1.358090 A    
N16   C65   1.358089 A    
N22   O60   1.301221 A    
C193  O82   1.397343 S    
C83   C99   1.412901 A    
C142  C158  1.402818 A    
C203  O102  1.397557 S    
N5    C70   1.358090 A    
C154  C170  1.420193 A    
C87   C119  1.406491 A    
N38   O124  1.301381 A    
C85   C117  1.406412 A    
O37   C187  1.290148 A    
O48   C192  1.290621 A    
C134  C182  1.436580 S    
C2    C170  1.477733 S    
C21   H5    1.083051 S    
O35   C187  1.290824 A    
C8    C176  1.477025 S    
C102  C206  1.486516 S    
O36   C188  1.290169 A    
C158  N38   1.438536 S    
O102  H59   1.013801 S    
C204  O104  1.397621 S    
C42   H26   1.082954 S    
C14   C62   1.475484 S    
O15   C7    1.289841 A    
N40   O127  1.301139 A    
C137  C177  1.394416 A    
C207  O110  1.397553 S    
C107  C186  1.486695 S    
N17   O49   1.301286 A    
C97   C201  1.486607 S    
C202  O100  1.397568 S    
N36   O120  1.301366 A    
Cu5   Cu7   2.655895 S    
C25   C61   1.404179 A    
Cu6   Cu8   2.655950 S    
C48   C56   1.404945 A    
N33   O114  1.301383 A    
C79   N23   1.439037 S    
C24   C60   1.404180 A    
C166  C176  1.420140 A    
O7    Cu1   1.950151 S    
C47   C55   1.404956 A    
O110  H63   1.013796 S    
C97   C109  1.421564 A    
C162  N42   1.438460 S    
C91   C107  1.418552 A    
C75   C115  1.407345 A    
C129  C177  1.437514 S    
N27   O70   1.301229 A    
C43   C53   1.404951 A    
O19   C9    1.290811 A    
C143  C179  1.394711 A    
O106  H61   1.013795 S    
O34   C186  1.290174 A    
C138  C178  1.394701 A    
C13   C61   1.475484 S    
N45   O137  1.301110 A    
O24   C12   1.290842 A    
C147  C183  1.394448 A    
C136  C184  1.436797 S    
N26   O67   1.301204 A    
C11   C59   1.475487 S    
C196  O87   1.223083 D    
O12   Cu8   1.950108 S    
C112  C191  1.487033 S    
C32   H16   1.083054 S    
C131  C179  1.437514 S    
C132  C180  1.437477 S    
C33   C49   1.404940 A    
N46   O140  1.301375 A    
C74   N18   1.439035 S    
C99   C111  1.421372 A    
C37   H21   1.082952 S    
C26   H10   1.083051 S    
Cu10  O37   1.949889 S    
Cu11  O44   1.949985 S    
C155  N35   1.438538 S    
C75   C91   1.410969 A    
C82   C118  1.406441 A    
C168  N48   1.438459 S    
C43   H27   1.082955 S    
O13   Cu7   1.950147 S    
C158  C172  1.420447 A    
O26   Cu6   1.947856 S    
C82   N26   1.438827 S    
C118  C126  1.444332 S    
C147  C163  1.402594 A    
C73   C89   1.410961 A    
N18   O51   1.301237 A    
C18   C58   1.404178 A    
N4    N15   1.331850 A    
N7    N12   1.331850 A    
C21   C37   1.397270 A    
C35   H19   1.082951 S    
C195  O85   1.222342 D    
O20   Cu4   1.947847 S    
N3    N16   1.331855 A    
C199  O93   1.223083 D    
C75   N19   1.440152 S    
C80   C96   1.410938 A    
O20   C10   1.290844 A    
N30   O75   1.301209 A    
C156  C172  1.420193 A    
C159  N39   1.438339 S    
N2    N13   1.331857 A    
N41   O129  1.301110 A    
O10   Cu6   1.950112 S    
C1    C169  1.477766 S    
Cu9   O33   1.949896 S    
N35   O117  1.301135 A    
O9    Cu5   1.949107 S    
O1    C1    1.290239 A    
C116  C124  1.445229 S    
N24   O63   1.301288 A    
C91   C195  1.479997 S    
C125  C133  1.204178 T    
C99   C203  1.486575 S    
C194  O84   1.397312 S    
O1    Cu1   1.949107 S    
O90   H53   1.013812 S    
