data_mof_unit_pretest_1388.cif
_audit_creation_date              2012-12-10T17:42:43-0500
_audit_creation_method            fapswitch 2.2
_symmetry_space_group_name_H-M    P1
_symmetry_Int_Tables_number       1
_space_group_crystal_system       triclinic
_cell_length_a                    9.878548
_cell_length_b                    10.726072
_cell_length_c                    13.142595
_cell_angle_alpha                 91.274543
_cell_angle_beta                  70.202852
_cell_angle_gamma                 89.409617
_cell_volume                      1309.69980673

loop_
_atom_site_label
_atom_site_type_symbol
_atom_type_description
_atom_site_fract_x
_atom_site_fract_y
_atom_site_fract_z
_atom_type_partial_charge
C1    C     C_R   0.504076 0.739353 0.487993 0.870516
C2    C     C_R   0.370058 0.475661 0.820387 -0.120822
C3    C     C_R   0.249335 0.889130 0.477745 -0.146213
C4    C     C_R   0.420705 0.491667 0.703581 0.845941
C5    C     C_R   0.115718 0.949303 0.522543 -0.148206
C6    C     C_R   0.104285 0.060247 0.581639 -0.156901
C7    C     C_R   0.228461 0.116991 0.586121 -0.150886
C8    C     C_R   0.365967 0.062059 0.531473 0.095046
C9    C     C_R   0.374240 0.939327 0.492336 0.072711
C10   C     C_R   0.507040 0.872569 0.470109 -0.174490
C11   C     C_R   0.637557 0.937841 0.449245 0.095377
C12   C     C_R   0.432889 0.465175 0.982939 0.084016
C13   C     C_R   0.628810 0.065047 0.468474 -0.251991
C14   C     C_R   0.495703 0.126694 0.510271 -0.162150
C15   C     C_R   0.795085 0.663271 0.643291 -0.164077
C16   C     C_R   0.496951 0.260268 0.507540 0.882967
C17   C     C_R   0.833079 0.739938 0.715665 -0.204094
C18   C     C_R   0.972378 0.736623 0.717226 -0.187011
C19   C     C_R   0.074849 0.657662 0.645519 -0.169875
C20   C     C_R   0.039902 0.578378 0.571548 0.147187
C21   C     C_R   0.895383 0.579626 0.570933 0.168305
C22   C     C_R   0.959895 0.424309 0.431914 -0.151998
C23   C     C_R   0.466437 0.435849 0.872214 0.087861
C24   C     C_R   0.103303 0.424577 0.431745 -0.118551
C25   C     C_R   0.579769 0.499664 0.295841 0.861830
C26   C     C_R   0.786758 0.386336 0.013669 -0.205873
C27   C     C_R   0.628127 0.483733 0.178982 -0.058320
C28   C     C_R   0.229293 0.513510 0.882125 -0.205609
C29   C     C_R   0.187917 0.521117 0.994056 -0.153277
C30   C     C_R   0.289388 0.501572 0.044412 -0.196015
C31   C     C_3   0.787803 0.878936 0.401799 -0.392325
C32   C     C_3   0.812991 0.817556 0.290199 -0.303614
C33   C     C_3   0.959123 0.750581 0.247955 -0.883015
C34   C     C_R   0.544125 0.456157 0.027583 0.079369
C35   C     C_R   0.678223 0.398302 0.967573 0.181604
C36   C     C_R   0.700549 0.351258 0.863497 -0.253195
C37   C     C_R   0.595732 0.369172 0.816414 -0.198530
C38   C     C_R   0.526407 0.506162 0.129715 -0.264089
C39   C     C_R   0.760675 0.426884 0.120300 -0.208141
H1    H     H_    0.840723 0.409095 0.157979 0.152167
H2    H     H_    0.001952 0.796952 0.773142 0.152519
H3    H     H_    0.180486 0.662243 0.649503 0.211684
H4    H     H_    0.799903 0.302376 0.817773 0.142992
H5    H     H_    0.183075 0.362942 0.376100 0.157256
H6    H     H_    0.889169 0.341618 0.968788 0.139238
H7    H     H_    0.431075 0.560078 0.174393 0.150018
H8    H     H_    0.152207 0.539937 0.843897 0.159501
H9    H     H_    0.251806 0.511668 0.131494 0.133042
H10   H     H_    0.078264 0.547110 0.041534 0.142429
H11   H     H_    0.616336 0.328359 0.736486 0.174499
H12   H     H_    0.253448 0.805704 0.429098 0.163459
H13   H     H_    0.046740 0.816493 0.243861 0.254671
H14   H     H_    0.962979 0.672741 0.301414 0.268514
H15   H     H_    0.976447 0.711920 0.165524 0.242906
H16   H     H_    0.728353 0.749002 0.293628 0.221518
H17   H     H_    0.808779 0.890421 0.232433 0.211005
H18   H     H_    0.871550 0.950805 0.391160 0.174728
H19   H     H_    0.809176 0.812908 0.458311 0.224755
H20   H     H_    0.020748 0.908212 0.513456 0.139084
H21   H     H_    0.999961 0.104519 0.620781 0.133908
H22   H     H_    0.215730 0.203781 0.632216 0.151664
H23   H     H_    0.727525 0.117059 0.448642 0.165968
H24   H     H_    0.931464 0.362583 0.376415 0.143434
H25   H     H_    0.686686 0.673916 0.646374 0.210534
H26   H     H_    0.753917 0.802923 0.770448 0.151232
N1    N     N_R   0.856860 0.501200 0.500990 -0.118500
N2    N     N_R   0.142450 0.501280 0.501020 -0.123629
O1    O     O_R   0.385310 0.683220 0.500000 -0.644473
O2    O     O_R   0.614640 0.683250 0.500010 -0.631958
O3    O     O_R   0.328400 0.499950 0.653610 -0.636713
O4    O     O_R   0.557730 0.499970 0.653620 -0.628314
O5    O     O_R   0.385360 0.316750 0.499990 -0.613692
O6    O     O_R   0.614690 0.316780 0.500000 -0.623989
O7    O     O_R   0.442270 0.500030 0.346380 -0.615396
O8    O     O_R   0.671600 0.500050 0.346390 -0.613520
Zn1   Zn    Zn3+2 0.346880 0.499980 0.499990 0.916684
Zn2   Zn    Zn3+2 0.653120 0.500020 0.500010 0.917310

loop_
_geom_bond_atom_site_label_1
_geom_bond_atom_site_label_2
_ccdc_geom_bond_type
C28   H8    S    
C21   N1    A    
C20   N2    A    
O2    Zn2   S    
C35   C36   A    
C16   O5    A    
O5    Zn1   S    
C4    O3    A    
C7    C8    A    
C29   H10   S    
C33   H13   S    
C12   C23   A    
O7    Zn1   S    
C31   H19   S    
C30   H9    S    
C28   C29   A    
C25   O7    A    
C5    C6    A    
C26   C39   A    
C27   C38   A    
C1    O1    A    
C34   C35   A    
C7    H22   S    
C24   N2    A    
C22   H24   S    
C22   N1    A    
C13   H23   S    
C19   C20   A    
C27   C39   A    
C8    C9    A    
C15   H25   S    
C9    C10   A    
C32   H16   S    
C26   H6    S    
C19   H3    S    
C11   C31   S    
C13   C14   A    
C33   H14   S    
C5    H20   S    
C16   O6    A    
C6    H21   S    
C18   H2    S    
C39   H1    S    
C3    H12   S    
C18   C19   A    
C23   C37   A    
C1    O2    A    
C25   O8    A    
C2    C4    S    
C29   C30   A    
C3    C9    A    
C31   C32   S    
C17   C18   A    
O8    Zn2   S    
O3    Zn1   S    
C24   H5    S    
C14   C16   S    
O1    Zn1   S    
C12   C34   A    
O4    Zn2   S    
C33   H15   S    
C15   C17   A    
N1    Zn2   S    
C36   C37   A    
C8    C14   A    
C12   C30   A    
C34   C38   A    
C1    C10   S    
C3    C5    A    
C6    C7    A    
C25   C27   S    
C17   H26   S    
C32   C33   S    
C31   H18   S    
C37   H11   S    
C11   C13   A    
C22   C24   A    
C38   H7    S    
C10   C11   A    
C26   C35   A    
C15   C21   A    
C20   C21   A    
C2    C23   A    
O6    Zn2   S    
C36   H4    S    
C2    C28   A    
N2    Zn1   S    
C32   H17   S    
C4    O4    A    
