data_mof_unit_pretest_1460.cif
_audit_creation_date              2013-03-05T15:58:07-0500
_audit_creation_method            fapswitch 2.2
_symmetry_space_group_name_H-M    P1
_symmetry_Int_Tables_number       1
_space_group_crystal_system       triclinic
_cell_length_a                    15.076442
_cell_length_b                    13.686301
_cell_length_c                    10.747687
_cell_angle_alpha                 89.8809
_cell_angle_beta                  89.92499
_cell_angle_gamma                 89.963353
_cell_volume                      2217.67836704

loop_
_atom_site_label
_atom_site_type_symbol
_atom_site_description
_atom_site_fract_x
_atom_site_fract_y
_atom_site_fract_z
_atom_type_partial_charge
O1    O     O_R   0.370250 0.582280 0.500040 -0.594795
O2    O     O_R   0.370250 0.417720 0.500040 -0.594581
C1    C     C_R   0.328463 0.500043 0.499958 0.797203
O3    O     O_R   0.499970 0.582270 0.317700 -0.562825
O4    O     O_R   0.499970 0.417730 0.317700 -0.574145
C2    C     C_R   0.501737 0.499933 0.259636 0.852013
Cu1   Cu    Cu3+1 0.499990 0.597420 0.500010 0.970166
Cu2   Cu    Cu3+1 0.499990 0.402580 0.500010 0.953439
O5    O     O_R   0.629730 0.582260 0.499980 -0.586612
O6    O     O_R   0.629730 0.417740 0.499980 -0.580328
O7    O     O_R   0.500000 0.582270 0.682320 -0.590700
O8    O     O_R   0.500000 0.417730 0.682320 -0.593042
C3    C     C_R   0.671490 0.500012 0.499686 0.881081
C4    C     C_R   0.499329 0.499788 0.740279 0.779728
C5    C     C_3   0.424754 0.560338 0.072432 -0.405346
C6    C     C_3   0.490811 0.393566 0.071293 -0.409659
H1    H     H_    0.424802 0.635875 0.109706 0.226256
H2    H     H_    0.542767 0.342565 0.105307 0.220593
H3    H     H_    0.361567 0.527021 0.105500 0.160667
H4    H     H_    0.426274 0.363993 0.105034 0.181219
C7    C     C_3   0.424499 0.562862 0.929352 -0.369484
C8    C     C_3   0.491015 0.393567 0.928856 -0.387577
H5    H     H_    0.359733 0.535465 0.894120 0.156639
H6    H     H_    0.428102 0.360613 0.894655 0.176597
H7    H     H_    0.431765 0.639793 0.897120 0.199953
H8    H     H_    0.546683 0.347047 0.895156 0.193626
H9    H     H_    0.599437 0.616742 0.886100 0.204196
H10   H     H_    0.644836 0.497608 0.881087 0.170884
C9    C     C_3   0.596369 0.540551 0.069118 0.584402
C10   C     C_3   0.504799 0.499382 0.121479 -0.024019
C11   C     C_3   0.501048 0.499333 0.877925 0.057448
C12   C     C_3   0.590528 0.541515 0.923484 -0.432058
C13   C     C_R   0.814751 0.413083 0.478334 -0.176006
C14   C     C_R   0.768248 0.500259 0.498576 -0.070495
C15   C     C_R   0.814220 0.587957 0.517504 -0.179518
C16   C     C_R   0.906821 0.589437 0.517130 0.015393
C17   C     C_R   0.953413 0.501236 0.496796 0.000698
C18   C     C_R   0.907093 0.412917 0.477196 0.131048
C19   C     C_R   0.953613 0.677234 0.536499 0.435836
C20   C     C_R   0.046527 0.675889 0.538443 -0.299399
C21   C     C_R   0.092926 0.588760 0.517767 0.045556
C22   C     C_R   0.046393 0.501006 0.496979 0.067083
C23   C     C_R   0.092851 0.412729 0.477531 0.127695
C24   C     C_R   0.046215 0.325674 0.457411 -0.208891
C25   C     C_R   0.953803 0.325761 0.457245 -0.189543
C26   C     C_R   0.185347 0.587818 0.518619 -0.216194
C27   C     C_R   0.231643 0.500238 0.499265 -0.073465
C28   C     C_R   0.185261 0.412955 0.478966 -0.251678
H11   H     H_    0.779165 0.345330 0.462997 0.154300
H12   H     H_    0.777642 0.655034 0.533020 0.191544
H13   H     H_    0.082270 0.742934 0.557251 0.153103
H14   H     H_    0.221154 0.655269 0.535011 0.150781
H15   H     H_    0.220971 0.345209 0.463736 0.154315
H16   H     H_    0.081208 0.257531 0.442233 0.142374
H17   H     H_    0.918854 0.257655 0.441939 0.144161
C29   C     C_R   0.441635 0.793181 0.574464 0.012154
C30   C     C_R   0.441910 0.206656 0.574859 0.004108
N1    N     N_R   0.499930 0.743810 0.499950 -0.193915
N2    N     N_R   0.499930 0.256190 0.499950 -0.187257
C31   C     C_R   0.558408 0.793457 0.425954 0.039338
C32   C     C_R   0.557972 0.206803 0.425070 0.005695
C33   C     C_R   0.559598 0.896492 0.423803 -0.018401
C34   C     C_R   0.559403 0.103719 0.423363 -0.009369
C35   C     C_R   0.499967 0.948196 0.500099 0.086149
C36   C     C_R   0.499961 0.051849 0.500041 0.093225
C37   C     C_R   0.440350 0.896286 0.576460 -0.000900
C38   C     C_R   0.440478 0.103571 0.576612 -0.004052
C39   C     C_R   0.618639 0.948793 0.347372 -0.171077
C40   C     C_R   0.618496 0.051492 0.347071 -0.207586
C41   C     C_R   0.381243 0.051204 0.652732 -0.200949
C42   C     C_R   0.381138 0.948490 0.652593 -0.193836
H18   H     H_    0.396262 0.752135 0.632629 0.122360
H19   H     H_    0.396776 0.247575 0.633385 0.124722
H20   H     H_    0.604160 0.752710 0.368646 0.189688
H21   H     H_    0.603125 0.247830 0.366545 0.155408
H22   H     H_    0.664860 0.910263 0.287789 0.172949
H23   H     H_    0.664627 0.090042 0.287232 0.151206
H24   H     H_    0.334955 0.089658 0.712296 0.137894
H25   H     H_    0.334764 0.909911 0.712034 0.138506
N3    N     N_R   0.612995 0.640770 0.114777 0.104788
O9    O     O_R   0.566124 0.714461 0.075298 -0.412754
O10   O     O_R   0.678897 0.658056 0.189765 -0.344969
N4    N     N_R   0.672634 0.478164 0.105768 0.101196
O11   O     O_R   0.749765 0.493340 0.054533 -0.329583
O12   O     O_R   0.670149 0.424209 0.205525 -0.412876
O13   O     O_3   0.908430 0.762503 0.564400 -0.608876
C43   C     C_3   0.911693 0.825715 0.460517 0.038225
H26   H     H_    0.885015 0.788898 0.375935 0.160348
H27   H     H_    0.981075 0.849921 0.442557 0.145148
C44   C     C_3   0.854799 0.915690 0.487614 -0.302471
H28   H     H_    0.784717 0.892865 0.501584 0.225435
H29   H     H_    0.878406 0.951066 0.574490 0.231686
C45   C     C_3   0.859342 0.989712 0.381408 -0.927171
H30   H     H_    0.928701 0.014796 0.367357 0.256031
H31   H     H_    0.817663 0.054105 0.404457 0.256320
H32   H     H_    0.834427 0.956692 0.293858 0.263829

loop_
_geom_bond_atom_site_label_1
_geom_bond_atom_site_label_2
_geom_bond_distance
_ccdc_geom_bond_type
C43   H26   1.115878 S    
C34   C36   1.408089 A    
C45   H30   1.110833 S    
C41   H24   1.083329 S    
C21   C22   1.409669 A    
C40   H23   1.083313 S    
C15   C16   1.396251 A    
C4    C11   1.479645 S    
C42   H25   1.083343 S    
Cu1   Cu2   2.666638 S    
C32   H21   1.082704 S    
C5    H3    1.113899 S    
C7    C11   1.546752 S    
C9    C10   1.593018 S    
C44   C45   1.526124 S    
N4    O11   1.302605 A    
C16   C17   1.413498 A    
C9    N4    1.484859 S    
C9    C12   1.567847 S    
Cu2   N2    2.003540 S    
O4    C2    1.285685 A    
Cu2   O6    1.967124 S    
O7    C4    1.288241 A    
C30   N2    1.367329 A    
C6    C10   1.560992 S    
C26   H14   1.084544 S    
C31   C33   1.410431 A    
C14   C15   1.401731 A    
C30   H19   1.082668 S    
C17   C22   1.401813 A    
C32   C34   1.411151 A    
O5    C3    1.289433 A    
C18   C25   1.401566 A    
C33   C35   1.407505 A    
C11   C12   1.548173 S    
C39   C40   1.405572 A    
C29   H18   1.082698 S    
C21   C26   1.393475 A    
C41   C42   1.405776 A    
C23   C28   1.393319 A    
Cu1   N1    2.003536 S    
Cu2   O8    1.970780 S    
C45   H31   1.110274 S    
C30   C38   1.411124 A    
O3    Cu1   1.970780 S    
C28   H15   1.084479 S    
N2    C32   1.367464 A    
C8    C11   1.553914 S    
C27   C28   1.402192 A    
C34   C40   1.405948 A    
H10   C12   1.112955 S    
N3    O10   1.302260 A    
C19   C20   1.401100 A    
O13   C43   1.411858 S    
C36   C38   1.407927 A    
O1    C1    1.290197 A    
C35   C37   1.408055 A    
Cu1   O7    1.969923 S    
C23   C24   1.401164 A    
C17   C18   1.412694 A    
C44   H29   1.111698 S    
C37   C42   1.405936 A    
C6    H4    1.114002 S    
C15   H12   1.083720 S    
C13   C14   1.400718 A    
O3    C2    1.289521 A    
C20   C21   1.400129 A    
N4    O12   1.301104 A    
O8    C4    1.285417 A    
C45   H32   1.110690 S    
C43   H27   1.113939 S    
C8    H6    1.113703 S    
C22   C23   1.411949 A    
C24   C25   1.393255 A    
C5    C10   1.558448 S    
C31   H20   1.079809 S    
Cu1   O5    1.966860 S    
C7    H7    1.113163 S    
C26   C27   1.402420 A    
C6    C8    1.530876 S    
C2    C10   1.485554 S    
H9    C12   1.112579 S    
O1    Cu1   1.967094 S    
C16   C19   1.409754 A    
O2    Cu2   1.966830 S    
N3    O9    1.301803 A    
O6    C3    1.290408 A    
O4    Cu2   1.969923 S    
C5    H1    1.109502 S    
C13   H11   1.084604 S    
C39   H22   1.083299 S    
C20   H13   1.083948 S    
C13   C18   1.392215 A    
C33   C39   1.405688 A    
C38   C41   1.406059 A    
C35   C36   1.418628 A    
C7    H5    1.113304 S    
O2    C1    1.290522 A    
C3    C14   1.458812 S    
C44   H28   1.111902 S    
C9    N3    1.479382 S    
C29   C37   1.411455 A    
C1    C27   1.459726 S    
C29   N1    1.367492 A    
C24   H16   1.083740 S    
C5    C7    1.538106 S    
C25   H17   1.083975 S    
C6    H2    1.110597 S    
C8    H8    1.113737 S    
C43   C44   1.528553 S    
C19   O13   1.384112 S    
N1    C31   1.366802 A    
