data_mof_unit_pretest_1465.cif
_audit_creation_date              2012-12-10T19:16:49-0500
_audit_creation_method            fapswitch 2.2
_symmetry_space_group_name_H-M    P1
_symmetry_Int_Tables_number       1
_space_group_crystal_system       triclinic
_cell_length_a                    15.980922
_cell_length_b                    14.728914
_cell_length_c                    10.960481
_cell_angle_alpha                 90.531727
_cell_angle_beta                  89.68054
_cell_angle_gamma                 90.129752
_cell_volume                      2579.73832388

loop_
_atom_site_label
_atom_site_type_symbol
_atom_type_description
_atom_site_fract_x
_atom_site_fract_y
_atom_site_fract_z
_atom_type_partial_charge
C1    C     C_R   0.341029 0.499985 0.495640 0.864138
C2    C     C_3   0.516954 0.397788 0.927101 0.526771
C3    C     C_R   0.956255 0.580979 0.467247 0.304629
C4    C     C_R   0.955696 0.420104 0.521318 0.298662
C5    C     C_R   0.912851 0.500498 0.493990 -0.166362
C6    C     C_R   0.043862 0.418424 0.516161 0.235941
C7    C     C_R   0.044368 0.582739 0.472964 0.242134
C8    C     C_R   0.087443 0.500558 0.494444 -0.234518
C9    C     C_1   0.823009 0.500481 0.493983 0.208952
C10   C     C_1   0.177233 0.500411 0.494343 0.199839
C11   C     C_1   0.252198 0.500104 0.494608 0.060159
C12   C     C_1   0.748018 0.500340 0.494595 0.023176
C13   C     C_R   0.576183 0.951849 0.487592 0.272739
C14   C     C_R   0.576250 0.048360 0.504198 0.278657
C15   C     C_R   0.499897 0.499532 0.259923 1.005828
C16   C     C_R   0.499484 0.903158 0.494007 -0.297770
C17   C     C_R   0.500011 0.097077 0.495005 -0.289625
C18   C     C_R   0.422791 0.952117 0.496388 0.273099
C19   C     C_R   0.423707 0.048534 0.481316 0.216957
C20   C     C_1   0.499701 0.802705 0.497569 0.526927
C21   C     C_1   0.500075 0.197355 0.498058 0.519744
C22   C     C_R   0.659055 0.500082 0.496425 0.885003
C23   C     C_R   0.499223 0.500463 0.741232 1.021322
C24   C     C_3   0.566124 0.573051 0.073729 0.454654
C25   C     C_3   0.405801 0.526583 0.082089 0.462296
C26   C     C_3   0.578256 0.566134 0.927929 0.412138
C27   C     C_3   0.403009 0.531589 0.934855 0.372373
C28   C     C_3   0.519118 0.398443 0.071617 0.511658
C29   C     C_3   0.497976 0.499259 0.123030 -0.524191
C30   C     C_3   0.498913 0.501081 0.879331 -0.613564
Cu1   Cu    Cu3+1 0.500000 0.589220 0.500040 1.194430
Cu2   Cu    Cu3+1 0.500000 0.410780 0.500040 1.204142
N1    N     N_1   0.499980 0.276710 0.500040 -0.106039
N2    N     N_1   0.499980 0.723290 0.500040 -0.094585
O1    O     O_R   0.380310 0.575320 0.500060 -0.560959
O2    O     O_R   0.380310 0.424680 0.500060 -0.524411
O3    O     O_R   0.499990 0.575340 0.317720 -0.526060
O4    O     O_R   0.499990 0.424660 0.317720 -0.538725
O5    O     O_R   0.619690 0.575360 0.500000 -0.555293
O6    O     O_R   0.619690 0.424640 0.500000 -0.567962
O7    O     O_R   0.500010 0.575340 0.682340 -0.513158
O8    O     O_R   0.500010 0.424660 0.682340 -0.514313
Cl1   Cl    Cl    0.662720 0.563818 0.158749 -0.406943
Cl2   Cl    Cl    0.327689 0.454956 0.151645 -0.391936
S1    S     S_3+6 0.327059 0.891435 0.519898 0.134942
O9    O     O_2   0.297339 0.854630 0.399292 -0.180069
O10   O     O_2   0.341008 0.813591 0.604678 -0.219936
O11   O     O_3   0.252350 0.957378 0.582686 -0.388336
H1    H     H_    0.201038 0.919520 0.581723 0.417012
S2    S     S_3+6 0.331242 0.109625 0.441067 0.153216
O12   O     O_2   0.288706 0.142515 0.555767 -0.113731
O13   O     O_2   0.352494 0.190644 0.364324 -0.229642
O14   O     O_3   0.264307 0.044523 0.360863 -0.381278
H2    H     H_    0.294322 0.030039 0.283815 0.380295
Cl3   Cl    Cl    0.540957 0.687296 0.121418 -0.317845
Cl4   Cl    Cl    0.366358 0.626024 0.163821 -0.329894
S3    S     S_3+6 0.593022 0.679300 0.849080 0.173619
O15   O     O_2   0.518398 0.728729 0.803210 -0.175974
O16   O     O_2   0.641546 0.743482 0.929728 -0.138056
O17   O     O_3   0.651690 0.664497 0.722135 -0.472038
H3    H     H_    0.679972 0.723345 0.708456 0.403354
S4    S     S_3+6 0.365309 0.646447 0.892458 0.170240
O18   O     O_2   0.276423 0.660319 0.934426 -0.147216
O19   O     O_2   0.411755 0.722341 0.953815 -0.110987
O20   O     O_3   0.365982 0.660885 0.740859 -0.444044
H4    H     H_    0.312391 0.634849 0.712043 0.368948
S5    S     S_3+6 0.686200 0.522659 0.890763 0.136062
O21   O     O_2   0.689248 0.490790 0.760336 -0.296963
O22   O     O_2   0.748903 0.598604 0.903879 -0.146653
O23   O     O_3   0.725748 0.440172 0.977651 -0.387798
H5    H     H_    0.780771 0.425278 0.940574 0.409809
S6    S     S_3+6 0.315328 0.459191 0.871679 0.110038
O24   O     O_2   0.232437 0.506988 0.875219 -0.197347
O25   O     O_2   0.332687 0.436685 0.740693 -0.323146
O26   O     O_3   0.296295 0.360588 0.943654 -0.364750
H6    H     H_    0.252558 0.329703 0.894677 0.419976
Cl5   Cl    Cl    0.616392 0.358324 0.133642 -0.347213
Cl6   Cl    Cl    0.452993 0.308541 0.131949 -0.308975
Cl7   Cl    Cl    0.605165 0.338960 0.860930 -0.325725
Cl8   Cl    Cl    0.448762 0.310881 0.866063 -0.314507
S7    S     S_3+6 0.102017 0.685767 0.450496 0.145500
O27   O     O_2   0.135230 0.685955 0.321995 -0.128797
O28   O     O_2   0.049678 0.769231 0.470562 -0.141080
O29   O     O_3   0.183503 0.691561 0.546714 -0.489768
H7    H     H_    0.158176 0.690113 0.629367 0.362379
S8    S     S_3+6 0.101154 0.315690 0.539779 0.156581
O30   O     O_2   0.134999 0.317391 0.667402 -0.175461
O31   O     O_2   0.048569 0.231850 0.523232 -0.118149
O32   O     O_3   0.182204 0.308807 0.441557 -0.441334
H8    H     H_    0.156558 0.310099 0.359527 0.376072
Cl9   Cl    Cl    0.897968 0.677612 0.423974 -0.388579
Cl10  Cl    Cl    0.896596 0.323576 0.564765 -0.400077
S9    S     S_3+6 0.670424 0.109697 0.537194 0.144106
O33   O     O_2   0.733163 0.051019 0.600510 -0.121338
O34   O     O_2   0.707265 0.143309 0.419430 -0.188930
O35   O     O_3   0.650386 0.199312 0.628986 -0.482613
H9    H     H_    0.701561 0.237305 0.625461 0.414354
S10   S     S_3+6 0.670479 0.891415 0.452789 0.132365
O36   O     O_2   0.730410 0.950074 0.382481 -0.117461
O37   O     O_2   0.710583 0.862891 0.569971 -0.231889
O38   O     O_3   0.650667 0.798400 0.367275 -0.486007
H10   H     H_    0.702851 0.762282 0.369383 0.414780

loop_
_geom_bond_atom_site_label_1
_geom_bond_atom_site_label_2
_ccdc_geom_bond_type
S9    O33   D    
C1    C11   S    
C25   Cl4   S    
S7    O27   D    
C7    C8    A    
S1    O9    D    
C24   Cl3   S    
O38   H10   S    
C23   O8    A    
C26   S5    S    
Cu2   O2    S    
C28   C29   S    
C24   C26   S    
C3    C7    A    
S8    O31   D    
S3    O16   D    
C21   N1    T    
C12   C22   S    
C3    Cl9   S    
C18   C19   A    
C13   S10   S    
C24   C29   S    
C15   O3    A    
S4    O19   D    
C2    Cl7   S    
S2    O13   D    
O23   H5    S    
Cu2   O4    S    
C28   Cl6   S    
C14   S9    S    
C20   N2    T    
S9    O34   D    
C13   C14   A    
C27   C30   S    
C14   C17   A    
S6    O26   S    
C25   Cl2   S    
S7    O28   D    
C15   C29   S    
S1    O10   D    
C25   C29   S    
S2    O14   S    
S5    O21   D    
C23   C30   S    
O29   H7    S    
S6    O25   D    
C10   C11   T    
S8    O30   D    
C4    C5    A    
S3    O17   S    
C6    C8    A    
O14   H2    S    
C17   C21   S    
Cu1   O3    S    
O17   H3    S    
S5    O22   D    
O26   H6    S    
C15   O4    A    
C5    C9    S    
S4    O18   D    
C27   S4    S    
Cu1   Cu2   S    
C16   C20   S    
C22   O6    A    
O35   H9    S    
S2    O12   D    
Cu1   N2    S    
C16   C18   A    
C28   Cl5   S    
C4    C6    A    
O11   H1    S    
C7    S7    S    
C26   C30   S    
S9    O35   S    
S10   O37   D    
Cu1   O1    S    
C18   S1    S    
S7    O29   S    
C1    O1    A    
S1    O11   S    
Cu1   O7    S    
S4    O20   S    
S6    O24   D    
C3    C5    A    
S8    O32   S    
C23   O7    A    
C25   C27   S    
S10   O38   S    
C6    S8    S    
C2    C30   S    
S5    O23   S    
Cu2   N1    S    
O20   H4    S    
C19   S2    S    
S3    O15   D    
C22   O5    A    
C17   C19   A    
Cu1   O5    S    
Cu2   O6    S    
C26   S3    S    
C2    Cl8   S    
C9    C12   T    
C8    C10   S    
S10   O36   D    
C13   C16   A    
C24   Cl1   S    
Cu2   O8    S    
C2    C28   S    
O32   H8    S    
C27   S6    S    
C1    O2    A    
C4    Cl10  S    
