data_mof_unit_pretest_317.cif
_audit_creation_date              2012-12-11T21:05:54-0500
_audit_creation_method            fapswitch 2.2
_symmetry_space_group_name_H-M    P1
_symmetry_Int_Tables_number       1
_space_group_crystal_system       triclinic
_cell_length_a                    36.471857
_cell_length_b                    39.458178
_cell_length_c                    8.392468
_cell_angle_alpha                 90.0
_cell_angle_beta                  93.731021
_cell_angle_gamma                 89.999792
_cell_volume                      12052.1117072

loop_
_atom_site_label
_atom_site_type_symbol
_atom_type_description
_atom_site_fract_x
_atom_site_fract_y
_atom_site_fract_z
_atom_type_partial_charge
Ba1   Ba    Ba6+2 0.000060 0.523150 0.844950 1.755065
Ba2   Ba    Ba6+2 0.000060 0.476850 0.344950 1.755086
Ba3   Ba    Ba6+2 0.500060 0.023150 0.844950 1.755119
Ba4   Ba    Ba6+2 0.500060 0.976850 0.344950 1.755130
C1    C     C_3   0.987593 0.691458 0.643760 -0.305075
C2    C     C_2   0.909206 0.635052 0.294768 -0.082514
C3    C     C_R   0.631233 0.814331 0.692115 0.607910
C4    C     C_2   0.091339 0.634786 0.396158 -0.138673
C5    C     C_2   0.091341 0.365213 0.896148 -0.138647
C6    C     C_2   0.591336 0.134792 0.396118 -0.138749
C7    C     C_2   0.591334 0.865207 0.896112 -0.138839
C8    C     C_3   0.057980 0.612723 0.415193 -0.110176
C9    C     C_3   0.057984 0.387279 0.915193 -0.109964
C10   C     C_3   0.557980 0.112724 0.415175 -0.110099
C11   C     C_3   0.557978 0.887274 0.915171 -0.110253
C12   C     C_1   0.081618 0.575330 0.210458 -0.038026
C13   C     C_2   0.409200 0.864957 0.794728 -0.082521
C14   C     C_1   0.081621 0.424672 0.710461 -0.037991
C15   C     C_1   0.581623 0.075328 0.210465 -0.038020
C16   C     C_1   0.581623 0.924673 0.710474 -0.038060
C17   C     C_2   0.107859 0.597311 0.178198 0.591645
C18   C     C_2   0.107865 0.402692 0.678209 0.591689
C19   C     C_2   0.607872 0.097304 0.178233 0.591691
C20   C     C_2   0.607875 0.902699 0.678253 0.591676
C21   C     C_2   0.113897 0.628661 0.277594 0.167026
C22   C     C_2   0.113899 0.371340 0.777591 0.167077
C23   C     C_2   0.613900 0.128660 0.277588 0.167172
C24   C     C_2   0.409203 0.135047 0.294743 -0.082547
C25   C     C_2   0.613902 0.871342 0.777597 0.167247
C26   C     C_R   0.739478 0.283555 0.044473 0.034264
C27   C     C_R   0.739478 0.716456 0.544355 0.034264
C28   C     C_R   0.239493 0.783583 0.045000 0.034252
C29   C     C_R   0.239486 0.216429 0.544767 0.034257
C30   C     C_R   0.777297 0.274724 0.062047 0.057509
C31   C     C_R   0.777298 0.725278 0.562037 0.057512
C32   C     C_R   0.277305 0.774719 0.062095 0.057517
C33   C     C_R   0.277301 0.225278 0.562071 0.057513
C34   C     C_R   0.788078 0.241829 0.116398 0.019689
C35   C     C_3   0.942560 0.387049 0.774573 -0.105299
C36   C     C_R   0.788079 0.758166 0.616491 0.019688
C37   C     C_R   0.288078 0.741791 0.115979 0.019683
C38   C     C_R   0.288078 0.258192 0.616158 0.019686
C39   C     C_3   0.896163 0.522720 0.142596 0.291600
C40   C     C_3   0.896164 0.477279 0.642600 0.291610
C41   C     C_3   0.396161 0.022719 0.142600 0.291637
C42   C     C_3   0.396161 0.977282 0.642608 0.291667
C43   C     C_R   0.730231 0.316178 0.983532 -0.097686
C44   C     C_R   0.730231 0.683840 0.483325 -0.097684
C45   C     C_R   0.230251 0.816243 0.984542 -0.097684
C46   C     C_3   0.942557 0.612949 0.274566 -0.105010
C47   C     C_R   0.230241 0.183784 0.484100 -0.097683
C48   C     C_R   0.852499 0.258681 0.101555 -0.057451
C49   C     C_R   0.852501 0.741305 0.601714 -0.057455
C50   C     C_R   0.352496 0.758604 0.100622 -0.057474
C51   C     C_R   0.352497 0.241361 0.601022 -0.057466
C52   C     C_R   0.269754 0.683468 0.192834 -0.090371
C53   C     C_R   0.269760 0.316507 0.693160 -0.090374
C54   C     C_R   0.769768 0.183523 0.193590 -0.090371
C55   C     C_R   0.769773 0.816463 0.693837 -0.090365
C56   C     C_R   0.242946 0.659948 0.226919 -0.024909
C57   C     C_3   0.442553 0.887056 0.774544 -0.105044
C58   C     C_R   0.242953 0.340029 0.727228 -0.024916
C59   C     C_R   0.742961 0.159999 0.227642 -0.024919
C60   C     C_R   0.742967 0.839986 0.727894 -0.024929
C61   C     C_R   0.826170 0.234765 0.136841 -0.098009
C62   C     C_R   0.826171 0.765222 0.637008 -0.098003
C63   C     C_R   0.326166 0.734690 0.135923 -0.098013
C64   C     C_R   0.326167 0.265277 0.636317 -0.098015
C65   C     C_3   0.862633 0.545723 0.132442 -0.333240
C66   C     C_3   0.862635 0.454276 0.632440 -0.333251
C67   C     C_3   0.362630 0.045721 0.132451 -0.333262
C68   C     C_3   0.442557 0.112947 0.274558 -0.105171
C69   C     C_3   0.362629 0.954280 0.632451 -0.333296
C70   C     C_3   0.103964 0.476937 0.047582 0.433008
C71   C     C_3   0.103961 0.523063 0.547580 0.432993
C72   C     C_3   0.603960 0.976935 0.047590 0.432989
C73   C     C_3   0.603959 0.023065 0.547591 0.432993
C74   C     C_3   0.137427 0.453760 0.058716 1.268695
C75   C     C_3   0.137425 0.546240 0.558692 1.268664
C76   C     C_3   0.637422 0.953756 0.058739 1.268590
C77   C     C_3   0.637421 0.046243 0.558708 1.268619
C78   C     C_3   0.003569 0.658540 0.585084 0.317339
C79   C     C_1   0.919008 0.424596 0.978487 0.033811
C80   C     C_3   0.003528 0.341492 0.085095 0.317665
C81   C     C_3   0.503567 0.158539 0.585021 0.317487
C82   C     C_3   0.503620 0.841423 0.084926 0.317196
C83   C     C_R   0.821814 0.355407 0.932560 0.594123
C84   C     C_R   0.821814 0.644601 0.432468 0.594125
C85   C     C_R   0.321829 0.855432 0.933061 0.594119
C86   C     C_R   0.321821 0.144578 0.432835 0.594122
C87   C     C_1   0.919006 0.575403 0.478484 0.033838
C88   C     C_1   0.419011 0.924595 0.978501 0.033848
C89   C     C_3   0.987580 0.308553 0.143673 -0.305118
C90   C     C_1   0.419010 0.075404 0.478492 0.033830
C91   C     C_2   0.892735 0.402822 0.011090 -0.090730
C92   C     C_2   0.892733 0.597178 0.511082 -0.090715
C93   C     C_2   0.392752 0.902811 0.011156 -0.090612
C94   C     C_2   0.392744 0.097184 0.511121 -0.090675
C95   C     C_2   0.886680 0.371340 0.913206 0.231476
C96   C     C_2   0.886679 0.628660 0.413202 0.231470
C97   C     C_2   0.386687 0.871335 0.913232 0.231321
C98   C     C_2   0.386683 0.128662 0.413214 0.231380
C99   C     C_R   0.804653 0.299072 0.024984 -0.082413
C100  C     C_3   0.487577 0.191452 0.643675 -0.305187
C101  C     C_R   0.804654 0.700929 0.524976 -0.082406
C102  C     C_R   0.304661 0.799065 0.025022 -0.082405
C103  C     C_R   0.304657 0.200931 0.525001 -0.082409
C104  C     C_R   0.794431 0.331620 0.968501 -0.035910
C105  C     C_R   0.794430 0.668389 0.468403 -0.035910
C106  C     C_R   0.294445 0.831647 0.969020 -0.035912
C107  C     C_R   0.294438 0.168364 0.468788 -0.035913
C108  C     C_R   0.757049 0.339599 0.947431 -0.055032
C109  C     C_R   0.757049 0.660418 0.447236 -0.055035
C110  C     C_R   0.257070 0.839663 0.948439 -0.055047
C111  C     C_3   0.487578 0.808542 0.143701 -0.305166
C112  C     C_R   0.257060 0.160364 0.447996 -0.055037
C113  C     C_R   0.842258 0.290878 0.044574 -0.030608
C114  C     C_R   0.842259 0.709115 0.544654 -0.030627
C115  C     C_R   0.342260 0.790836 0.044122 -0.030616
C116  C     C_R   0.342258 0.209144 0.544314 -0.030609
C117  C     C_3   0.996876 0.658692 0.103970 0.311872
C118  C     C_3   0.996777 0.341238 0.604105 0.311189
C119  C     C_3   0.496798 0.158746 0.104086 0.311322
C120  C     C_3   0.496814 0.841268 0.604070 0.311421
C121  C     C_2   0.941968 0.419951 0.864495 -0.267160
C122  C     C_R   0.868970 0.315101 0.007622 0.594235
C123  C     C_2   0.941966 0.580048 0.364493 -0.267242
C124  C     C_2   0.441960 0.919957 0.864464 -0.267171
C125  C     C_2   0.441964 0.080046 0.364477 -0.267173
C126  C     C_2   0.058696 0.579880 0.324893 -0.383999
C127  C     C_2   0.058699 0.420122 0.824894 -0.383986
C128  C     C_2   0.558696 0.079881 0.324878 -0.383941
C129  C     C_2   0.558695 0.920119 0.824881 -0.383887
C130  C     C_R   0.212287 0.759683 0.087815 -0.050723
C131  C     C_R   0.212279 0.240327 0.587591 -0.050719
C132  C     C_R   0.712270 0.259659 0.087309 -0.050706
C133  C     C_R   0.868971 0.684892 0.507705 0.594263
C134  C     C_R   0.712268 0.740352 0.587176 -0.050703
C135  C     C_R   0.260692 0.717224 0.148782 0.033496
C136  C     C_R   0.260693 0.282761 0.648945 0.033498
C137  C     C_R   0.760694 0.217256 0.149162 0.033498
C138  C     C_R   0.760696 0.782737 0.649272 0.033500
C139  C     C_R   0.222891 0.726446 0.136857 0.051807
C140  C     C_R   0.222888 0.273552 0.636828 0.051807
C141  C     C_R   0.722884 0.226449 0.136795 0.051809
C142  C     C_R   0.722884 0.773553 0.636786 0.051811
C143  C     C_R   0.174669 0.768227 0.087149 -0.083346
C144  C     C_R   0.368973 0.815058 0.007174 0.594211
C145  C     C_R   0.174655 0.231792 0.586747 -0.083346
C146  C     C_R   0.674639 0.268181 0.086231 -0.083366
C147  C     C_R   0.674633 0.731838 0.585962 -0.083368
C148  C     C_R   0.148041 0.745146 0.129318 0.415880
C149  C     C_R   0.148028 0.254873 0.628933 0.415868
C150  C     C_R   0.648010 0.245103 0.128422 0.415837
C151  C     C_R   0.648003 0.754916 0.628152 0.415841
C152  C     C_R   0.157828 0.711127 0.166263 -0.100571
C153  C     C_R   0.157820 0.288882 0.666068 -0.100582
C154  C     C_R   0.657811 0.211105 0.165808 -0.100573
C155  C     C_R   0.368971 0.184922 0.507364 0.594218
C156  C     C_R   0.657808 0.788906 0.665674 -0.100569
C157  C     C_R   0.195447 0.702137 0.173932 -0.121223
C158  C     C_R   0.195444 0.297861 0.673904 -0.121216
C159  C     C_R   0.695441 0.202140 0.173870 -0.121203
C160  C     C_R   0.695441 0.797863 0.673863 -0.121197
C161  C     C_R   0.205711 0.668762 0.218405 -0.045467
C162  C     C_R   0.205714 0.331226 0.718545 -0.045440
C163  C     C_R   0.705716 0.168787 0.218734 -0.045421
C164  C     C_R   0.705719 0.831207 0.718857 -0.045405
C165  C     C_3   0.012903 0.691559 0.044908 -0.284492
C166  C     C_2   0.909207 0.364948 0.794769 -0.082580
C167  C     C_3   0.012889 0.308426 0.544855 -0.284301
C168  C     C_3   0.512885 0.191574 0.044867 -0.284180
C169  C     C_3   0.512886 0.808431 0.544891 -0.284114
C170  C     C_R   0.178577 0.644777 0.253851 0.687945
C171  C     C_R   0.178580 0.355212 0.753981 0.687902
C172  C     C_R   0.678583 0.144800 0.254163 0.687861
C173  C     C_R   0.678586 0.855194 0.754285 0.687839
C174  C     C_R   0.131243 0.685706 0.192626 0.607726
C175  C     C_R   0.131239 0.314304 0.692464 0.607803
C176  C     C_R   0.631234 0.185681 0.192238 0.607873
F1    F     F_    0.164455 0.466709 0.967782 -0.594133
F2    F     F_    0.129203 0.408170 0.553657 -0.607991
F3    F     F_    0.629224 0.091816 0.053735 -0.607987
F4    F     F_    0.629234 0.908192 0.553783 -0.607979
F5    F     F_    0.164448 0.533291 0.467727 -0.594147
F6    F     F_    0.664451 0.966701 0.967803 -0.594094
F7    F     F_    0.664444 0.033297 0.467730 -0.594111
F8    F     F_    0.150989 0.450995 0.215995 -0.591045
F9    F     F_    0.150995 0.549002 0.715964 -0.591051
F10   F     F_    0.650983 0.950992 0.216021 -0.591018
F11   F     F_    0.650993 0.049002 0.715978 -0.591024
F12   F     F_    0.129189 0.591838 0.053613 -0.607998
H1    H     H_    0.980492 0.641125 0.549339 0.018640
H2    H     H_    0.870205 0.428644 0.677497 0.081226
H3    H     H_    0.519842 0.858668 0.640672 0.013866
H4    H     H_    0.981445 0.665396 0.209425 -0.042843
H5    H     H_    0.981237 0.334454 0.709117 -0.042060
H6    H     H_    0.481282 0.165509 0.209220 -0.042270
H7    H     H_    0.481319 0.834520 0.709279 -0.042436
H8    H     H_    0.032396 0.686233 0.952043 0.174386
H9    H     H_    0.032403 0.313824 0.452164 0.174663
H10   H     H_    0.532393 0.186194 0.952114 0.174704
H11   H     H_    0.532397 0.813799 0.452142 0.174725
H12   H     H_    0.990597 0.708499 0.996277 0.096811
H13   H     H_    0.370200 0.071353 0.177511 0.081163
H14   H     H_    0.990630 0.291467 0.495944 0.096690
H15   H     H_    0.490610 0.208527 0.996035 0.096710
H16   H     H_    0.490604 0.791485 0.496063 0.096744
H17   H     H_    0.906075 0.519993 0.269107 0.002924
H18   H     H_    0.906075 0.480007 0.769111 0.002927
H19   H     H_    0.406073 0.019991 0.269110 0.002932
H20   H     H_    0.406069 0.980011 0.769121 0.002935
H21   H     H_    0.917784 0.534566 0.073907 0.076354
H22   H     H_    0.917786 0.465434 0.573915 0.076357
H23   H     H_    0.417782 0.034566 0.073912 0.076336
H24   H     H_    0.370198 0.928649 0.677528 0.081113
H25   H     H_    0.417783 0.965434 0.573933 0.076318
H26   H     H_    0.103620 0.749515 0.238711 0.325504
H27   H     H_    0.103585 0.250487 0.738160 0.325487
H28   H     H_    0.603531 0.249508 0.237394 0.325458
H29   H     H_    0.603508 0.750503 0.736987 0.325450
H30   H     H_    0.851610 0.547967 0.006358 0.134059
H31   H     H_    0.851615 0.452030 0.506355 0.134055
H32   H     H_    0.351608 0.047967 0.006366 0.134049
H33   H     H_    0.351611 0.952031 0.506362 0.134048
H34   H     H_    0.094221 0.479700 0.920904 -0.184729
H35   H     H_    0.094214 0.520301 0.420908 -0.184718
H36   H     H_    0.594219 0.979696 0.920911 -0.184778
H37   H     H_    0.980442 0.358912 0.049628 0.018783
H38   H     H_    0.594211 0.020304 0.420919 -0.184783
H39   H     H_    0.082132 0.465212 0.115469 -0.062334
H40   H     H_    0.082132 0.534789 0.615484 -0.062273
H41   H     H_    0.582127 0.965212 0.115480 -0.062327
H42   H     H_    0.582130 0.034789 0.615501 -0.062294
H43   H     H_    0.129682 0.428175 0.013690 -0.252138
H44   H     H_    0.129679 0.571825 0.513681 -0.252139
H45   H     H_    0.629675 0.928170 0.013723 -0.251888
H46   H     H_    0.629673 0.071829 0.513712 -0.251999
H47   H     H_    0.018969 0.665153 0.479396 -0.041773
H48   H     H_    0.480502 0.141124 0.549237 0.018500
H49   H     H_    0.018884 0.334915 0.979248 -0.042236
H50   H     H_    0.518972 0.165153 0.479379 -0.041920
H51   H     H_    0.519091 0.834757 0.979524 -0.041511
H52   H     H_    0.972531 0.704613 0.542548 0.121086
H53   H     H_    0.972523 0.295404 0.042433 0.121075
H54   H     H_    0.472525 0.204606 0.542442 0.121137
H55   H     H_    0.472537 0.795376 0.042477 0.121151
H56   H     H_    0.968153 0.686211 0.736933 0.168295
H57   H     H_    0.968142 0.313771 0.236884 0.168168
H58   H     H_    0.468127 0.186199 0.736799 0.168177
H59   H     H_    0.480575 0.858834 0.048728 0.018130
H60   H     H_    0.468110 0.813840 0.236703 0.168236
H61   H     H_    0.027907 0.704796 0.146022 0.127460
H62   H     H_    0.027886 0.295173 0.645938 0.127335
H63   H     H_    0.527885 0.204822 0.145954 0.127212
H64   H     H_    0.527880 0.795181 0.645990 0.127102
H65   H     H_    0.875528 0.407551 0.109577 0.096247
H66   H     H_    0.875524 0.592448 0.609562 0.096219
H67   H     H_    0.375562 0.907528 0.109714 0.096396
H68   H     H_    0.375546 0.092461 0.609647 0.096332
H69   H     H_    0.748231 0.364176 0.901831 0.127021
H70   H     H_    0.841032 0.535174 0.205565 0.137533
H71   H     H_    0.748231 0.635847 0.401564 0.127019
H72   H     H_    0.248256 0.864270 0.903225 0.127047
H73   H     H_    0.248244 0.135770 0.402614 0.127037
H74   H     H_    0.094751 0.657665 0.467478 0.106370
H75   H     H_    0.094749 0.342332 0.967450 0.106339
H76   H     H_    0.594740 0.157678 0.467389 0.106267
H77   H     H_    0.594737 0.842318 0.967366 0.106206
H78   H     H_    0.164827 0.793486 0.061516 0.104690
H79   H     H_    0.164809 0.206541 0.560961 0.104682
H80   H     H_    0.664786 0.293423 0.060251 0.104676
H81   H     H_    0.841033 0.464826 0.705550 0.137537
H82   H     H_    0.664776 0.706602 0.559868 0.104671
H83   H     H_    0.702311 0.324456 0.959277 0.075031
H84   H     H_    0.702310 0.675569 0.458992 0.075022
H85   H     H_    0.202334 0.824555 0.960683 0.075053
H86   H     H_    0.202322 0.175487 0.460073 0.075043
H87   H     H_    0.905764 0.341934 0.724470 0.086620
H88   H     H_    0.905767 0.658068 0.224481 0.086631
H89   H     H_    0.405749 0.841952 0.724367 0.086805
H90   H     H_    0.405756 0.158056 0.224411 0.086726
H91   H     H_    0.881221 0.251731 0.119504 0.121590
H92   H     H_    0.341029 0.035169 0.205565 0.137560
H93   H     H_    0.881222 0.748249 0.619716 0.121591
H94   H     H_    0.381214 0.751625 0.118178 0.121619
H95   H     H_    0.381216 0.248327 0.618746 0.121606
H96   H     H_    0.297466 0.673983 0.200143 0.079727
H97   H     H_    0.297477 0.325983 0.700602 0.079723
H98   H     H_    0.797490 0.174059 0.201207 0.079725
H99   H     H_    0.797497 0.825921 0.701568 0.079719
H100  H     H_    0.009930 0.708425 0.691896 0.105476
H101  H     H_    0.009933 0.291594 0.191730 0.105576
H102  H     H_    0.509905 0.208420 0.691869 0.105547
H103  H     H_    0.341026 0.964833 0.705546 0.137564
H104  H     H_    0.509879 0.791564 0.192087 0.105507
H105  H     H_    0.251662 0.634492 0.259732 0.147688
H106  H     H_    0.251672 0.365478 0.760165 0.147675
H107  H     H_    0.751685 0.134560 0.260750 0.147666
H108  H     H_    0.751693 0.865418 0.761108 0.147656
H109  H     H_    0.836875 0.211003 0.182272 0.076812
H110  H     H_    0.836877 0.788978 0.682495 0.076812
H111  H     H_    0.336870 0.710898 0.180955 0.076828
H112  H     H_    0.336871 0.289055 0.681517 0.076819
H113  H     H_    0.964223 0.437556 0.847661 0.069988
H114  H     H_    0.870204 0.571356 0.177489 0.081228
H115  H     H_    0.964222 0.562443 0.347662 0.069987
H116  H     H_    0.464213 0.937565 0.847613 0.069966
H117  H     H_    0.464218 0.062439 0.347633 0.069980
H118  H     H_    0.036527 0.562216 0.342254 0.097087
H119  H     H_    0.036530 0.437786 0.842258 0.097061
H120  H     H_    0.536526 0.062218 0.342237 0.097061
H121  H     H_    0.536527 0.937783 0.842246 0.097064
H122  H     H_    0.019923 0.641282 0.140173 0.014095
H123  H     H_    0.019785 0.358633 0.641000 0.013669
H124  H     H_    0.519820 0.141347 0.140818 0.013783
N1    N     N_R   0.858633 0.346915 0.951488 -0.425947
N2    N     N_R   0.858633 0.653085 0.451486 -0.425951
N3    N     N_R   0.358642 0.846907 0.951510 -0.425918
N4    N     N_R   0.358637 0.153088 0.451493 -0.425932
N5    N     N_R   0.141815 0.653406 0.240768 -0.419017
N6    N     N_R   0.141816 0.346594 0.740755 -0.419017
N7    N     N_R   0.641815 0.153405 0.240740 -0.419009
N8    N     N_R   0.641817 0.846598 0.740743 -0.419002
O1    O     O_2   0.072110 0.546320 0.923350 -0.410603
O2    O     O_3   0.973456 0.356138 0.483108 -0.561460
O3    O     O_3   0.473454 0.143863 0.983117 -0.561488
O4    O     O_3   0.473452 0.856138 0.483129 -0.561500
O5    O     O_3   0.958050 0.483830 0.034350 -0.503068
O6    O     O_3   0.958050 0.516170 0.534350 -0.503066
O7    O     O_3   0.458050 0.983830 0.034350 -0.503082
O8    O     O_3   0.458050 0.016170 0.534350 -0.503073
O9    O     O_2   0.812863 0.383547 0.883111 -0.593081
O10   O     O_2   0.812862 0.616467 0.382947 -0.593082
O11   O     O_2   0.312881 0.883601 0.884016 -0.593119
O12   O     O_2   0.072110 0.453680 0.423350 -0.410597
O13   O     O_2   0.312872 0.116421 0.383612 -0.593098
O14   O     O_2   0.098589 0.691954 0.168626 -0.599187
O15   O     O_2   0.098585 0.308069 0.668365 -0.599140
O16   O     O_2   0.598579 0.191901 0.167987 -0.599157
O17   O     O_2   0.598578 0.808120 0.667764 -0.599164
O18   O     O_2   0.901538 0.307931 0.026496 -0.620838
O19   O     O_2   0.901539 0.692054 0.526655 -0.620792
O20   O     O_2   0.401537 0.807856 0.025638 -0.620839
O21   O     O_2   0.401537 0.192110 0.526009 -0.620845
O22   O     O_2   0.187695 0.616235 0.296978 -0.496921
O23   O     O_2   0.572110 0.046320 0.923350 -0.410639
O24   O     O_2   0.187701 0.383746 0.797227 -0.496975
O25   O     O_2   0.687707 0.116277 0.297575 -0.497011
O26   O     O_2   0.687711 0.883710 0.797800 -0.497057
O27   O     O_3   0.042000 0.516250 0.155330 -0.519468
O28   O     O_3   0.042000 0.483750 0.655330 -0.519478
O29   O     O_3   0.542000 0.016250 0.155330 -0.519471
O30   O     O_3   0.542000 0.983750 0.655330 -0.519476
O31   O     O_3   0.012540 0.574900 0.645500 -0.477838
O32   O     O_3   0.012540 0.425100 0.145500 -0.477884
O33   O     O_3   0.512540 0.074900 0.645500 -0.477833
O34   O     O_2   0.572110 0.953680 0.423350 -0.410632
O35   O     O_3   0.512540 0.925100 0.145500 -0.477765
O36   O     O_2   0.079083 0.598051 0.740776 -0.407264
O37   O     O_2   0.079082 0.401944 0.240792 -0.407258
O38   O     O_2   0.579079 0.098060 0.740783 -0.407315
O39   O     O_2   0.579077 0.901937 0.240783 -0.407334
O40   O     O_3   0.113971 0.508675 0.110581 -0.540711
O41   O     O_3   0.113970 0.491325 0.610573 -0.540718
O42   O     O_3   0.613969 0.008674 0.110576 -0.540669
O43   O     O_3   0.613969 0.991326 0.610572 -0.540673
O44   O     O_3   0.027017 0.643778 0.706031 -0.564367
O45   O     O_3   0.886132 0.509027 0.579635 -0.628063
O46   O     O_3   0.027014 0.356221 0.205979 -0.564354
O47   O     O_3   0.527006 0.143779 0.705978 -0.564290
O48   O     O_3   0.527002 0.856221 0.205993 -0.564207
O49   O     O_2   0.928110 0.546600 0.766510 -0.457879
O50   O     O_2   0.928110 0.453400 0.266510 -0.457887
O51   O     O_2   0.428110 0.046600 0.766510 -0.457898
O52   O     O_2   0.428110 0.953400 0.266510 -0.457888
O53   O     O_3   0.987780 0.574950 0.044470 -0.477461
O54   O     O_3   0.987780 0.425050 0.544470 -0.477340
O55   O     O_3   0.487780 0.074950 0.044470 -0.477358
O56   O     O_3   0.886131 0.490973 0.079634 -0.628053
O57   O     O_3   0.487780 0.925050 0.544470 -0.477371
O58   O     O_2   0.921226 0.598206 0.949327 -0.480488
O59   O     O_2   0.921228 0.401792 0.449336 -0.480513
O60   O     O_2   0.421228 0.098207 0.949321 -0.480547
O61   O     O_2   0.421227 0.901795 0.449306 -0.480573
O62   O     O_3   0.112767 0.757297 0.136257 -0.690955
O63   O     O_3   0.112746 0.242729 0.635691 -0.690960
O64   O     O_3   0.612714 0.257237 0.134913 -0.690957
O65   O     O_3   0.612703 0.742789 0.634509 -0.690980
O66   O     O_3   0.386130 0.009028 0.579628 -0.628042
O67   O     O_3   0.386130 0.990972 0.079632 -0.628031
O68   O     O_3   0.973450 0.643862 0.983134 -0.561553
P1    P     P_3+3 0.075650 0.535480 0.098240 1.138692
P2    P     P_3+3 0.955074 0.392971 0.562653 0.966651
P3    P     P_3+3 0.455073 0.107027 0.062646 0.966620
P4    P     P_3+3 0.455071 0.892975 0.562639 0.966604
P5    P     P_3+3 0.045326 0.393138 0.126978 1.001246
P6    P     P_3+3 0.045325 0.606863 0.626986 1.001220
P7    P     P_3+3 0.545321 0.893133 0.126968 1.001320
P8    P     P_3+3 0.545323 0.106865 0.626967 1.001265
P9    P     P_3+3 0.075650 0.464520 0.598240 1.138700
P10   P     P_3+3 0.575650 0.035480 0.098240 1.138721
P11   P     P_3+3 0.575650 0.964520 0.598240 1.138720
P12   P     P_3+3 0.924520 0.535770 0.591580 0.987006
P13   P     P_3+3 0.924520 0.464230 0.091580 0.986996
P14   P     P_3+3 0.424520 0.035770 0.591580 0.987007
P15   P     P_3+3 0.424520 0.964230 0.091580 0.987024
P16   P     P_3+3 0.955071 0.607025 0.062651 0.966611

loop_
_geom_bond_atom_site_label_1
_geom_bond_atom_site_label_2
_ccdc_geom_bond_type
C35   C121  S    
C20   F4    S    
O29   P10   S    
C138  C142  A    
C119  H6    S    
C2    H88   S    
C37   C63   A    
C10   C128  S    
C24   H90   S    
C85   O11   D    
C87   C123  D    
C40   H22   S    
C67   H92   S    
C40   O45   S    
C150  C154  A    
O32   P5    S    
O37   P5    D    
O33   P8    S    
C91   C95   S    
C72   H36   S    
C151  O65   S    
C77   H46   S    
C153  C175  A    
O44   P6    S    
C33   C38   A    
C5    C9    S    
Ba3   P14   S    
O31   P6    S    
C13   C57   S    
C130  C139  A    
C152  C174  A    
C148  C152  A    
C55   C138  A    
C60   H108  S    
C40   C66   S    
O59   P2    D    
C147  C151  A    
C113  C122  A    
C137  C141  A    
Ba1   O5    S    
O51   P14   D    
C42   H25   S    
C99   C113  A    
C5    C22   D    
C100  H58   S    
C32   C102  A    
C46   P16   S    
C160  C164  A    
C72   O42   S    
C146  H80   S    
C17   F12   S    
O3    P3    S    
C122  O18   D    
C115  C144  A    
C94   C98   S    
C38   C136  A    
C53   C136  A    
C63   H111  S    
C15   C19   D    
O43   P11   S    
O48   P7    S    
C120  O4    S    
C49   H93   S    
C12   P1    S    
C66   H31   S    
C118  H123  S    
C167  H14   S    
O54   P2    S    
C89   H53   S    
C165  H8    S    
C84   C105  A    
Ba2   O27   S    
C26   C132  A    
C27   C44   A    
C11   P7    S    
C101  C114  A    
C29   C47   A    
C144  O20   D    
C103  C116  A    
C82   O48   S    
C82   H59   S    
Ba4   O7    S    
C47   C112  A    
C70   H39   S    
C175  N6    Am   
C75   H44   S    
O38   P8    D    
C50   C63   A    
C9    P5    S    
C134  C147  A    
Ba4   O34   S    
C56   C161  A    
Ba2   O6    S    
O53   P16   S    
C169  H11   S    
Ba2   P13   S    
C71   H35   S    
C31   C36   A    
C117  H122  S    
Ba2   O32   S    
C118  O2    S    
C1    C78   S    
C54   C137  A    
O61   P4    D    
C85   C106  A    
C81   H50   S    
C41   H23   S    
C80   C89   S    
C39   H17   S    
C147  H82   S    
C71   O41   S    
C175  O15   D    
C67   H13   S    
C55   H99   S    
C75   F9    S    
C76   F6    S    
C46   C123  S    
Ba4   P11   S    
C71   C75   S    
C153  C158  A    
C139  C157  A    
O23   P10   D    
C157  C161  A    
C48   C61   A    
C78   O44   S    
C6    C23   D    
C12   C17   D    
C124  H116  S    
C41   C67   S    
C144  N3    Am   
O28   P9    S    
C5    H75   S    
C120  H7    S    
C17   C21   S    
C28   C32   A    
C143  H78   S    
C172  N7    Am   
C109  H71   S    
O34   P11   D    
C41   O67   S    
O5    P13   S    
C95   N1    S    
C77   F11   S    
C78   H1    S    
C145  C149  A    
C135  C139  A    
C69   H24   S    
C65   H114  S    
C171  O24   D    
C106  C110  A    
C117  H4    S    
H29   O65   S    
C119  C168  S    
C48   C113  A    
C59   C163  A    
C87   C92   D    
C39   C65   S    
C50   C115  A    
C84   N2    Am   
C3    O17   D    
C7    C11   S    
C86   C107  A    
Ba1   O28   S    
O68   P16   S    
C8    P6    S    
C88   C93   D    
C117  O68   S    
O1    P1    D    
Ba2   O12   S    
C26   C30   A    
C70   O40   S    
C149  O63   S    
C165  H61   S    
C150  O64   S    
Ba3   P10   S    
C6    C10   S    
C125  H117  S    
C49   C114  A    
Ba1   P12   S    
C141  C159  A    
C61   H109  S    
C161  C170  A    
C142  C160  A    
C39   O56   S    
C82   C111  S    
C79   P13   S    
C21   N5    S    
C2    C96   D    
C76   H45   S    
C19   F3    S    
C31   C101  A    
C34   C61   A    
C45   H85   S    
C4    C8    S    
C78   H47   S    
Ba1   O31   S    
C51   H95   S    
C89   H101  S    
C52   H96   S    
C2    C46   S    
C168  H10   S    
C80   H49   S    
C154  C159  A    
C42   H20   S    
C44   H84   S    
C58   C162  A    
C152  C157  A    
C100  H54   S    
C18   C22   S    
C34   C137  A    
C1    H56   S    
O39   P7    D    
Ba3   Ba4   S    
H26   O62   S    
Ba4   O35   S    
C126  H118  S    
C15   C128  D    
C101  C105  A    
O12   P9    D    
C67   H32   S    
C14   C18   D    
C103  C107  A    
C168  H15   S    
C72   C76   S    
C122  N1    Am   
C59   H107  S    
C30   C99   A    
C81   H48   S    
C18   F2    S    
C165  H12   S    
C28   C130  A    
C134  C142  A    
C58   H106  S    
C56   H105  S    
C92   C96   S    
C167  H62   S    
C73   H42   S    
Ba3   O55   S    
C169  H16   S    
C121  H113  S    
C71   H40   S    
C28   C45   A    
C92   H66   S    
C118  C167  S    
C66   H81   S    
C54   H98   S    
C176  N7    Am   
C42   C69   S    
O56   P13   S    
C170  O22   D    
C102  C115  A    
C98   N4    S    
C129  H121  S    
C110  H72   S    
C51   C64   A    
C14   C127  D    
C16   P11   S    
C68   C125  S    
C95   C166  D    
C133  O19   D    
C130  C143  A    
C162  C171  A    
C41   H19   S    
C156  C160  A    
O45   P12   S    
O60   P3    D    
C33   C103  A    
O40   P1    S    
C174  N5    Am   
O30   P11   S    
C90   C94   D    
C100  H102  S    
C164  C173  A    
O55   P3    S    
C91   H65   S    
C111  H104  S    
Ba4   P15   S    
C20   C25   S    
C80   O46   S    
C158  C162  A    
C82   H51   S    
C107  C112  A    
C173  N8    Am   
C90   P14   S    
C12   C126  D    
C108  H69   S    
C13   H89   S    
C45   C110  A    
C64   H112  S    
C36   C62   A    
C4    C21   D    
C7    H77   S    
Ba3   O30   S    
C32   C37   A    
C24   C68   S    
C79   C121  D    
C111  H55   S    
C51   C116  A    
Ba4   O8    S    
O46   P5    S    
C4    H74   S    
C52   C135  A    
Ba4   O52   S    
C3    C156  A    
C29   C33   A    
C104  C108  A    
C155  O21   D    
O50   P13   D    
Ba3   O8    S    
C171  N6    Am   
C73   C77   S    
C66   H2    S    
C123  H115  S    
C9    C127  S    
C27   C134  A    
C166  H87   S    
C81   C100  S    
C6    H76   S    
Ba4   O57   S    
Ba1   O6    S    
O2    P2    S    
C27   C31   A    
C172  O25   D    
C1    H100  S    
C53   H97   S    
O47   P8    S    
C62   H110  S    
C3    N8    Am   
C68   P3    S    
O41   P9    S    
C136  C140  A    
O35   P7    S    
C65   H70   S    
C50   H94   S    
Ba3   O7    S    
C154  C176  A    
Ba3   O33   S    
C85   N3    Am   
C60   C164  A    
C86   N4    Am   
C48   H91   S    
C127  H119  S    
C119  O3    S    
H28   O64   S    
C57   C124  S    
C40   H18   S    
C1    H52   S    
C149  C153  A    
C10   P8    S    
C37   C135  A    
C15   P10   S    
H27   O63   S    
C22   N6    S    
C52   C56   A    
O4    P4    S    
C174  O14   D    
C70   H34   S    
C70   C74   S    
C96   N2    S    
C84   O10   D    
C44   C109  A    
C97   N3    S    
C117  C165  S    
C168  H63   S    
C36   C138  A    
C42   O66   S    
C25   N8    S    
C88   P15   S    
C53   C58   A    
Ba1   O49   S    
C55   C60   A    
Ba2   O5    S    
Ba3   O51   S    
O49   P12   D    
O6    P12   S    
Ba1   Ba2   S    
C35   C166  S    
C43   H83   S    
C169  H64   S    
C43   C108  A    
Ba1   P1    S    
C65   H30   S    
C13   C97   D    
C87   P12   S    
O58   P16   D    
C83   C104  A    
C16   C20   D    
O7    P15   S    
C74   H43   S    
C116  C155  A    
C57   P4    S    
C72   H41   S    
C19   C23   S    
C29   C131  A    
C114  C133  A    
C132  C141  A    
C83   N1    Am   
C38   C64   A    
C88   C124  D    
C89   H57   S    
O57   P4    S    
Ba1   O53   S    
O27   P1    S    
C90   C125  D    
C23   N7    S    
C73   H38   S    
C26   C43   A    
C145  H79   S    
C112  H73   S    
C176  O16   D    
C83   O9    D    
C120  C169  S    
C131  C145  A    
C47   H86   S    
C167  H9    S    
C86   O13   D    
C159  C163  A    
C80   H37   S    
C173  O26   D    
O8    P14   S    
C14   P9    S    
C79   C91   D    
Ba2   O50   S    
C128  H120  S    
Ba2   P9    S    
C49   C62   A    
C99   C104  A    
C131  C140  A    
O66   P14   S    
C8    C126  S    
C16   C129  D    
O36   P6    D    
C74   F8    S    
C133  N2    Am   
C39   H21   S    
C148  O62   S    
C111  H60   S    
C93   H67   S    
C170  N5    Am   
Ba3   O23   S    
C102  C106  A    
C94   H68   S    
C54   C59   A    
C73   O43   S    
O52   P15   D    
C75   F5    S    
C140  C158  A    
C151  C156  A    
C30   C34   A    
C76   F10   S    
C132  C146  A    
C11   C129  S    
C105  C109  A    
C69   H103  S    
C74   F1    S    
C143  C148  A    
C35   P2    S    
Ba4   O29   S    
C69   H33   S    
O67   P15   S    
C120  H3    S    
Ba2   O54   S    
C118  H5    S    
C93   C97   S    
C24   C98   D    
C81   O47   S    
C7    C25   D    
C146  C150  A    
C119  H124  S    
O42   P10   S    
C155  N4    Am   
C77   F7    S    
Ba1   O1    S    
C163  C172  A    
