data_mof_unit_pretest_1030.cif
_audit_creation_date              2012-12-11T15:09:36-0500
_audit_creation_method            fapswitch 2.2
_symmetry_space_group_name_H-M    P1
_symmetry_Int_Tables_number       1
_space_group_crystal_system       triclinic
_cell_length_a                    20.957927
_cell_length_b                    7.128459
_cell_length_c                    14.012293
_cell_angle_alpha                 89.912123
_cell_angle_beta                  98.216554
_cell_angle_gamma                 90.130514
_cell_volume                      2071.9089151

loop_
_atom_site_label
_atom_site_type_symbol
_atom_type_description
_atom_site_fract_x
_atom_site_fract_y
_atom_site_fract_z
_atom_type_partial_charge
O1    O     O_R   0.447130 0.507140 0.597350 -0.535081
O2    O     O_R   0.552870 0.007140 0.402650 -0.544647
O3    O     O_R   0.578910 0.181280 0.586990 -0.541724
O4    O     O_R   0.421090 0.681280 0.413010 -0.537359
C1    C     C_R   0.604484 0.344552 0.607399 0.750684
C2    C     C_R   0.395516 0.844400 0.392601 0.749307
O5    O     O_R   0.449230 0.177860 0.608640 -0.544440
O6    O     O_R   0.550770 0.677860 0.391360 -0.534899
O7    O     O_R   0.422260 0.000770 0.424450 -0.542017
O8    O     O_R   0.577740 0.500770 0.575550 -0.537047
C3    C     C_R   0.432339 0.346036 0.634003 0.782060
C4    C     C_R   0.567657 0.846363 0.366011 0.782618
O9    O     O_3   0.491310 0.336980 0.439550 -0.377000
O10   O     O_3   0.508690 0.836980 0.560450 -0.376093
V1    V     V_3+5 0.501610 0.064760 0.511210 1.502519
V2    V     V_3+5 0.498390 0.564760 0.488790 1.520478
C5    C     C_R   0.620233 0.838117 0.120381 0.310762
C6    C     C_R   0.379354 0.414396 0.876941 0.311788
H1    H     H_    0.707511 0.870869 0.996138 0.187795
H2    H     H_    0.292315 0.410894 0.002433 0.187639
C7    C     C_R   0.609262 0.854482 0.290525 -0.209867
C8    C     C_R   0.390753 0.355167 0.709466 -0.208971
C9    C     C_R   0.922382 0.824559 0.306137 0.345863
C10   C     C_R   0.077359 0.367620 0.692400 0.346500
C11   C     C_R   0.884264 0.791232 0.378668 -0.234913
C12   C     C_R   0.115183 0.383373 0.618161 -0.235142
C13   C     C_R   0.817333 0.795461 0.358095 -0.129947
C14   C     C_R   0.182124 0.387174 0.638730 -0.130146
C15   C     C_R   0.785755 0.841774 0.264912 0.138997
C16   C     C_R   0.214104 0.366769 0.734226 0.139663
C17   C     C_R   0.824191 0.860872 0.189795 -0.021255
C18   C     C_R   0.175795 0.365785 0.810040 -0.020977
C19   C     C_R   0.717031 0.855790 0.242745 0.011309
C20   C     C_R   0.282947 0.361444 0.757059 0.011387
C21   C     C_R   0.688013 0.852587 0.144407 -0.051736
C22   C     C_R   0.311789 0.391153 0.854240 -0.051221
C23   C     C_R   0.727432 0.866119 0.071653 -0.073818
C24   C     C_R   0.272441 0.395070 0.927320 -0.072959
C25   C     C_R   0.793906 0.877049 0.094049 -0.199849
C26   C     C_R   0.206131 0.375857 0.905984 -0.199190
C27   C     C_R   0.676638 0.879058 0.314861 0.209896
C28   C     C_R   0.323713 0.321445 0.687170 0.210799
C29   C     C_R   0.581157 0.828919 0.194474 0.292736
C30   C     C_R   0.418383 0.406752 0.802809 0.292967
C31   C     C_R   0.892313 0.856013 0.211434 -0.110423
C32   C     C_R   0.107659 0.362203 0.788371 -0.110115
H3    H     H_    0.791480 0.751317 0.415474 0.184610
H4    H     H_    0.207542 0.417012 0.578763 0.183954
H5    H     H_    0.906414 0.757265 0.451251 0.131436
H6    H     H_    0.092743 0.397287 0.543918 0.130940
H7    H     H_    0.821472 0.890803 0.034682 0.114038
H8    H     H_    0.178647 0.376683 0.965794 0.113696
C33   C     C_1   0.166590 0.857340 0.168340 -0.169365
C34   C     C_1   0.833410 0.356968 0.831665 -0.168988
C35   C     C_1   0.218993 0.854965 0.219441 0.022152
C36   C     C_1   0.781008 0.354779 0.780559 0.022845
C37   C     C_1   0.280746 0.853314 0.279457 0.033660
C38   C     C_1   0.719257 0.353485 0.720538 0.034206
C39   C     C_1   0.333112 0.850887 0.330659 -0.150784
C40   C     C_1   0.666891 0.351243 0.669333 -0.149697
O11   O     O_R   0.922300 0.202240 0.924350 -0.535981
O12   O     O_R   0.077700 0.702240 0.075650 -0.535291
O13   O     O_R   0.050780 0.535130 0.891350 -0.541137
O14   O     O_R   0.949220 0.035130 0.108650 -0.542654
C41   C     C_R   0.067311 0.368366 0.865391 0.762073
C42   C     C_R   0.932698 0.867659 0.134592 0.761953
O15   O     O_R   0.921100 0.531560 0.912990 -0.538467
O16   O     O_R   0.078900 0.031560 0.087010 -0.539287
O17   O     O_R   0.947120 0.708470 0.097370 -0.539543
O18   O     O_R   0.052880 0.208470 0.902630 -0.540811
C43   C     C_R   0.895882 0.363490 0.893431 0.736263
C44   C     C_R   0.104118 0.863647 0.106571 0.736361
O19   O     O_3   0.008710 0.375800 0.060400 -0.377676
O20   O     O_3   0.991290 0.875800 0.939600 -0.377613
V3    V     V_3+5 0.998380 0.648080 0.988790 1.474213
V4    V     V_3+5 0.001620 0.148080 0.011210 1.470757
O21   O     O_3   0.515004 0.803560 0.176301 -0.614031
H9    H     H_    0.501894 0.763186 0.108982 0.384005
O22   O     O_3   0.484147 0.440272 0.819023 -0.614730
H10   H     H_    0.496310 0.501717 0.882142 0.380062
Cl1   Cl    Cl    0.584047 0.832313 0.997856 -0.615061
Cl2   Cl    Cl    0.415438 0.451345 0.997959 -0.617049
O23   O     O_3   0.703758 0.939526 0.405662 -0.651834
H11   H     H_    0.671016 0.954377 0.449160 0.284717
O24   O     O_3   0.297439 0.236917 0.601426 -0.651758
H12   H     H_    0.330479 0.211545 0.559543 0.285219
O25   O     O_3   0.988916 0.819452 0.325070 -0.653895
H13   H     H_    0.002159 0.795025 0.394785 0.288627
O26   O     O_3   0.010805 0.364999 0.673386 -0.653740
H14   H     H_    0.997376 0.370625 0.602635 0.288672

loop_
_geom_bond_atom_site_label_1
_geom_bond_atom_site_label_2
_ccdc_geom_bond_type
C25   H7    S    
O25   H13   S    
O13   C41   A    
C9    C31   A    
C13   C15   A    
C20   C28   A    
O2    C4    A    
C10   O26   S    
C2    O7    A    
O21   H9    S    
O5    C3    A    
O20   V4    S    
C26   H8    S    
C24   C26   A    
C10   C12   A    
C12   H6    S    
C37   C39   T    
C42   O17   A    
C38   C40   T    
C41   O18   A    
C27   O23   S    
C15   C19   A    
H1    C23   S    
C19   C21   A    
C7    C29   A    
C8    C30   A    
C34   C43   S    
C36   C38   S    
O1    C3    A    
O15   C43   A    
C5    Cl1   S    
O6    C4    A    
O11   C43   A    
O5    V1    S    
O6    V2    S    
C9    O25   S    
O19   V3    S    
C33   C35   T    
O11   V4    S    
C34   C36   T    
O20   V3    S    
C16   C20   A    
C32   C41   S    
O4    C2    A    
C28   O24   S    
O24   H12   S    
C4    C7    S    
O14   C42   A    
O4    V2    S    
C5    C29   A    
C6    C30   A    
H2    C24   S    
O23   H11   S    
O16   C44   A    
O14   V4    S    
O12   C44   A    
O1    V2    S    
O16   V4    S    
O2    V1    S    
C7    C27   A    
C35   C37   S    
O18   V4    S    
O19   V4    S    
O12   V3    S    
C11   C13   A    
O3    V1    S    
C13   H3    S    
C14   H4    S    
C1    C40   S    
C21   C23   A    
C18   C32   A    
C2    C39   S    
C30   O22   S    
O3    C1    A    
C29   O21   S    
C3    C8    S    
C12   C14   A    
C19   C27   A    
C22   C24   A    
O7    V1    S    
C10   C32   A    
C1    O8    A    
C23   C25   A    
O8    V2    S    
C16   C18   A    
C8    C28   A    
O13   V3    S    
C14   C16   A    
C6    Cl2   S    
C17   C25   A    
O17   V3    S    
C20   C22   A    
C18   C26   A    
C11   H5    S    
O22   H10   S    
C9    C11   A    
O15   V3    S    
C15   C17   A    
C17   C31   A    
O9    V2    S    
C31   C42   S    
O10   V1    S    
C5    C21   A    
O26   H14   S    
C33   C44   S    
C6    C22   A    
