data_mof_unit_pretest_1361.cif
_audit_creation_date              2012-12-10T16:52:38-0500
_audit_creation_method            fapswitch 2.2
_symmetry_space_group_name_H-M    P1
_symmetry_Int_Tables_number       1
_space_group_crystal_system       triclinic
_cell_length_a                    7.838005
_cell_length_b                    8.56938
_cell_length_c                    13.819781
_cell_angle_alpha                 93.55124
_cell_angle_beta                  92.909645
_cell_angle_gamma                 94.299403
_cell_volume                      922.409007044

loop_
_atom_site_label
_atom_site_type_symbol
_atom_type_description
_atom_site_fract_x
_atom_site_fract_y
_atom_site_fract_z
_atom_type_partial_charge
C1    C     C_R   0.045236 0.794712 0.497590 0.959473
C2    C     C_R   0.937486 0.489027 0.318176 0.864785
C3    C     C_R   0.093229 0.532149 0.786080 -0.066407
C4    C     C_R   0.906771 0.467851 0.213920 -0.066406
C5    C     C_R   0.061750 0.677428 0.937582 -0.181428
C6    C     C_R   0.938249 0.322572 0.062418 -0.181428
C7    C     C_R   0.005530 0.638290 0.841623 -0.194006
C8    C     C_R   0.994470 0.361709 0.158377 -0.194005
C9    C     C_R   0.229806 0.461364 0.827331 -0.254602
C10   C     C_R   0.770195 0.538637 0.172669 -0.254603
C11   C     C_R   0.307706 0.519804 0.916630 0.087706
C12   C     C_R   0.954764 0.205288 0.502409 0.959472
C13   C     C_R   0.692295 0.480198 0.083369 0.087706
C14   C     C_R   0.213517 0.620599 0.974858 0.157108
C15   C     C_R   0.786483 0.379402 0.025142 0.157109
C16   C     C_R   0.472691 0.478848 0.950381 -0.008816
C17   C     C_R   0.527310 0.521155 0.049619 -0.008816
C18   C     C_1   0.425840 0.612196 0.215386 0.135975
C19   C     C_1   0.574164 0.387813 0.784612 0.135973
C20   C     C_R   0.412256 0.599089 0.110645 -0.014258
C21   C     C_R   0.587745 0.400915 0.889355 -0.014261
C22   C     C_R   0.265747 0.657107 0.070945 -0.260888
C23   C     C_R   0.734254 0.342896 0.929055 -0.260887
C24   C     C_2   0.068702 0.958484 0.496159 -0.382359
C25   C     C_2   0.931298 0.041516 0.503841 -0.382359
C26   C     C_R   0.062514 0.510973 0.681824 0.864784
H1    H     H_    0.185103 0.723539 0.117173 0.149633
H2    H     H_    0.801929 0.989873 0.511193 0.182416
H3    H     H_    0.487170 0.372710 0.428659 0.192176
H4    H     H_    0.512830 0.627290 0.571341 0.192177
H5    H     H_    0.814898 0.276463 0.882827 0.149633
H6    H     H_    0.728234 0.639155 0.212523 0.156647
H7    H     H_    0.271769 0.360846 0.787476 0.156647
H8    H     H_    0.103534 0.307866 0.189350 0.156690
H9    H     H_    0.896464 0.692133 0.810650 0.156690
H10   H     H_    0.990065 0.755572 0.981616 0.137339
H11   H     H_    0.009934 0.244428 0.018384 0.137339
H12   H     H_    0.198071 0.010127 0.488807 0.182416
N1    N     N_2   0.440860 0.456490 0.474790 -0.150615
N2    N     N_2   0.559140 0.543510 0.525210 -0.150614
N3    N     N_1   0.435201 0.624956 0.299318 -0.172031
N4    N     N_1   0.564798 0.375051 0.700679 -0.172029
O1    O     O_R   0.891570 0.738930 0.506190 -0.614198
O2    O     O_R   0.108430 0.261070 0.493810 -0.614198
O3    O     O_R   0.174650 0.711050 0.490030 -0.618768
O4    O     O_R   0.825350 0.288950 0.509970 -0.618768
O5    O     O_R   0.909850 0.521900 0.644940 -0.609401
O6    O     O_R   0.090150 0.478100 0.355060 -0.609401
O7    O     O_R   0.192930 0.494020 0.628780 -0.610100
O8    O     O_R   0.807070 0.505980 0.371220 -0.610101
Zn1   Zn    Zn3+2 0.810990 0.518620 0.510790 0.957931
Zn2   Zn    Zn3+2 0.189010 0.481380 0.489210 0.957931

loop_
_geom_bond_atom_site_label_1
_geom_bond_atom_site_label_2
_ccdc_geom_bond_type
O2    Zn2   S    
C2    C4    S    
C16   C21   A    
C3    C9    A    
N2    Zn1   S    
C11   C16   A    
C24   H12   S    
C19   N4    T    
C13   C17   A    
C12   C25   S    
C4    C8    A    
O7    Zn2   S    
O1    Zn1   S    
H3    N1    S    
C15   C23   A    
N1    Zn2   S    
C6    H11   S    
H4    N2    S    
C12   O2    A    
C8    H8    S    
C25   H2    S    
C9    H7    S    
C9    C11   A    
C1    O3    A    
C5    C14   A    
C26   O5    A    
C1    C24   S    
C19   C21   S    
C20   C22   A    
O8    Zn1   S    
C3    C7    A    
C22   H1    S    
C21   C23   A    
C13   C15   A    
C14   C22   A    
C11   C14   A    
C18   N3    T    
C4    C10   A    
C5    H10   S    
C10   H6    S    
O6    Zn2   S    
C17   C20   A    
C24   C25   D    
C18   C20   S    
C12   O4    A    
C26   O7    A    
N1    N2    D    
C5    C7    A    
C6    C8    A    
C2    O8    A    
O3    Zn2   S    
C2    O6    A    
C6    C15   A    
C7    H9    S    
O4    Zn1   S    
C1    O1    A    
C3    C26   S    
O5    Zn1   S    
C16   C17   A    
C10   C13   A    
C23   H5    S    
