data_mof_unit_pretest_919.cif
_audit_creation_date              2012-12-10T17:33:18-0500
_audit_creation_method            fapswitch 2.2
_symmetry_space_group_name_H-M    P1
_symmetry_Int_Tables_number       1
_space_group_crystal_system       triclinic
_cell_length_a                    12.04573
_cell_length_b                    12.877084
_cell_length_c                    13.609444
_cell_angle_alpha                 91.756505
_cell_angle_beta                  78.429078
_cell_angle_gamma                 92.993602
_cell_volume                      2064.85039521

loop_
_atom_site_label
_atom_site_type_symbol
_atom_type_description
_atom_site_fract_x
_atom_site_fract_y
_atom_site_fract_z
_atom_type_partial_charge
C1    C     C_R   0.522602 0.700267 0.495874 0.875094
C2    C     C_R   0.151040 0.464683 0.453471 -0.048498
C3    C     C_R   0.968442 0.531023 0.538230 -0.030958
C4    C     C_R   0.031557 0.468974 0.461772 -0.030956
C5    C     C_R   0.479562 0.503106 0.687005 0.901825
C6    C     C_R   0.520438 0.496895 0.312995 0.901822
C7    C     C_1   0.534953 0.486477 0.208557 -0.201927
C8    C     C_1   0.465052 0.513530 0.791442 -0.201932
C9    C     C_2   0.538515 0.472415 0.016913 -0.036034
C10   C     C_2   0.461499 0.527598 0.983084 -0.036032
C11   C     C_1   0.459073 0.521909 0.879360 -0.051653
C12   C     C_R   0.477398 0.299733 0.504124 0.875095
C13   C     C_1   0.540938 0.478102 0.120638 -0.051650
C14   C     C_R   0.462503 0.188515 0.511137 -0.100030
C15   C     C_R   0.537496 0.811485 0.488851 -0.100030
C16   C     C_R   0.648027 0.969842 0.440140 -0.269882
C17   C     C_R   0.351969 0.030158 0.559837 -0.269886
C18   C     C_R   0.641905 0.861998 0.443953 -0.014671
C19   C     C_R   0.358093 0.138001 0.556031 -0.014667
C20   C     C_R   0.442351 0.868116 0.527648 -0.292712
C21   C     C_R   0.557646 0.131884 0.472333 -0.292710
C22   C     C_R   0.381601 0.598425 0.047235 0.160249
C23   C     C_R   0.448271 0.974467 0.521893 0.171986
C24   C     C_R   0.265446 0.590314 0.044217 -0.162246
C25   C     C_R   0.189970 0.657399 0.102627 -0.160167
C26   C     C_R   0.229668 0.733479 0.164193 -0.116791
C27   C     C_R   0.345175 0.743531 0.166413 -0.132198
C28   C     C_R   0.421114 0.677197 0.107468 -0.140444
C29   C     C_R   0.618402 0.401577 0.952769 0.160247
C30   C     C_R   0.734554 0.409662 0.955802 -0.162261
C31   C     C_R   0.810017 0.342549 0.897415 -0.160158
C32   C     C_R   0.770306 0.266463 0.835863 -0.116791
C33   C     C_R   0.654802 0.256442 0.833623 -0.132214
C34   C     C_R   0.551725 0.025533 0.478083 0.171988
C35   C     C_R   0.578878 0.322806 0.892541 -0.140440
C36   C     C_R   0.255851 0.194869 0.601564 0.146754
C37   C     C_R   0.159158 0.186598 0.558272 -0.158470
C38   C     C_R   0.064909 0.244614 0.597920 -0.145538
C39   C     C_R   0.066595 0.311059 0.680795 -0.123000
C40   C     C_R   0.161679 0.318285 0.725394 -0.131207
C41   C     C_R   0.255893 0.259985 0.686398 -0.096167
C42   C     C_R   0.744149 0.805129 0.398429 0.146744
C43   C     C_R   0.744113 0.740005 0.313599 -0.096161
C44   C     C_R   0.838328 0.681701 0.274614 -0.131189
C45   C     C_R   0.973518 0.412861 0.395691 -0.089975
C46   C     C_R   0.933407 0.688929 0.319221 -0.123011
C47   C     C_R   0.935087 0.755382 0.402092 -0.145539
C48   C     C_R   0.840838 0.813404 0.441727 -0.158463
C49   C     C_R   0.034931 0.346262 0.313790 0.134512
C50   C     C_R   0.018906 0.237601 0.318136 -0.135788
C51   C     C_R   0.078032 0.174588 0.241878 -0.144073
C52   C     C_R   0.153133 0.219652 0.160870 -0.109883
C53   C     C_R   0.168945 0.327818 0.155796 -0.129746
C54   C     C_R   0.109669 0.391123 0.231738 -0.172931
C55   C     C_R   0.965067 0.653724 0.686219 0.134503
C56   C     C_R   0.026481 0.587134 0.604312 -0.089971
C57   C     C_R   0.890326 0.608855 0.768264 -0.172924
C58   C     C_R   0.831060 0.672151 0.844220 -0.129752
C59   C     C_R   0.846889 0.780316 0.839168 -0.109895
C60   C     C_R   0.921991 0.825387 0.758166 -0.144064
C61   C     C_R   0.981103 0.762384 0.681892 -0.135782
C62   C     C_R   0.855340 0.421653 0.405677 0.194862
C63   C     C_R   0.144659 0.578345 0.594324 0.194859
C64   C     C_R   0.848960 0.535316 0.546530 -0.048500
H1    H     H_    0.637215 0.170576 0.437156 0.155167
H2    H     H_    0.376052 0.803251 0.213284 0.130403
H3    H     H_    0.510690 0.687837 0.108328 0.117418
H4    H     H_    0.766802 0.468328 0.002967 0.119936
H5    H     H_    0.899381 0.349741 0.899779 0.129507
H6    H     H_    0.828878 0.214752 0.790491 0.127625
H7    H     H_    0.623916 0.196718 0.786763 0.130403
H8    H     H_    0.489302 0.312182 0.891673 0.117419
H9    H     H_    0.157711 0.136924 0.492806 0.127178
H10   H     H_    0.991082 0.239156 0.563655 0.128176
H11   H     H_    0.994460 0.357363 0.710030 0.125742
H12   H     H_    0.362781 0.829425 0.562826 0.155169
H13   H     H_    0.162762 0.369716 0.789650 0.114177
H14   H     H_    0.329689 0.267128 0.720808 0.096514
H15   H     H_    0.670321 0.732859 0.279185 0.096513
H16   H     H_    0.837250 0.630263 0.210363 0.114171
H17   H     H_    0.005541 0.642620 0.289997 0.125733
H18   H     H_    0.008910 0.760840 0.436365 0.128172
H19   H     H_    0.842280 0.863085 0.507190 0.127174
H20   H     H_    0.212698 0.568411 0.717999 0.206243
H21   H     H_    0.269495 0.669241 0.640691 0.220268
H22   H     H_    0.787302 0.431584 0.282001 0.206236
H23   H     H_    0.727165 0.010051 0.405995 0.139090
H24   H     H_    0.730505 0.330755 0.359311 0.220268
H25   H     H_    0.961266 0.201874 0.380750 0.112330
H26   H     H_    0.065827 0.090821 0.245700 0.127053
H27   H     H_    0.199090 0.170761 0.102044 0.124264
H28   H     H_    0.227381 0.362439 0.093159 0.130231
H29   H     H_    0.122683 0.474790 0.227429 0.137052
H30   H     H_    0.877301 0.525190 0.772561 0.137055
H31   H     H_    0.772621 0.637526 0.906850 0.130237
H32   H     H_    0.800943 0.829199 0.898006 0.124264
H33   H     H_    0.934208 0.909152 0.754361 0.127053
H34   H     H_    0.272831 0.989948 0.593982 0.139087
H35   H     H_    0.038744 0.798118 0.619284 0.112332
H36   H     H_    0.200924 0.416147 0.397011 0.157390
H37   H     H_    0.799076 0.583853 0.602989 0.157387
H38   H     H_    0.233206 0.531644 0.997050 0.119931
H39   H     H_    0.100603 0.650185 0.100276 0.129499
H40   H     H_    0.171083 0.785159 0.209594 0.127624
N1    N     N_R   0.206090 0.519450 0.517820 -0.110746
N2    N     N_R   0.793910 0.480550 0.482180 -0.110743
N3    N     N_3   0.196265 0.626069 0.671398 -0.464909
N4    N     N_3   0.803735 0.373928 0.328604 -0.464911
O1    O     O_R   0.421240 0.658850 0.504760 -0.638455
O2    O     O_R   0.578760 0.341150 0.495240 -0.638451
O3    O     O_R   0.609960 0.646370 0.493320 -0.602039
O4    O     O_R   0.390040 0.353630 0.506680 -0.602039
O5    O     O_R   0.392060 0.507120 0.646890 -0.635155
O6    O     O_R   0.607940 0.492880 0.353110 -0.635156
O7    O     O_R   0.580780 0.494630 0.635450 -0.603212
O8    O     O_R   0.419220 0.505370 0.364550 -0.603210
Zn1   Zn    Zn3+2 0.373990 0.508340 0.507630 0.938481
Zn2   Zn    Zn3+2 0.626010 0.491660 0.492370 0.938481

loop_
_geom_bond_atom_site_label_1
_geom_bond_atom_site_label_2
_ccdc_geom_bond_type
C15   C18   A    
C55   C56   S    
C58   H31   S    
O2    Zn2   S    
C12   O2    A    
O1    Zn1   S    
C3    C64   A    
C10   C22   S    
C26   C27   A    
C17   C23   A    
O3    Zn2   S    
C14   C21   A    
C36   C37   A    
C37   C38   A    
C19   C36   S    
C18   C42   S    
C51   H26   S    
O4    Zn1   S    
H24   N4    S    
C62   N4    S    
C43   H15   S    
C49   C54   A    
C45   C62   A    
H20   N3    S    
O8    Zn1   S    
C20   H12   S    
C47   H18   S    
C9    C13   S    
C6    O6    A    
C54   H29   S    
C1    O1    A    
C47   C48   A    
C16   H23   S    
C1    C15   S    
C39   H11   S    
C63   N1    A    
C9    C10   D    
C9    C29   S    
C26   H40   S    
O7    Zn2   S    
C2    H36   S    
C59   C60   A    
C22   C28   A    
C5    O7    A    
N1    Zn1   S    
C36   C41   A    
C61   H35   S    
C44   C46   A    
C4    C45   A    
C64   H37   S    
C51   C52   A    
C44   H16   S    
C28   H3    S    
C24   C25   A    
C60   H33   S    
C41   H14   S    
C25   H39   S    
C32   H6    S    
C21   C34   A    
C17   H34   S    
C58   C59   A    
C53   C54   A    
C60   C61   A    
C2    C4    A    
C43   C44   A    
C29   C30   A    
C46   H17   S    
C3    C56   A    
C50   H25   S    
C5    O5    A    
C31   C32   A    
C20   C23   A    
C45   C49   S    
C30   C31   A    
C15   C20   A    
C23   C34   A    
C16   C34   A    
C53   H28   S    
C50   C51   A    
C56   C63   A    
C42   C48   A    
C6    O8    A    
O6    Zn2   S    
O5    Zn1   S    
C40   C41   A    
C12   C14   S    
C35   H8    S    
C57   H30   S    
C55   C57   A    
C22   C24   A    
C42   C43   A    
C63   N3    S    
C3    C4    A    
C12   O4    A    
C52   C53   A    
C38   H10   S    
C37   H9    S    
C46   C47   A    
C21   H1    S    
C14   C19   A    
H22   N4    S    
C5    C8    S    
C64   N2    A    
C6    C7    S    
C62   N2    A    
C29   C35   A    
C2    N1    A    
C48   H19   S    
C32   C33   A    
C25   C26   A    
C27   H2    S    
C31   H5    S    
C1    O3    A    
C57   C58   A    
C38   C39   A    
C8    C11   T    
C55   C61   A    
C33   C35   A    
C24   H38   S    
C30   H4    S    
C10   C11   S    
C33   H7    S    
C39   C40   A    
C17   C19   A    
C7    C13   T    
C16   C18   A    
C49   C50   A    
C59   H32   S    
C27   C28   A    
C40   H13   S    
C52   H27   S    
H21   N3    S    
N2    Zn2   S    
