data_mof_unit_pretest_742.cif
_audit_creation_date              2012-12-10T17:39:20-0500
_audit_creation_method            fapswitch 2.2
_symmetry_space_group_name_H-M    P1
_symmetry_Int_Tables_number       1
_space_group_crystal_system       triclinic
_cell_length_a                    12.367312
_cell_length_b                    13.069718
_cell_length_c                    27.808341
_cell_angle_alpha                 77.741273
_cell_angle_beta                  100.735423
_cell_angle_gamma                 116.225849
_cell_volume                      3918.24951426

loop_
_atom_site_label
_atom_site_type_symbol
_atom_type_description
_atom_site_fract_x
_atom_site_fract_y
_atom_site_fract_z
_atom_type_partial_charge
C1    C     C_R   0.854615 0.285804 0.505009 0.785879
C2    C     C_R   0.093609 0.498573 0.729608 -0.101322
C3    C     C_R   0.998235 0.509309 0.745215 0.344745
C4    C     C_R   0.996937 0.504342 0.897459 -0.046822
C5    C     C_R   0.904833 0.416632 0.872531 -0.017938
C6    C     C_R   0.813035 0.327556 0.898571 -0.143526
C7    C     C_R   0.087980 0.595091 0.870797 -0.021510
C8    C     C_R   0.000033 0.505352 0.644814 -0.051589
C9    C     C_R   0.001567 0.498407 0.354938 -0.035593
C10   C     C_R   0.915152 0.399860 0.027910 -0.010514
C11   C     C_R   0.085329 0.592117 0.023988 0.052887
C12   C     C_R   0.000125 0.501628 0.592241 0.786831
C13   C     C_R   0.000137 0.494109 0.051520 0.067613
C14   C     C_R   0.840792 0.299863 0.057231 -0.187303
C15   C     C_R   0.839812 0.293250 0.108292 0.142443
C16   C     C_R   0.918965 0.391900 0.131597 -0.083496
C17   C     C_R   0.000167 0.490785 0.103007 -0.062281
C18   C     C_R   0.081975 0.587467 0.125878 -0.007004
C19   C     C_R   0.081450 0.586079 0.176207 0.530953
C20   C     C_R   0.922214 0.396404 0.182639 0.521498
C21   C     C_R   0.095845 0.483361 0.289106 -0.111587
C22   C     C_R   0.095586 0.485233 0.339040 -0.218715
C23   C     C_R   0.144694 0.713811 0.492650 0.806255
C24   C     C_R   0.907995 0.509685 0.319967 -0.225333
C25   C     C_R   0.908325 0.507435 0.270105 -0.105828
C26   C     C_R   0.002151 0.494256 0.254547 0.373086
C27   C     C_R   0.908572 0.406757 0.975728 0.051538
C28   C     C_R   0.998100 0.501215 0.948962 0.073811
C29   C     C_R   0.088787 0.592532 0.973139 0.041631
C30   C     C_R   0.814117 0.322980 0.949014 -0.211201
C31   C     C_R   0.179611 0.682324 0.895308 -0.143201
C32   C     C_R   0.163824 0.687325 0.048270 -0.209082
C33   C     C_R   0.162121 0.684741 0.098126 -0.151489
C34   C     C_R   0.000659 0.499798 0.407682 0.790153
C35   C     C_R   0.180405 0.681157 0.945438 -0.206868
C36   C     C_R   0.278854 0.023133 0.432366 -0.188710
C37   C     C_R   0.227325 0.835896 0.482469 -0.051575
C38   C     C_R   0.807167 0.082168 0.541684 -0.242137
C39   C     C_R   0.727434 0.967376 0.551810 0.327469
C40   C     C_R   0.606707 0.930948 0.532645 -0.218189
C41   C     C_R   0.563574 0.008950 0.501611 0.027663
C42   C     C_R   0.648955 0.122837 0.486265 0.081093
C43   C     C_R   0.438557 0.976814 0.484771 0.093930
C44   C     C_R   0.401934 0.054354 0.449512 0.163260
C45   C     C_R   0.906425 0.420319 0.821831 0.533385
C46   C     C_R   0.488712 0.160821 0.430760 -0.239801
C47   C     C_R   0.610366 0.193887 0.448206 -0.173211
C48   C     C_R   0.348385 0.869752 0.502130 -0.241324
C49   C     C_R   0.191947 0.913880 0.448426 -0.183657
C50   C     C_R   0.770584 0.161690 0.509208 -0.160995
C51   C     C_R   0.360670 0.347627 0.584966 -0.319522
C52   C     C_R   0.758234 0.643651 0.432133 0.089060
C53   C     C_R   0.663091 0.677249 0.418061 -0.245969
C54   C     C_R   0.562381 0.626480 0.444721 -0.169938
C55   C     C_R   0.555847 0.541189 0.486131 0.012921
C56   C     C_R   0.085878 0.595925 0.820066 0.539441
C57   C     C_R   0.655879 0.509973 0.499014 0.244382
C58   C     C_R   0.454108 0.484937 0.514856 -0.051552
C59   C     C_R   0.458928 0.403201 0.557076 0.079991
C60   C     C_R   0.557203 0.371277 0.569096 0.081388
C61   C     C_R   0.652398 0.425526 0.539707 -0.185522
C62   C     C_R   0.346071 0.504210 0.503208 -0.008126
C63   C     C_R   0.251159 0.354086 0.567195 0.358212
C64   C     C_R   0.904453 0.519536 0.710437 -0.080793
C65   C     C_R   0.905369 0.517816 0.660557 -0.209085
C66   C     C_R   0.094905 0.497214 0.679753 -0.214777
Cu1   Cu    Cu3+1 0.098270 0.475420 0.511360 0.942202
Cu2   Cu    Cu3+1 0.901730 0.524580 0.488640 0.934558
H1    H     H_    0.170466 0.490360 0.668631 0.162087
H2    H     H_    0.830754 0.528604 0.722123 0.153961
H3    H     H_    0.251843 0.752164 0.875840 0.187417
H4    H     H_    0.226102 0.767010 0.029542 0.139915
H5    H     H_    0.834277 0.519770 0.331091 0.156632
H6    H     H_    0.224283 0.760348 0.114850 0.185774
H7    H     H_    0.835795 0.516088 0.243470 0.136845
H8    H     H_    0.256214 0.749982 0.961592 0.140118
H9    H     H_    0.098447 0.888778 0.432702 0.151564
H10   H     H_    0.462501 0.218916 0.402286 0.146121
H11   H     H_    0.250398 0.081909 0.405320 0.138255
H12   H     H_    0.166594 0.490861 0.756227 0.146759
H13   H     H_    0.369616 0.809414 0.530620 0.153758
H14   H     H_    0.896429 0.108530 0.560887 0.179533
H15   H     H_    0.549991 0.840670 0.542120 0.160482
H16   H     H_    0.673563 0.274730 0.430339 0.174713
H17   H     H_    0.362205 0.286907 0.617943 0.142803
H18   H     H_    0.338196 0.568394 0.473040 0.130478
H19   H     H_    0.836276 0.684287 0.411414 0.122435
H20   H     H_    0.739267 0.260693 0.880007 0.186525
H21   H     H_    0.491622 0.655985 0.432370 0.135201
H22   H     H_    0.667606 0.743147 0.386450 0.149359
H23   H     H_    0.723347 0.399097 0.549130 0.226091
H24   H     H_    0.168990 0.476564 0.365095 0.156158
H25   H     H_    0.168579 0.473106 0.277219 0.135611
H26   H     H_    0.785441 0.223958 0.040564 0.158276
H27   H     H_    0.737232 0.253999 0.965691 0.138360
H28   H     H_    0.831455 0.525263 0.634467 0.180192
N1    N     N_R   0.996395 0.508893 0.796730 -0.466683
N2    N     N_R   0.002212 0.492058 0.203204 -0.459774
N3    N     N_R   0.246290 0.438210 0.528570 -0.188138
N4    N     N_R   0.754320 0.561170 0.471730 -0.202091
O1    O     O_R   0.972510 0.318140 0.514280 -0.578811
O2    O     O_2   0.846882 0.307135 0.212001 -0.572616
O3    O     O_2   0.172171 0.683340 0.794177 -0.534730
O4    O     O_2   0.158913 0.678656 0.198107 -0.547080
O5    O     O_R   0.806530 0.359640 0.495100 -0.607425
O6    O     O_R   0.082990 0.479270 0.579320 -0.568271
O7    O     O_R   0.917010 0.520770 0.560140 -0.594962
O8    O     O_R   0.193470 0.640360 0.504900 -0.584930
O9    O     O_R   0.027490 0.681860 0.485720 -0.575028
O10   O     O_R   0.082990 0.479230 0.439860 -0.584710
O11   O     O_R   0.917010 0.520730 0.420680 -0.598299
O12   O     O_2   0.819719 0.335227 0.797952 -0.544173
Br1   Br    Br    0.782536 0.860468 0.594395 -0.531988
C67   C     C_3   0.141527 0.245815 0.582570 -0.363542
C68   C     C_3   0.081195 0.252841 0.624243 -0.751734
H29   H     H_    0.148306 0.313572 0.649009 0.238093
H30   H     H_    0.005077 0.277138 0.609460 0.255864
H31   H     H_    0.041485 0.166502 0.646877 0.237773
H32   H     H_    0.080572 0.215744 0.549536 0.209836
H33   H     H_    0.168264 0.172851 0.596351 0.174341
C69   C     C_3   0.556319 0.274760 0.611907 -0.396592
C70   C     C_3   0.658187 0.234985 0.617935 -0.816346
H34   H     H_    0.658196 0.203639 0.583830 0.253232
H35   H     H_    0.747592 0.305477 0.626938 0.243111
H36   H     H_    0.643175 0.162462 0.648932 0.263370
H37   H     H_    0.558324 0.302845 0.647216 0.218786
H38   H     H_    0.470567 0.196805 0.606505 0.214079
C71   C     C_3   0.755334 0.181340 0.137527 -0.309027
C72   C     C_3   0.678657 0.078878 0.109454 -0.904896
H39   H     H_    0.615576 0.100325 0.079467 0.254163
H40   H     H_    0.737618 0.052444 0.094116 0.258177
H41   H     H_    0.623284 0.004373 0.135389 0.260275
H42   H     H_    0.811100 0.151275 0.168182 0.240235
H43   H     H_    0.690480 0.199865 0.153081 0.243896

loop_
_geom_bond_atom_site_label_1
_geom_bond_atom_site_label_2
_ccdc_geom_bond_type
C10   C27   A    
C58   C62   A    
C21   C26   A    
C8    C66   A    
C36   H11   S    
C41   C42   A    
C71   C72   S    
C51   H17   S    
C67   C68   S    
C45   O12   S    
C32   H4    S    
C53   C54   A    
C62   H18   S    
C56   N1    A    
C28   C29   A    
C69   H38   S    
C5    C6    A    
C9    C22   A    
C66   H1    S    
C20   O2    S    
C68   H29   S    
C6    H20   S    
C48   H13   S    
C18   C19   A    
C63   N3    A    
C46   C47   A    
C63   C67   S    
C65   H28   S    
C16   C17   A    
C39   Br1   S    
Cu2   O7    S    
C64   H2    S    
C43   C48   A    
C67   H32   S    
Cu1   N3    S    
C42   C47   A    
C72   H41   S    
C31   H3    S    
C59   C60   A    
C21   C22   A    
C38   H14   S    
C27   C30   A    
C34   O11   A    
C41   C43   A    
C40   H15   S    
C7    C56   A    
C4    C7    A    
C4    C28   A    
C19   N2    A    
C44   C46   A    
C23   O9    A    
C35   H8    S    
C7    C31   A    
Cu1   Cu2   S    
C51   C63   A    
C24   C25   A    
C54   H21   S    
C10   C14   A    
C39   C40   A    
C46   H10   S    
C68   H30   S    
C58   C59   A    
C23   C37   S    
C57   N4    A    
C5    C45   A    
C52   N4    A    
C60   C61   A    
C25   H7    S    
Cu2   O11   S    
C43   C44   A    
Cu2   N4    S    
C30   H27   S    
C71   H43   S    
C37   C49   A    
C19   O4    S    
C3    N1    S    
Cu1   O10   S    
C8    C12   S    
C68   H31   S    
C17   C18   A    
C9    C24   A    
C16   C20   A    
C47   H16   S    
C37   C48   A    
C69   C70   S    
C42   C50   A    
C40   C41   A    
C6    C30   A    
C26   N2    S    
C11   C32   A    
C15   C71   S    
C55   C57   A    
C9    C34   S    
C34   O10   A    
C31   C35   A    
C36   C44   A    
C51   C59   A    
Cu2   O5    S    
C70   H35   S    
C1    O1    A    
C53   H22   S    
C52   C53   A    
Cu1   O1    S    
C72   H39   S    
C1    C50   S    
C54   C55   A    
C52   H19   S    
C56   O3    S    
C4    C5    A    
C2    C66   A    
C10   C13   A    
C12   O7    A    
Cu1   O6    S    
C57   C61   A    
C38   C50   A    
C29   C35   A    
C13   C17   A    
Cu1   O8    S    
C64   C65   A    
C70   H36   S    
C2    C3    A    
C25   C26   A    
C69   H37   S    
C45   N1    A    
C71   H42   S    
C32   C33   A    
C12   O6    A    
C11   C13   A    
C38   C39   A    
C21   H25   S    
C23   O8    A    
C49   H9    S    
Cu2   O9    S    
C3    C64   A    
C60   C69   S    
C24   H5    S    
C18   C33   A    
C2    H12   S    
C62   N3    A    
C61   H23   S    
C33   H6    S    
C8    C65   A    
C20   N2    A    
C11   C29   A    
C55   C58   A    
C27   C28   A    
C22   H24   S    
C14   C15   A    
C70   H34   S    
C14   H26   S    
C67   H33   S    
C36   C49   A    
C15   C16   A    
C1    O5    A    
C72   H40   S    
