data_mof_unit_pretest_1805.cif
_audit_creation_date              2012-12-10T16:46:28-0500
_audit_creation_method            fapswitch 2.2
_symmetry_space_group_name_H-M    P1
_symmetry_Int_Tables_number       1
_space_group_crystal_system       triclinic
_cell_length_a                    19.004814
_cell_length_b                    18.964303
_cell_length_c                    18.82271
_cell_angle_alpha                 109.01513
_cell_angle_beta                  109.537451
_cell_angle_gamma                 109.378662
_cell_volume                      5253.06311527

loop_
_atom_site_label
_atom_site_type_symbol
_atom_type_description
_atom_site_fract_x
_atom_site_fract_y
_atom_site_fract_z
_atom_type_partial_charge
C1    C     C_R   0.384005 0.383013 0.501979 0.837539
C2    C     C_3   0.806817 0.503595 0.810580 -0.143163
C3    C     C_3   0.847959 0.575746 0.788239 0.177226
C4    C     C_3   0.746325 0.525416 0.842841 -0.016818
C5    C     C_2   0.259679 0.187788 0.514022 -0.084493
C6    C     C_2   0.180273 0.176808 0.489713 -0.300358
C7    C     C_2   0.320514 0.247236 0.501020 -0.137621
C8    C     C_2   0.320790 0.319853 0.507921 -0.320700
C9    C     C_2   0.168182 0.485780 0.245196 0.187375
C10   C     C_2   0.180714 0.508348 0.187636 -0.332638
C11   C     C_2   0.241606 0.499549 0.320222 0.129400
C12   C     C_R   0.617414 0.499439 0.618913 0.798539
C13   C     C_2   0.305987 0.489001 0.311677 -0.363000
C14   C     C_2   0.747772 0.823519 0.507167 0.394404
C15   C     C_2   0.821814 0.824529 0.513691 -0.137009
C16   C     C_2   0.690818 0.762526 0.521859 -0.178923
C17   C     C_2   0.665104 0.679085 0.479812 -0.395851
C18   C     C_R   0.993292 0.382682 0.875507 0.919495
C19   C     C_R   0.875499 0.502006 0.877109 0.839555
C20   C     C_R   0.994525 0.617171 0.112324 0.867063
C21   C     C_R   0.112836 0.501924 0.115105 0.842884
C22   C     C_R   0.000943 0.119179 0.616546 0.890316
C23   C     C_R   0.612624 0.616687 0.495040 0.871547
C24   C     C_R   0.116927 0.115595 0.497636 0.849737
C25   C     C_R   0.003736 0.885496 0.383402 0.874463
C26   C     C_R   0.883340 0.885927 0.503977 0.900405
C27   C     C_2   0.982712 0.244488 0.667776 -0.183247
C28   C     C_2   0.008681 0.191209 0.684358 -0.345459
C29   C     C_2   0.995413 0.320286 0.737607 0.444774
C30   C     C_2   0.987743 0.314971 0.804823 -0.420273
C31   C     C_2   0.076681 0.820270 0.317877 0.414134
C32   C     C_2   0.005791 0.823838 0.314310 -0.401515
C33   C     C_2   0.069380 0.758293 0.240063 -0.220747
C34   C     C_R   0.378606 0.497022 0.380775 0.855195
C35   C     C_2   0.999141 0.680788 0.185259 -0.351872
C36   C     C_3   0.673425 0.410516 0.660076 -0.431708
C37   C     C_3   0.752611 0.414319 0.722955 0.216147
C38   C     C_3   0.776721 0.561375 0.704280 -0.085216
C39   C     C_3   0.681201 0.532236 0.772779 -0.349208
C40   C     C_3   0.686306 0.502097 0.687978 -0.064576
Cu1   Cu    Cu3+1 0.500730 0.439000 0.439690 0.991455
Cu2   Cu    Cu3+1 0.499270 0.561000 0.560310 0.983861
Cu3   Cu    Cu3+1 0.933160 0.439090 0.994150 1.073070
Cu4   Cu    Cu3+1 0.055180 0.561040 0.994050 1.100767
Cu5   Cu    Cu3+1 0.061740 0.000000 0.561740 1.082030
Cu6   Cu    Cu3+1 0.938260 1.000000 0.438260 1.070296
H1    H     H_    0.664133 0.379124 0.593832 0.190269
H2    H     H_    0.785568 0.588641 0.903203 0.181990
H3    H     H_    0.279385 0.150113 0.540234 0.216476
H4    H     H_    0.158318 0.208946 0.456447 0.159096
H5    H     H_    0.369007 0.233949 0.491479 0.186445
H6    H     H_    0.279061 0.338098 0.527569 0.160042
H7    H     H_    0.245370 0.539836 0.198083 0.137361
H8    H     H_    0.614341 0.370226 0.658593 0.229881
H9    H     H_    0.301308 0.465700 0.248453 0.142266
H10   H     H_    0.669558 0.786459 0.566633 0.217701
H11   H     H_    0.680264 0.654902 0.429450 0.163994
H12   H     H_    0.955693 0.234816 0.602399 0.219618
H13   H     H_    0.042870 0.204604 0.750507 0.157277
H14   H     H_    0.967458 0.253719 0.803737 0.151027
H15   H     H_    0.945810 0.784251 0.253113 0.139439
H16   H     H_    0.124419 0.774831 0.230102 0.210502
H17   H     H_    0.946788 0.660246 0.198655 0.154535
H18   H     H_    0.794000 0.414045 0.692893 0.102294
H19   H     H_    0.783936 0.525395 0.649452 0.130855
H20   H     H_    0.896352 0.565964 0.771929 0.117521
H21   H     H_    0.694006 0.599453 0.798530 0.206736
H22   H     H_    0.614324 0.492986 0.757481 0.172254
O1    O     O_R   0.411600 0.359460 0.449080 -0.570051
O2    O     O_R   0.046690 0.462500 0.906070 -0.524323
O3    O     O_R   0.852560 0.448570 0.904070 -0.526248
O4    O     O_R   0.955610 0.551560 0.903980 -0.543608
O5    O     O_R   0.941640 0.537630 0.082140 -0.608163
O6    O     O_R   0.044680 0.640620 0.082050 -0.551981
O7    O     O_R   0.032730 0.448570 0.084230 -0.558331
O8    O     O_R   0.135770 0.551560 0.084140 -0.598822
O9    O     O_R   0.051070 0.089000 0.640130 -0.597986
O10   O     O_R   0.946790 0.089000 0.535860 -0.552301
O11   O     O_R   0.141150 0.089030 0.552120 -0.562552
O12   O     O_R   0.410370 0.462480 0.550940 -0.588240
O13   O     O_R   0.036880 0.089030 0.447850 -0.594522
O14   O     O_R   0.053210 0.911000 0.464140 -0.513779
O15   O     O_R   0.948930 0.911000 0.359870 -0.596146
O16   O     O_R   0.963120 0.910970 0.552150 -0.566491
O17   O     O_R   0.858850 0.910970 0.447880 -0.538045
O18   O     O_R   0.590700 0.448490 0.539150 -0.589729
O19   O     O_R   0.589460 0.551510 0.641010 -0.596814
O20   O     O_R   0.589630 0.537520 0.449060 -0.586104
O21   O     O_R   0.588400 0.640540 0.550920 -0.575167
O22   O     O_R   0.410540 0.448490 0.358990 -0.579121
O23   O     O_R   0.409300 0.551510 0.460850 -0.584454
O24   O     O_R   0.943650 0.359510 0.906150 -0.545693
N1    N     N_3   0.787091 0.641921 0.704463 -0.466106
H23   H     H_    0.759734 0.629776 0.640492 0.194656
H24   H     H_    0.754005 0.664791 0.731302 0.273582
S1    S     S_3+6 0.907472 0.686888 0.876985 0.037012
O25   O     O_2   0.848020 0.720387 0.887007 -0.270213
O26   O     O_2   0.961521 0.696868 0.962622 -0.275473
O27   O     O_3   0.972544 0.748435 0.853590 -0.449746
H25   H     H_    0.013704 0.727362 0.853169 0.351051
N2    N     N_3   0.084901 0.453837 0.238239 -0.534643
H26   H     H_    0.068337 0.395419 0.238113 0.233601
H27   H     H_    0.089339 0.497049 0.293210 0.243220
N3    N     N_3   0.238213 0.518033 0.399028 -0.577079
H28   H     H_    0.243807 0.472669 0.417079 0.228173
H29   H     H_    0.288968 0.579345 0.447617 0.261066
S2    S     S_3+6 0.719924 0.900296 0.492757 0.031006
O28   O     O_2   0.795553 0.989167 0.555170 -0.297536
O29   O     O_2   0.693553 0.883440 0.401589 -0.257388
O30   O     O_3   0.637328 0.892820 0.510506 -0.513713
H30   H     H_    0.625960 0.937472 0.501618 0.395274
N4    N     N_3   0.851993 0.774692 0.545691 -0.577859
H31   H     H_    0.820020 0.711117 0.496709 0.225648
H32   H     H_    0.844682 0.778347 0.599224 0.255102
S3    S     S_3+6 0.012716 0.411891 0.724395 0.008330
O31   O     O_2   0.951684 0.441311 0.737918 -0.349206
O32   O     O_2   0.103525 0.482671 0.789597 -0.255579
O33   O     O_3   0.997197 0.388371 0.624301 -0.540492
H33   H     H_    0.007559 0.442235 0.622236 0.380726
S4    S     S_3+6 0.180964 0.892787 0.408973 0.045935
O34   O     O_2   0.198167 0.983129 0.435455 -0.276191
O35   O     O_2   0.187114 0.876219 0.483094 -0.260383
O36   O     O_3   0.255873 0.881545 0.385428 -0.490176
H34   H     H_    0.250674 0.827020 0.383170 0.348681
S5    S     S_3+6 0.720194 0.313237 0.723726 0.063511
O37   O     O_2   0.688499 0.311009 0.786482 -0.192203
O38   O     O_2   0.649039 0.241596 0.634749 -0.267454
O39   O     O_3   0.803125 0.294666 0.748283 -0.493731
H35   H     H_    0.810644 0.281447 0.696779 0.354334
N5    N     N_3   0.700757 0.462705 0.863331 -0.484471
H36   H     H_    0.743313 0.474723 0.923699 0.238058
H37   H     H_    0.654015 0.474634 0.873396 0.214484

loop_
_geom_bond_atom_site_label_1
_geom_bond_atom_site_label_2
_ccdc_geom_bond_type
C18   O2    A    
Cu3   O5    S    
N2    H26   S    
C27   C29   S    
C1    C8    S    
Cu1   Cu2   S    
C19   O3    A    
Cu5   O14   S    
Cu3   Cu4   S    
O39   H35   S    
N4    H32   S    
C7    C8    D    
Cu5   Cu6   S    
Cu2   O12   S    
Cu1   O18   S    
C21   O8    A    
C17   C23   S    
Cu1   O1    S    
C36   C37   S    
C32   H15   S    
C5    C6    D    
S3    O31   D    
S1    O27   S    
C36   H1    S    
Cu2   O23   S    
C39   H22   S    
Cu4   O8    S    
C10   H7    S    
C34   O23   A    
N3    H28   S    
O33   H33   S    
C20   C35   S    
C31   C32   D    
C3    C38   S    
C33   H16   S    
S3    O32   D    
S1    O26   D    
S5    O39   S    
Cu3   O3    S    
S2    O28   D    
C23   O21   A    
Cu4   O2    S    
C3    S1    S    
C18   C30   S    
C9    C10   D    
C8    H6    S    
S4    O36   S    
Cu6   O17   S    
C25   C32   S    
Cu1   O22   S    
C29   S3    S    
N2    H27   S    
C22   C28   S    
S2    O29   D    
C5    H3    S    
C19   O4    A    
N3    H29   S    
N4    H31   S    
S4    O35   D    
C37   S5    S    
C10   C21   S    
Cu3   O7    S    
O36   H34   S    
C22   O10   A    
C39   C40   S    
C5    C7    S    
C16   C17   D    
C15   C26   S    
C4    N5    S    
C1    O1    A    
O30   H30   S    
C30   H14   S    
C12   C40   S    
N5    H37   S    
C24   O13   A    
C16   H10   S    
C29   C30   D    
Cu6   O13   S    
C24   O11   A    
N5    H36   S    
O27   H25   S    
C4    C39   S    
C36   C40   S    
S3    O33   S    
C6    C24   S    
S1    O25   D    
C31   C33   S    
C20   O6    A    
Cu5   O11   S    
N1    H23   S    
C6    H4    S    
Cu4   O6    S    
C9    C11   S    
C25   O15   A    
C11   N3    S    
C9    N2    S    
C14   S2    S    
C23   O20   A    
S5    O37   D    
S2    O30   S    
C14   C16   S    
Cu5   O16   S    
C37   H18   S    
S4    O34   D    
Cu6   O10   S    
C4    H2    S    
C28   H13   S    
Cu1   O20   S    
C34   O22   A    
C26   O16   A    
C12   O19   A    
C2    C19   S    
C39   H21   S    
C15   N4    S    
C22   O9    A    
C27   H12   S    
C35   H17   S    
C21   O7    A    
Cu3   O24   S    
C12   O18   A    
Cu2   O21   S    
C18   O24   A    
C2    C3    S    
C7    H5    S    
C13   C34   S    
C38   C40   S    
C11   C13   D    
C2    C37   S    
C25   O14   A    
C26   O17   A    
C2    C4    S    
C38   N1    S    
C33   C35   D    
C20   O5    A    
Cu4   O4    S    
C31   S4    S    
C36   H8    S    
Cu6   O15   S    
C3    H20   S    
N1    H24   S    
C27   C28   D    
S5    O38   D    
C1    O12   A    
C14   C15   D    
Cu5   O9    S    
Cu2   O19   S    
C38   H19   S    
C17   H11   S    
C13   H9    S    
