data_mof_unit_pretest_1175.cif
_audit_creation_date              2013-03-05T15:55:35-0500
_audit_creation_method            fapswitch 2.2
_symmetry_space_group_name_H-M    P1
_symmetry_Int_Tables_number       1
_space_group_crystal_system       triclinic
_cell_length_a                    14.039828
_cell_length_b                    14.039868
_cell_length_c                    32.351257
_cell_angle_alpha                 89.999649
_cell_angle_beta                  90.00122
_cell_angle_gamma                 119.966623
_cell_volume                      5524.49482183

loop_
_atom_site_label
_atom_site_type_symbol
_atom_site_description
_atom_site_fract_x
_atom_site_fract_y
_atom_site_fract_z
_atom_type_partial_charge
O1    O     O_R   0.480350 0.140770 0.796330 -0.560742
O2    O     O_R   0.660420 0.519650 0.703670 -0.560823
O3    O     O_R   0.859230 0.339580 0.796330 -0.560635
O4    O     O_R   0.480350 0.140770 0.703670 -0.560841
O5    O     O_R   0.660420 0.519650 0.796330 -0.560876
O6    O     O_R   0.859230 0.339580 0.703670 -0.560747
O7    O     O_R   0.140770 0.480350 0.296330 -0.560840
O8    O     O_R   0.519650 0.660420 0.203670 -0.560876
O9    O     O_R   0.339580 0.859230 0.296330 -0.560752
O10   O     O_R   0.140770 0.480350 0.203670 -0.560741
O11   O     O_R   0.519650 0.660420 0.296330 -0.560821
O12   O     O_R   0.339580 0.859230 0.203670 -0.560635
O13   O     O_R   0.514930 0.348530 0.793250 -0.536328
O14   O     O_R   0.833600 0.485070 0.706750 -0.536447
O15   O     O_R   0.651470 0.166400 0.793250 -0.536495
O16   O     O_R   0.514930 0.348530 0.706750 -0.536332
O17   O     O_R   0.833600 0.485070 0.793250 -0.536397
O18   O     O_R   0.651470 0.166400 0.706750 -0.536526
O19   O     O_R   0.348530 0.514930 0.293250 -0.536331
O20   O     O_R   0.485070 0.833600 0.206750 -0.536397
O21   O     O_R   0.166400 0.651470 0.293250 -0.536526
O22   O     O_R   0.348530 0.514930 0.206750 -0.536327
O23   O     O_R   0.485070 0.833600 0.293250 -0.536443
O24   O     O_R   0.166400 0.651470 0.206750 -0.536495
C1    C     C_R   0.569744 0.444193 0.811213 0.784995
C2    C     C_R   0.874431 0.430259 0.688824 0.785355
C3    C     C_R   0.555728 0.125028 0.811068 0.784602
C4    C     C_R   0.569739 0.444167 0.688827 0.785140
C5    C     C_R   0.874027 0.430144 0.811272 0.784857
C6    C     C_R   0.555843 0.125559 0.688826 0.784785
C7    C     C_R   0.444168 0.569737 0.311173 0.785137
C8    C     C_R   0.430142 0.874024 0.188727 0.784864
C9    C     C_R   0.125558 0.555846 0.311174 0.784793
C10   C     C_R   0.444193 0.569743 0.188787 0.784994
C11   C     C_R   0.430263 0.874433 0.311176 0.785353
C12   C     C_R   0.125026 0.555726 0.188932 0.784602
C13   C     C_1   0.000469 0.543180 0.019265 0.136387
C14   C     C_1   0.538385 0.993541 0.481449 0.130974
C15   C     C_1   0.460674 0.464969 0.018641 0.130622
C16   C     C_1   0.006457 0.544837 0.481453 0.130867
C17   C     C_1   0.536621 0.987497 0.017835 0.122930
C18   C     C_1   0.455195 0.461678 0.481453 0.130727
C19   C     C_1   0.544888 0.006566 0.518537 0.130876
C20   C     C_1   0.987524 0.536632 0.982163 0.122953
C21   C     C_1   0.461708 0.455169 0.518540 0.130790
C22   C     C_1   0.543177 0.000454 0.980734 0.136346
C23   C     C_1   0.993423 0.538316 0.518541 0.131065
C24   C     C_1   0.464963 0.460678 0.981358 0.130626
H1    H     H_    0.942986 0.624896 0.849237 0.137476
H2    H     H_    0.677325 0.050577 0.651532 0.135576
H3    H     H_    0.378960 0.314091 0.850508 0.136776
H4    H     H_    0.949458 0.626711 0.651556 0.135581
H5    H     H_    0.678386 0.050542 0.847962 0.135931
H6    H     H_    0.373373 0.322707 0.651524 0.135643
H7    H     H_    0.626681 0.949319 0.348453 0.135604
H8    H     H_    0.050515 0.678365 0.152040 0.135927
H9    H     H_    0.322668 0.373385 0.348475 0.135661
H10   H     H_    0.624901 0.943006 0.150765 0.137473
H11   H     H_    0.050727 0.677449 0.348479 0.135600
H12   H     H_    0.314103 0.378956 0.149491 0.136773
H13   H     H_    0.003283 0.679033 0.079302 0.168544
H14   H     H_    0.672860 0.993890 0.421437 0.164708
H15   H     H_    0.312364 0.336864 0.076186 0.166463
H16   H     H_    0.006178 0.679054 0.421469 0.164677
H17   H     H_    0.670404 0.986112 0.077745 0.164851
H18   H     H_    0.321090 0.327253 0.421461 0.164754
H19   H     H_    0.678956 0.006065 0.578537 0.164612
H20   H     H_    0.986099 0.670402 0.922257 0.164854
H21   H     H_    0.327256 0.321116 0.578535 0.164706
H22   H     H_    0.679052 0.003302 0.920698 0.168546
H23   H     H_    0.994009 0.672873 0.578570 0.164656
H24   H     H_    0.336870 0.312354 0.923813 0.166477
Cr1   Cr    Cr6+3 0.504240 0.249200 0.750000 0.914802
Cr2   Cr    Cr6+3 0.744960 0.495760 0.750000 0.914392
Cr3   Cr    Cr6+3 0.750800 0.255040 0.750000 0.914798
Cr4   Cr    Cr6+3 0.249200 0.504240 0.250000 0.914806
Cr5   Cr    Cr6+3 0.495760 0.744960 0.250000 0.914395
Cr6   Cr    Cr6+3 0.255040 0.750800 0.250000 0.914796
O25   O     O_3   0.666667 0.333333 0.750000 -0.320602
O26   O     O_3   0.333333 0.666667 0.250000 -0.320602
C25   C     C_R   0.924118 0.462546 0.853525 -0.122121
C26   C     C_R   0.536756 0.073782 0.646854 -0.122186
C27   C     C_R   0.536144 0.463922 0.852996 -0.122367
C28   C     C_R   0.926185 0.462919 0.646852 -0.122228
C29   C     C_R   0.536316 0.071347 0.852720 -0.123610
C30   C     C_R   0.537052 0.463264 0.646852 -0.122321
C31   C     C_R   0.462952 0.926212 0.353146 -0.122323
C32   C     C_R   0.071341 0.536308 0.147280 -0.123598
C33   C     C_R   0.463267 0.537038 0.353145 -0.122331
C34   C     C_R   0.462537 0.924103 0.146474 -0.122121
C35   C     C_R   0.073769 0.536770 0.353142 -0.122202
C36   C     C_R   0.463923 0.536146 0.147004 -0.122365
C37   C     C_R   0.947082 0.565378 0.869231 -0.198992
C38   C     C_R   0.614750 0.047969 0.631376 -0.202825
C39   C     C_R   0.436249 0.381341 0.869651 -0.198827
C40   C     C_R   0.952044 0.566736 0.631391 -0.202756
C41   C     C_R   0.614875 0.046099 0.868065 -0.202972
C42   C     C_R   0.433305 0.385291 0.631374 -0.202679
C43   C     C_R   0.566742 0.951990 0.368612 -0.202742
C44   C     C_R   0.046081 0.614858 0.131936 -0.202978
C45   C     C_R   0.385274 0.433300 0.368623 -0.202655
C46   C     C_R   0.565374 0.947081 0.130769 -0.198995
C47   C     C_R   0.048033 0.614816 0.368627 -0.202743
C48   C     C_R   0.381347 0.436247 0.130348 -0.198834
C49   C     C_R   0.971431 0.591558 0.910943 -0.156933
C50   C     C_R   0.615826 0.022455 0.589751 -0.144311
C51   C     C_R   0.411215 0.380887 0.911378 -0.145597
C52   C     C_R   0.977572 0.593341 0.589770 -0.144271
C53   C     C_R   0.615378 0.018957 0.909546 -0.133766
C54   C     C_R   0.406719 0.384230 0.589750 -0.144118
C55   C     C_R   0.593361 0.977540 0.410231 -0.144111
C56   C     C_R   0.018943 0.615362 0.090454 -0.133758
C57   C     C_R   0.384221 0.406706 0.410245 -0.144187
C58   C     C_R   0.591552 0.971424 0.089057 -0.156927
C59   C     C_R   0.022493 0.615879 0.410249 -0.144310
C60   C     C_R   0.380893 0.411214 0.088621 -0.145596
C61   C     C_R   0.971491 0.514592 0.938116 -0.031612
C62   C     C_R   0.539278 0.023221 0.562539 -0.027422
C63   C     C_R   0.482987 0.466482 0.937025 -0.028810
C64   C     C_R   0.976743 0.516027 0.562542 -0.027204
C65   C     C_R   0.537681 0.017509 0.936742 -0.027684
C66   C     C_R   0.483968 0.460767 0.562541 -0.027493
C67   C     C_R   0.516104 0.976859 0.437449 -0.027363
C68   C     C_R   0.017510 0.537674 0.063257 -0.027665
C69   C     C_R   0.460787 0.483936 0.437453 -0.027557
C70   C     C_R   0.514574 0.971455 0.061881 -0.031616
C71   C     C_R   0.023133 0.539251 0.437451 -0.027485
C72   C     C_R   0.466480 0.482993 0.062973 -0.028807
C73   C     C_R   0.953908 0.413022 0.922977 0.415907
C74   C     C_R   0.456154 0.042254 0.577601 0.413579
C75   C     C_R   0.576779 0.557392 0.920144 0.415972
C76   C     C_R   0.957612 0.413840 0.577580 0.413531
C77   C     C_R   0.453969 0.035679 0.921729 0.412338
C78   C     C_R   0.586062 0.543852 0.577599 0.413545
C79   C     C_R   0.413965 0.957847 0.422401 0.413525
C80   C     C_R   0.035686 0.453966 0.078269 0.412329
C81   C     C_R   0.543890 0.586018 0.422394 0.413560
C82   C     C_R   0.412994 0.953845 0.077018 0.415896
C83   C     C_R   0.042078 0.456077 0.422382 0.413643
C84   C     C_R   0.557385 0.576793 0.079854 0.415970
C85   C     C_R   0.935305 0.386812 0.880292 -0.037322
C86   C     C_R   0.449693 0.062698 0.620164 -0.037003
C87   C     C_R   0.607274 0.557410 0.878277 -0.040735
C88   C     C_R   0.937167 0.386909 0.620140 -0.037224
C89   C     C_R   0.448148 0.057636 0.879299 -0.036413
C90   C     C_R   0.612976 0.550295 0.620159 -0.037064
C91   C     C_R   0.387001 0.937318 0.379847 -0.037137
C92   C     C_R   0.057639 0.448144 0.120700 -0.036423
C93   C     C_R   0.550319 0.612942 0.379835 -0.037061
C94   C     C_R   0.386791 0.935264 0.119703 -0.037307
C95   C     C_R   0.062597 0.449660 0.379824 -0.037083
C96   C     C_R   0.557407 0.607282 0.121722 -0.040727
C97   C     C_3   0.073193 0.355057 0.138595 -0.341434
C98   C     C_3   0.046354 0.251068 0.114188 -0.244715
C99   C     C_3   0.064967 0.172266 0.140896 -0.856531
H25   H     H_    0.146457 0.214957 0.156248 0.232633
H26   H     H_    0.999943 0.133826 0.164864 0.241438
H27   H     H_    0.063307 0.107949 0.120714 0.245183
H28   H     H_    0.958878 0.207714 0.104453 0.244681
H29   H     H_    0.102367 0.271408 0.087443 0.265818
H30   H     H_    0.160977 0.392480 0.147063 0.209529
H31   H     H_    0.020054 0.323946 0.166513 0.202722
C100  C     C_3   0.277919 0.920980 0.361949 -0.341233
C101  C     C_3   0.200650 0.947385 0.386544 -0.244573
C102  C     C_3   0.103928 0.930749 0.359848 -0.856387
H32   H     H_    0.131477 0.996162 0.335991 0.241120
H33   H     H_    0.064181 0.849413 0.344383 0.232411
H34   H     H_    0.041915 0.933656 0.380040 0.245976
H35   H     H_    0.164511 0.890424 0.413025 0.266420
H36   H     H_    0.244964 0.034528 0.396671 0.244869
H37   H     H_    0.299815 0.974951 0.334281 0.203098
H38   H     H_    0.227857 0.833258 0.353073 0.211811
C103  C     C_3   0.650284 0.715092 0.140292 -0.343041
C104  C     C_3   0.753339 0.795205 0.116118 -0.249728
C105  C     C_3   0.830189 0.892131 0.143375 -0.856477
H39   H     H_    0.785477 0.928019 0.159353 0.232149
H40   H     H_    0.870451 0.866157 0.166822 0.242870
H41   H     H_    0.893182 0.956722 0.123446 0.245455
H42   H     H_    0.799287 0.754477 0.105505 0.253079
H43   H     H_    0.730338 0.830615 0.090029 0.257136
H44   H     H_    0.612345 0.765458 0.148476 0.211326
H45   H     H_    0.680588 0.692617 0.168338 0.203511
C106  C     C_3   0.078873 0.356882 0.361902 -0.341047
C107  C     C_3   0.052359 0.253133 0.386449 -0.244642
C108  C     C_3   0.069054 0.173120 0.359721 -0.856290
H46   H     H_    0.003730 0.135445 0.335824 0.241056
H47   H     H_    0.150466 0.214678 0.344307 0.232468
H48   H     H_    0.066027 0.108089 0.379877 0.245928
H49   H     H_    0.109240 0.273768 0.412950 0.266549
H50   H     H_    0.965185 0.210375 0.396537 0.244795
H51   H     H_    0.024932 0.324960 0.334222 0.203025
H52   H     H_    0.166604 0.394421 0.353044 0.211813
C109  C     C_3   0.278473 0.920599 0.137688 -0.342685
C110  C     C_3   0.201814 0.947518 0.112958 -0.243356
C111  C     C_3   0.105694 0.932564 0.139593 -0.855649
H53   H     H_    0.065145 0.851466 0.155247 0.232684
H54   H     H_    0.133969 0.998498 0.163265 0.241277
H55   H     H_    0.044221 0.935967 0.119245 0.246927
H56   H     H_    0.246862 0.034421 0.102557 0.245887
H57   H     H_    0.164902 0.889983 0.086681 0.266933
H58   H     H_    0.227778 0.833196 0.146886 0.211302
H59   H     H_    0.301236 0.975317 0.165164 0.203385
C112  C     C_3   0.643053 0.721939 0.361921 -0.341035
C113  C     C_3   0.746753 0.799132 0.386483 -0.244604
C114  C     C_3   0.826767 0.895754 0.359750 -0.856276
H60   H     H_    0.864603 0.868092 0.335911 0.241068
H61   H     H_    0.785165 0.935498 0.344259 0.232421
H62   H     H_    0.891672 0.957823 0.379913 0.245897
H63   H     H_    0.726048 0.835398 0.412963 0.266537
H64   H     H_    0.789530 0.754721 0.396609 0.244768
H65   H     H_    0.675038 0.699929 0.334251 0.203031
H66   H     H_    0.605457 0.772110 0.353052 0.211840
C115  C     C_3   0.356912 0.078969 0.638085 -0.341023
C116  C     C_3   0.253164 0.052448 0.613533 -0.244606
C117  C     C_3   0.173112 0.069075 0.640266 -0.856277
H67   H     H_    0.135462 0.003732 0.664156 0.241043
H68   H     H_    0.214640 0.150476 0.655689 0.232459
H69   H     H_    0.108060 0.066030 0.620115 0.245903
H70   H     H_    0.273789 0.109357 0.587044 0.266594
H71   H     H_    0.210444 0.965288 0.603426 0.244726
H72   H     H_    0.324980 0.025009 0.665758 0.203003
H73   H     H_    0.394444 0.166690 0.646955 0.211824
C118  C     C_3   0.920634 0.278491 0.862306 -0.342693
C119  C     C_3   0.947553 0.201829 0.887033 -0.243361
C120  C     C_3   0.932575 0.105700 0.860397 -0.855643
H74   H     H_    0.851472 0.065159 0.844745 0.232680
H75   H     H_    0.998499 0.133965 0.836721 0.241273
H76   H     H_    0.935976 0.044225 0.880742 0.246923
H77   H     H_    0.034462 0.246868 0.897428 0.245894
H78   H     H_    0.890029 0.164927 0.913313 0.266914
H79   H     H_    0.833226 0.227797 0.853113 0.211300
H80   H     H_    0.975340 0.301249 0.834828 0.203387
C121  C     C_3   0.721980 0.643024 0.638073 -0.341004
C122  C     C_3   0.799174 0.746719 0.613511 -0.244618
C123  C     C_3   0.895790 0.826744 0.640246 -0.856302
H81   H     H_    0.868116 0.864568 0.664085 0.241073
H82   H     H_    0.935546 0.785152 0.655735 0.232425
H83   H     H_    0.957849 0.891659 0.620084 0.245903
H84   H     H_    0.835446 0.726012 0.587034 0.266556
H85   H     H_    0.754760 0.789491 0.603381 0.244751
H86   H     H_    0.699973 0.675021 0.665741 0.203026
H87   H     H_    0.772146 0.605425 0.646947 0.211872
C124  C     C_3   0.355051 0.073173 0.861402 -0.341417
C125  C     C_3   0.251057 0.046322 0.885808 -0.244713
C126  C     C_3   0.172253 0.064929 0.859100 -0.856543
H88   H     H_    0.214944 0.146416 0.843745 0.232637
H89   H     H_    0.133810 0.999900 0.835133 0.241445
H90   H     H_    0.107940 0.063278 0.879281 0.245181
H91   H     H_    0.207710 0.958848 0.895544 0.244682
H92   H     H_    0.271387 0.102334 0.912553 0.265836
H93   H     H_    0.392464 0.160955 0.852936 0.209520
H94   H     H_    0.323947 0.020033 0.833485 0.202716
C127  C     C_3   0.920766 0.277791 0.638027 -0.341393
C128  C     C_3   0.947088 0.200502 0.613404 -0.244618
C129  C     C_3   0.930489 0.103757 0.640075 -0.856264
H95   H     H_    0.995891 0.131300 0.663938 0.241074
H96   H     H_    0.849147 0.063947 0.655533 0.232397
H97   H     H_    0.933465 0.041803 0.619868 0.246011
H98   H     H_    0.890079 0.164407 0.586930 0.266315
H99   H     H_    0.034220 0.244805 0.603264 0.244882
H100  H     H_    0.974774 0.299647 0.665683 0.203117
H101  H     H_    0.833055 0.227771 0.646922 0.211876
C130  C     C_3   0.715082 0.650288 0.859708 -0.343051
C131  C     C_3   0.795196 0.753339 0.883885 -0.249725
C132  C     C_3   0.892123 0.830189 0.856630 -0.856485
H102  H     H_    0.928013 0.785478 0.840652 0.232150
H103  H     H_    0.866154 0.870454 0.833183 0.242872
H104  H     H_    0.956712 0.893178 0.876561 0.245458
H105  H     H_    0.754469 0.799289 0.894499 0.253088
H106  H     H_    0.830603 0.730334 0.909973 0.257126
H107  H     H_    0.765449 0.612349 0.851524 0.211322
H108  H     H_    0.692608 0.680592 0.831663 0.203512
N1    N     N_R   0.042129 0.381709 0.049170 0.086418
O27   O     O_R   0.954094 0.290152 0.039577 -0.332327
O28   O     O_R   0.136742 0.406741 0.033026 -0.359977
N2    N     N_R   0.334703 0.950179 0.451499 0.085761
O29   O     O_R   0.266400 0.855378 0.467798 -0.358931
O30   O     O_R   0.330334 0.037657 0.461341 -0.332564
N3    N     N_R   0.647999 0.641744 0.053534 0.083890
O31   O     O_R   0.724758 0.616497 0.048692 -0.359220
O32   O     O_R   0.648636 0.719895 0.031813 -0.329432
N4    N     N_R   0.049648 0.384379 0.451458 0.086029
O33   O     O_R   0.144451 0.410595 0.467722 -0.359060
O34   O     O_R   0.962152 0.292556 0.461227 -0.332527
N5    N     N_R   0.333286 0.945100 0.047909 0.086217
O35   O     O_R   0.328383 0.032070 0.037734 -0.331305
O36   O     O_R   0.264174 0.849571 0.032332 -0.359887
N6    N     N_R   0.615476 0.665273 0.451482 0.085988
O37   O     O_R   0.589188 0.733897 0.467675 -0.359054
O38   O     O_R   0.707288 0.669563 0.461312 -0.332604
N7    N     N_R   0.384577 0.050013 0.548515 0.086081
O39   O     O_R   0.410861 0.144913 0.532331 -0.359004
O40   O     O_R   0.292722 0.962611 0.538704 -0.332584
N8    N     N_R   0.945195 0.333333 0.952084 0.086193
O41   O     O_R   0.032173 0.328427 0.962248 -0.331307
O42   O     O_R   0.849688 0.264250 0.967683 -0.359861
N9    N     N_R   0.665332 0.615410 0.548510 0.086015
O43   O     O_R   0.733945 0.589094 0.532327 -0.358973
O44   O     O_R   0.669660 0.707235 0.538675 -0.332637
N10   N     N_R   0.381684 0.042078 0.950826 0.086408
O45   O     O_R   0.290157 0.954010 0.960419 -0.332316
O46   O     O_R   0.406644 0.136685 0.966960 -0.360023
N11   N     N_R   0.949632 0.334473 0.548469 0.085653
O47   O     O_R   0.854783 0.266573 0.532109 -0.358737
O48   O     O_R   0.036929 0.329807 0.538586 -0.332539
N12   N     N_R   0.641717 0.648016 0.946463 0.083887
O49   O     O_R   0.616447 0.724760 0.951303 -0.359207
O50   O     O_R   0.719872 0.648673 0.968188 -0.329435

loop_
_geom_bond_atom_site_label_1
_geom_bond_atom_site_label_2
_geom_bond_distance
_ccdc_geom_bond_type
C127  H101  1.108384 S    
C76   C88   1.418692 A    
C16   C23   1.210270 T    
C35   C95   1.440074 A    
C112  C113  1.532755 S    
C129  H96   1.108636 S    
O16   C4    1.303490 A    
O18   Cr3   1.928083 S    
C26   C38   1.406273 A    
H18   C57   1.083475 S    
C99   H26   1.110759 S    
C65   C77   1.407768 A    
C45   C57   1.395436 A    
H17   C58   1.083516 S    
C52   C64   1.393454 A    
C101  H36   1.109444 S    
C118  C119  1.532188 S    
O22   Cr4   1.927719 S    
C34   C94   1.439446 A    
O4    C6    1.275065 A    
O13   C1    1.304336 A    
C106  H52   1.108388 S    
C80   C92   1.418147 A    
C123  H81   1.110814 S    
C109  H58   1.108358 S    
O6    Cr3   2.041521 S    
C105  H40   1.110750 S    
C103  C104  1.531164 S    
C82   C94   1.419331 A    
C5    C25   1.500118 S    
C82   N5    1.420175 S    
N4    O33   1.301721 A    
C102  H32   1.110808 S    
C31   C91   1.440037 A    
O20   Cr5   1.927588 S    
C42   C54   1.395439 A    
O14   Cr2   1.927615 S    
C101  C102  1.525638 S    
N7    O40   1.299525 A    
H8    C44   1.080025 S    
C29   C89   1.438993 A    
C56   C68   1.393672 A    
C120  H75   1.110817 S    
C116  H70   1.107022 S    
C9    C35   1.499792 S    
O20   C8    1.301533 A    
N8    O41   1.299276 A    
C58   C70   1.393336 A    
Cr6   O26   1.975018 S    
C108  H47   1.108750 S    
N9    O43   1.301606 A    
O21   C9    1.303229 A    
C28   C88   1.440060 A    
C127  H100  1.112278 S    
C124  C125  1.532153 S    
C120  H76   1.105267 S    
C59   C71   1.393424 A    
C107  C108  1.525681 S    
C89   C124  1.541436 S    
O3    C5    1.276598 A    
C79   N2    1.420023 S    
C28   C40   1.406363 A    
C83   C95   1.418666 A    
O5    Cr2   2.040975 S    
C3    C29   1.500935 S    
C66   C78   1.407929 A    
C104  C105  1.525375 S    
C34   C46   1.407665 A    
O11   Cr5   2.040947 S    
C18   C69   1.451059 S    
C37   C49   1.395488 A    
C48   C60   1.394141 A    
C11   C31   1.499779 S    
C77   N10   1.419593 S    
C8    C34   1.500108 S    
H14   C55   1.083474 S    
N7    O39   1.301684 A    
N10   O46   1.301742 A    
C131  C132  1.525367 S    
C7    C33   1.499795 S    
C76   N11   1.420016 S    
O12   Cr6   2.041517 S    
C113  H63   1.107018 S    
C36   C96   1.442078 A    
C63   C75   1.407966 A    
C17   C22   1.210563 T    
C22   C65   1.451605 S    
C127  C128  1.532741 S    
H10   C46   1.080735 S    
C105  H41   1.104107 S    
C61   C73   1.408064 A    
C125  C126  1.525668 S    
C84   C96   1.420475 A    
C14   C67   1.451123 S    
O2    Cr2   2.040937 S    
C26   C86   1.440082 A    
O9    Cr6   2.041491 S    
C111  H55   1.105275 S    
C130  H107  1.109128 S    
C110  C111  1.524721 S    
C40   C52   1.395464 A    
C129  H97   1.105454 S    
O19   C7    1.303474 A    
C102  H33   1.108671 S    
H16   C59   1.083474 S    
H23   C52   1.083482 S    
C50   C62   1.393435 A    
C99   H27   1.105088 S    
C123  H82   1.108715 S    
C84   N3    1.419916 S    
C49   C61   1.393332 A    
C101  H35   1.107053 S    
C71   C83   1.407975 A    
C85   C118  1.543022 S    
C78   C90   1.418669 A    
C30   C90   1.440093 A    
C75   C87   1.420476 A    
C51   C63   1.392207 A    
N12   O50   1.299214 A    
C118  H79   1.108361 S    
N12   O49   1.301244 A    
C24   C63   1.451578 S    
C31   C43   1.406368 A    
C114  H61   1.108716 S    
Cr1   O25   1.976036 S    
O22   C10   1.304348 A    
C110  H57   1.107019 S    
C124  H93   1.105959 S    
C125  H91   1.109603 S    
O7    C9    1.275106 A    
C55   C67   1.393430 A    
O16   Cr1   1.927696 S    
C73   N8    1.420097 S    
C130  C131  1.531157 S    
C29   C41   1.406835 A    
C46   C58   1.395489 A    
N11   O48   1.299591 A    
C117  H69   1.105422 S    
C115  H72   1.112268 S    
C68   C80   1.407766 A    
C116  C117  1.525713 S    
H2    C38   1.079933 S    
C108  H48   1.105385 S    
O8    C10   1.275753 A    
C100  H37   1.112275 S    
C119  C120  1.524727 S    
C69   C81   1.407926 A    
C115  C116  1.532770 S    
C16   C71   1.451115 S    
C12   C32   1.500938 S    
C109  H59   1.112270 S    
O9    C11   1.275026 A    
C67   C79   1.407914 A    
C78   N9    1.420075 S    
N6    O38   1.299508 A    
C6    C26   1.499797 S    
C47   C59   1.395454 A    
C117  H67   1.110823 S    
C106  C107  1.532743 S    
C98   H29   1.106469 S    
N5    O35   1.299232 A    
C62   C74   1.407972 A    
H22   C53   1.083489 S    
C119  H78   1.107026 S    
C13   C68   1.451604 S    
C25   C37   1.407665 A    
C115  H73   1.108378 S    
C121  H87   1.108414 S    
O15   C3    1.302530 A    
N11   O47   1.301545 A    
H24   C51   1.083445 S    
C128  H99   1.109445 S    
N3    O31   1.301239 A    
C43   C55   1.395463 A    
C25   C85   1.439450 A    
O14   C2    1.303023 A    
C120  H74   1.108804 S    
C32   C92   1.438997 A    
H12   C48   1.078538 S    
N9    O44   1.299501 A    
C122  H85   1.109453 S    
C27   C39   1.406131 A    
O23   Cr5   1.927602 S    
O21   Cr6   1.928110 S    
C128  H98   1.107135 S    
C100  H38   1.108392 S    
C132  H103  1.110751 S    
C98   C99   1.525670 S    
O4    Cr1   2.041187 S    
C32   C44   1.406831 A    
C125  H92   1.106450 S    
N4    O34   1.299556 A    
O24   C12   1.302537 A    
O18   C6    1.303257 A    
C96   C103  1.542910 S    
C121  H86   1.112278 S    
C130  H108  1.112601 S    
C81   C93   1.418669 A    
C75   N12   1.419916 S    
N2    O30   1.299554 A    
C103  H45   1.112602 S    
C44   C56   1.396000 A    
C102  H34   1.105413 S    
C79   C91   1.418688 A    
Cr2   O25   1.975992 S    
C126  H89   1.110759 S    
C4    C30   1.499785 S    
O8    Cr5   2.040971 S    
C123  H83   1.105417 S    
O5    C1    1.275761 A    
C112  H66   1.108395 S    
C87   C130  1.542903 S    
C122  C123  1.525736 S    
H15   C60   1.083445 S    
C113  H64   1.109451 S    
C129  H95   1.110807 S    
C104  H43   1.106411 S    
C74   N7    1.420027 S    
O3    Cr3   2.041482 S    
N10   O45   1.299688 A    
O1    C3    1.276636 A    
O15   Cr3   1.928113 S    
C132  H102  1.109556 S    
C114  H62   1.105421 S    
O24   Cr6   1.928086 S    
C114  H60   1.110816 S    
O19   Cr4   1.927675 S    
C70   C82   1.408065 A    
C131  H106  1.106413 S    
C15   C72   1.451575 S    
C83   N4    1.419961 S    
C33   C45   1.406367 A    
O17   Cr2   1.927573 S    
C64   C76   1.407924 A    
C74   C86   1.418678 A    
O10   Cr4   2.041158 S    
C17   C70   1.451708 S    
C131  H105  1.108850 S    
Cr4   O26   1.976040 S    
C86   C115  1.543535 S    
C35   C47   1.406319 A    
C94   C109  1.543021 S    
C116  H71   1.109461 S    
C106  H51   1.112270 S    
C2    C28   1.499736 S    
O2    C4    1.275427 A    
O17   C5    1.301538 A    
H19   C50   1.083473 S    
C95   C106  1.543549 S    
O7    Cr4   2.041200 S    
C39   C51   1.394140 A    
C21   C66   1.451056 S    
H9    C45   1.080012 S    
C88   C127  1.543528 S    
H21   C54   1.083474 S    
C60   C72   1.392210 A    
O23   C11   1.303001 A    
C81   N6    1.420065 S    
C97   H31   1.112454 S    
O1    Cr1   2.041181 S    
N6    O37   1.301608 A    
C128  C129  1.525628 S    
C117  H68   1.108752 S    
C41   C53   1.396001 A    
C72   C84   1.407967 A    
H11   C47   1.079952 S    
C14   C19   1.210249 T    
N5    O36   1.301635 A    
C105  H39   1.109560 S    
C91   C100  1.543486 S    
C119  H77   1.109500 S    
C54   C66   1.393412 A    
N8    O42   1.301628 A    
N2    O29   1.301579 A    
Cr5   O26   1.975985 S    
C53   C65   1.393676 A    
C108  H46   1.110828 S    
O6    C2    1.274994 A    
C20   C61   1.451710 S    
C13   C20   1.210560 T    
C97   H30   1.105962 S    
C124  H94   1.112453 S    
C57   C69   1.393407 A    
C33   C93   1.440083 A    
N1    O28   1.301698 A    
C112  H65   1.112280 S    
H5    C41   1.080022 S    
H4    C40   1.080041 S    
C107  H50   1.109449 S    
C122  H84   1.107022 S    
N3    O32   1.299227 A    
C103  H44   1.109131 S    
C93   C112  1.543512 S    
C30   C42   1.406361 A    
C132  H104  1.104100 S    
C10   C36   1.502326 S    
C90   C121  1.543525 S    
C100  C101  1.532728 S    
C38   C50   1.395455 A    
C36   C48   1.406125 A    
C19   C62   1.451107 S    
O11   C7    1.275440 A    
C111  H53   1.108803 S    
C110  H56   1.109504 S    
C118  H80   1.112272 S    
C98   H28   1.109604 S    
C77   C89   1.418136 A    
C113  C114  1.525736 S    
H20   C49   1.083519 S    
C109  C110  1.532194 S    
C92   C97   1.541436 S    
C126  H90   1.105084 S    
H7    C43   1.080008 S    
C99   H25   1.108984 S    
C1    C27   1.502324 S    
C23   C64   1.451137 S    
C107  H49   1.107034 S    
H6    C42   1.080018 S    
C27   C87   1.442072 A    
O10   C12   1.276633 A    
C73   C85   1.419335 A    
O13   Cr1   1.927701 S    
C80   N1    1.419606 S    
H1    C37   1.080733 S    
C97   C98   1.532144 S    
C126  H88   1.108987 S    
H13   C56   1.083485 S    
Cr3   O25   1.975016 S    
C104  H42   1.108850 S    
C18   C21   1.210200 T    
O12   C8    1.276594 A    
C121  C122  1.532756 S    
H3    C39   1.078540 S    
C15   C24   1.210645 T    
C111  H54   1.110816 S    
N1    O27   1.299678 A    
