data_mof_unit_pretest_1126.cif
_audit_creation_date              2013-03-05T16:45:56-0500
_audit_creation_method            fapswitch 2.2
_symmetry_space_group_name_H-M    P1
_symmetry_Int_Tables_number       1
_space_group_crystal_system       triclinic
_cell_length_a                    9.884224
_cell_length_b                    10.667764
_cell_length_c                    16.906063
_cell_angle_alpha                 88.79258
_cell_angle_beta                  94.555168
_cell_angle_gamma                 89.324934
_cell_volume                      1776.43152228

loop_
_atom_site_label
_atom_site_type_symbol
_atom_site_description
_atom_site_fract_x
_atom_site_fract_y
_atom_site_fract_z
_atom_type_partial_charge
O1    O     O_R   0.614690 0.316790 0.499990 -0.604169
O2    O     O_R   0.385350 0.316760 0.500000 -0.632268
C1    C     C_R   0.500260 0.259821 0.497103 0.936154
O3    O     O_R   0.627460 0.498860 0.616130 -0.608015
O4    O     O_R   0.398120 0.498820 0.616130 -0.624099
C2    C     C_R   0.517791 0.500383 0.653009 0.874954
Zn1   Zn    Zn3+2 0.653130 0.500020 0.499990 1.044318
Zn2   Zn    Zn3+2 0.346870 0.499980 0.500010 1.002926
O5    O     O_R   0.614650 0.683240 0.500000 -0.594559
O6    O     O_R   0.385310 0.683210 0.500010 -0.579158
O7    O     O_R   0.601880 0.501180 0.383870 -0.549838
O8    O     O_R   0.372540 0.501140 0.383870 -0.625818
C3    C     C_R   0.498242 0.739870 0.493576 0.913459
C4    C     C_R   0.482149 0.499525 0.347206 0.961180
C5    C     C_R   0.528620 0.509111 0.738595 -0.041468
C6    C     C_R   0.415764 0.481825 0.780375 -0.205458
C7    C     C_R   0.423765 0.493083 0.861728 -0.139210
C8    C     C_R   0.545144 0.532854 0.902366 0.302825
C9    C     C_R   0.658021 0.559218 0.860728 -0.145262
C10   C     C_R   0.649535 0.548893 0.778810 -0.126306
C11   C     C_R   0.558820 0.454810 0.137010 -0.193147
C12   C     C_R   0.563504 0.435395 0.218703 0.305144
C13   C     C_R   0.460630 0.536178 0.098133 0.260811
N1    N     N_2   0.559535 0.536533 0.985606 -0.171551
N2    N     N_2   0.449262 0.550873 0.015197 -0.178420
C14   C     C_R   0.470303 0.501766 0.261592 -0.157144
H1    H     H_    0.628480 0.402808 0.103301 0.195114
H2    H     H_    0.752098 0.588276 0.891828 0.168578
H3    H     H_    0.736464 0.573460 0.746928 0.201333
C15   C     C_R   0.369221 0.578573 0.222254 -0.209462
C16   C     C_R   0.363935 0.594720 0.140633 -0.142903
H4    H     H_    0.296520 0.628684 0.254925 0.218050
H5    H     H_    0.335933 0.468346 0.892886 0.173146
H6    H     H_    0.285912 0.654483 0.110477 0.175196
H7    H     H_    0.321607 0.450949 0.750408 0.177128
C17   C     C_R   0.620381 0.062025 0.480258 0.199908
C18   C     C_R   0.499137 0.129138 0.481121 -0.163257
C19   C     C_R   0.376088 0.069560 0.459838 -0.268776
H8    H     H_    0.281974 0.122805 0.450104 0.209942
C20   C     C_R   0.373495 0.939505 0.454411 0.307238
C21   C     C_R   0.495549 0.871339 0.474792 -0.248309
C22   C     C_R   0.618305 0.934430 0.478425 0.169646
C23   C     C_3   0.742294 0.919835 0.534596 -0.409231
C24   C     C_3   0.745645 0.061548 0.535795 -0.491249
H9    H     H_    0.720995 0.876362 0.592617 0.194068
H10   H     H_    0.829057 0.877610 0.506099 0.263300
H11   H     H_    0.728108 0.100392 0.594697 0.225681
H12   H     H_    0.833625 0.099461 0.506463 0.233318
C25   C     C_R   0.080813 0.464959 0.566595 0.178579
N3    N     N_R   0.142860 0.499130 0.500540 -0.134835
C26   C     C_R   0.063876 0.545097 0.436743 -0.110451
H13   H     H_    0.111777 0.580346 0.385595 0.213158
C27   C     C_R   0.920326 0.547389 0.436652 0.332869
N4    N     N_R   0.857210 0.499170 0.500530 -0.191813
C28   C     C_R   0.938334 0.467069 0.567253 0.076632
C29   C     C_3   0.941003 0.343802 0.610730 0.125598
C30   C     C_3   0.094543 0.340481 0.608274 -0.531446
H14   H     H_    0.887669 0.270158 0.576170 0.112103
H15   H     H_    0.152363 0.345434 0.667122 0.227502
H16   H     H_    0.130573 0.266031 0.569620 0.196060
N5    N     N_R   0.658366 0.344789 0.256238 0.229342
O9    O     O_R   0.621888 0.270330 0.312455 -0.398073
O10   O     O_R   0.773675 0.323421 0.226480 -0.326790
N6    N     N_R   0.247987 0.879573 0.430532 0.234568
O11   O     O_R   0.134270 0.921806 0.454336 -0.395250
O12   O     O_R   0.244358 0.798081 0.374239 -0.396211
N7    N     N_R   0.843741 0.603069 0.369444 0.236170
O13   O     O_R   0.773110 0.704624 0.378234 -0.359635
O14   O     O_R   0.872070 0.573114 0.298353 -0.352130
N8    N     N_R   0.897823 0.354550 0.691134 0.239169
O15   O     O_R   0.954149 0.434557 0.740264 -0.414239
O16   O     O_R   0.803852 0.281443 0.714624 -0.395219

loop_
_geom_bond_atom_site_label_1
_geom_bond_atom_site_label_2
_geom_bond_distance
_ccdc_geom_bond_type
O4    Zn2   1.987843 S    
Zn1   O7    1.987843 S    
C28   C29   1.491813 S    
N1    N2    1.244024 D    
C14   C15   1.401461 A    
C18   C19   1.403918 A    
O2    C1    1.286547 A    
C21   C22   1.392163 A    
C17   C22   1.362523 A    
C9    C10   1.387570 A    
C20   N6    1.435517 S    
C24   H11   1.111991 S    
Zn2   O8    1.999482 S    
C23   C24   1.513039 S    
N6    O11   1.302255 A    
C3    C21   1.430925 S    
C7    C8    1.408816 A    
C11   H1    1.083159 S    
C16   H6    1.083232 S    
C25   C30   1.489759 S    
C24   H12   1.110867 S    
N5    O10   1.301483 A    
C11   C12   1.389276 A    
C4    C14   1.442490 S    
C12   N5    1.440260 S    
C15   H4    1.083354 S    
C9    H2    1.083156 S    
C23   H9    1.112431 S    
N6    O12   1.301136 A    
C23   H10   1.111818 S    
C15   C16   1.383758 A    
C7    H5    1.083040 S    
O1    Zn1   1.995629 S    
O3    Zn1   1.999482 S    
C8    N1    1.404568 S    
O4    C2    1.293020 A    
O3    C2    1.292828 A    
C20   C21   1.416216 A    
C19   C20   1.392758 A    
C29   H14   1.103017 S    
N3    C26   1.359477 A    
C29   N8    1.463087 S    
C10   H3    1.081836 S    
C13   N2    1.403024 S    
C6    H7    1.081976 S    
N5    O9    1.301373 A    
C27   N7    1.428699 S    
O7    C4    1.292089 A    
C30   H15   1.109873 S    
C17   C24   1.493173 S    
C22   C23   1.494120 S    
N7    O13   1.299457 A    
C6    C7    1.379195 A    
Zn2   N3    2.017338 S    
N8    O15   1.302276 A    
C19   H8    1.083673 S    
C29   C30   1.521499 S    
C1    C18   1.425630 S    
Zn2   O6    1.995629 S    
C25   N3    1.361244 A    
C12   C14   1.409986 A    
N7    O14   1.300975 A    
Zn1   O5    1.986812 S    
C8    C9    1.393997 A    
O5    C3    1.289048 A    
N4    C28   1.366104 A    
C17   C18   1.389946 A    
C30   H16   1.112129 S    
N8    O16   1.300489 A    
Zn1   N4    2.016381 S    
C26   C27   1.418680 A    
C2    C5    1.447421 S    
C25   C28   1.409143 A    
C11   C13   1.407891 A    
C5    C6    1.397179 A    
O2    Zn2   1.986813 S    
C26   H13   1.081109 S    
C27   N4    1.382463 A    
O8    C4    1.290327 A    
C5    C10   1.402048 A    
O1    C1    1.288283 A    
O6    C3    1.286693 A    
C13   C16   1.390561 A    
