data_mof_unit_pretest_1434.cif
_audit_creation_date              2012-12-10T19:51:56-0500
_audit_creation_method            fapswitch 2.2
_symmetry_space_group_name_H-M    P1
_symmetry_Int_Tables_number       1
_space_group_crystal_system       triclinic
_cell_length_a                    25.92146
_cell_length_b                    25.974087
_cell_length_c                    22.161386
_cell_angle_alpha                 89.954687
_cell_angle_beta                  125.642922
_cell_angle_gamma                 89.915984
_cell_volume                      12125.6930833

loop_
_atom_site_label
_atom_site_type_symbol
_atom_type_description
_atom_site_fract_x
_atom_site_fract_y
_atom_site_fract_z
_atom_type_partial_charge
C1    C     C_R   0.650411 0.750005 0.300614 0.807889
C2    C     C_R   0.650435 0.250082 0.300625 0.814902
C3    C     C_R   0.150393 0.250018 0.300620 0.807186
C4    C     C_R   0.150346 0.750044 0.300628 0.816342
C5    C     C_3   0.657115 0.470850 0.371227 -0.422888
C6    C     C_3   0.657094 0.529375 0.371083 -0.439269
C7    C     C_3   0.156263 0.970813 0.371773 -0.420955
C8    C     C_3   0.156258 0.029335 0.371615 -0.437800
C9    C     C_3   0.493561 0.204032 0.024866 -0.193880
C10   C     C_3   0.500756 0.800071 0.024456 -0.199040
C11   C     C_3   0.969268 0.723998 0.024692 -0.193530
C12   C     C_3   0.015277 0.302119 0.024743 -0.196058
C13   C     C_3   0.943344 0.772669 0.975195 -0.099738
C14   C     C_3   0.945992 0.282615 0.976281 -0.097556
C15   C     C_3   0.439872 0.243242 0.975687 -0.108681
C16   C     C_3   0.440376 0.767041 0.975280 -0.098263
C17   C     C_1   0.889115 0.749981 0.778483 -0.090774
C18   C     C_1   0.887373 0.251503 0.778383 -0.112663
C19   C     C_1   0.389341 0.249960 0.778468 -0.091352
C20   C     C_1   0.388467 0.750751 0.778337 -0.105085
C21   C     C_1   0.611189 0.250059 0.221399 -0.103467
C22   C     C_1   0.610718 0.750458 0.221307 -0.095003
C23   C     C_1   0.110528 0.749868 0.221410 -0.105799
C24   C     C_1   0.110427 0.250709 0.221330 -0.096606
C25   C     C_3   0.987281 0.700643 0.975156 -0.097375
C26   C     C_3   0.028819 0.274021 0.973858 -0.112463
C27   C     C_3   0.516760 0.209278 0.974771 -0.093479
C28   C     C_3   0.522234 0.786009 0.974451 -0.110283
C29   C     C_3   0.961981 0.749559 0.926045 0.041549
C30   C     C_3   0.959769 0.253970 0.925866 0.040582
C31   C     C_3   0.463449 0.248952 0.926009 0.038713
C32   C     C_3   0.462225 0.752510 0.925762 0.039298
C33   C     C_3   0.560544 0.253882 0.023585 0.423791
C34   C     C_3   0.557365 0.738477 0.023384 0.448595
C35   C     C_3   0.053033 0.726212 0.024137 0.429226
C36   C     C_3   0.048409 0.225439 0.022554 0.443590
C37   C     C_3   0.537800 0.248450 0.073747 0.043904
C38   C     C_3   0.536442 0.752595 0.073532 0.044043
C39   C     C_3   0.035317 0.749166 0.073763 0.049072
C40   C     C_3   0.035475 0.253449 0.073597 0.045020
C41   C     C_3   0.028687 0.775216 0.974837 -0.422542
C42   C     C_3   0.979698 0.204467 0.974503 -0.398250
C43   C     C_3   0.507887 0.294200 0.974583 -0.410658
C44   C     C_3   0.497961 0.704232 0.974469 -0.404513
C45   C     C_R   0.849676 0.750034 0.699337 0.845332
C46   C     C_R   0.849235 0.250288 0.699295 0.804519
C47   C     C_R   0.349686 0.250023 0.699332 0.849690
C48   C     C_R   0.349270 0.750285 0.699274 0.802474
C49   C     C_3   0.484461 0.287428 0.024409 0.440844
C50   C     C_3   0.476441 0.719708 0.024198 0.423429
C51   C     C_3   0.009597 0.797449 0.024180 0.429187
C52   C     C_3   0.966594 0.233928 0.025103 0.423666
C53   C     C_1   0.922116 0.749868 0.845100 0.118206
C54   C     C_1   0.919592 0.252788 0.844946 0.109725
C55   C     C_1   0.422817 0.249630 0.845077 0.119128
C56   C     C_1   0.421707 0.751535 0.844894 0.108499
C57   C     C_1   0.578268 0.249565 0.154744 0.121227
C58   C     C_1   0.577294 0.751228 0.154605 0.121743
C59   C     C_1   0.076748 0.749636 0.154759 0.122131
C60   C     C_1   0.076692 0.251729 0.154645 0.122592
C61   C     C_R   0.525224 0.708288 0.497780 -0.054057
C62   C     C_R   0.512587 0.289518 0.473591 -0.119056
C63   C     C_R   0.037634 0.209396 0.521582 -0.016583
C64   C     C_R   0.010496 0.788029 0.469469 -0.114660
C65   C     C_R   0.553084 0.753164 0.496963 -0.178168
C66   C     C_R   0.551505 0.246379 0.495210 -0.140312
C67   C     C_R   0.054107 0.252521 0.499681 -0.229559
C68   C     C_R   0.051362 0.746081 0.494768 -0.155582
C69   C     C_R   0.525436 0.800588 0.495768 0.438510
C70   C     C_R   0.529552 0.198635 0.503214 0.449820
C71   C     C_R   0.020752 0.298996 0.486698 0.445801
C72   C     C_R   0.030225 0.698486 0.504425 0.454861
C73   C     C_R   0.467820 0.800428 0.490731 -0.122688
C74   C     C_R   0.472915 0.197086 0.499488 -0.141077
C75   C     C_R   0.963513 0.298257 0.481868 -0.114673
C76   C     C_R   0.973841 0.696940 0.501373 -0.142448
C77   C     C_R   0.444757 0.752597 0.498383 -0.200617
C78   C     C_R   0.439722 0.243894 0.487987 -0.178409
C79   C     C_R   0.945630 0.251806 0.499431 -0.232392
C80   C     C_R   0.939259 0.743475 0.487101 -0.185994
C81   C     C_R   0.476681 0.707624 0.504185 -0.142819
C82   C     C_R   0.456605 0.287900 0.466988 0.055082
C83   C     C_R   0.986337 0.209144 0.524634 -0.133553
C84   C     C_R   0.953799 0.785951 0.460757 0.041609
C85   C     C_3   0.475057 0.649341 0.503939 0.393858
C86   C     C_3   0.460773 0.343079 0.489570 0.418039
C87   C     C_3   0.976229 0.151993 0.507716 0.382057
C88   C     C_3   0.952317 0.843104 0.470240 0.413140
C89   C     C_R   0.888668 0.748335 0.497203 0.872124
C90   C     C_R   0.890074 0.249945 0.500098 0.789877
C91   C     C_R   0.388594 0.248237 0.497152 0.871163
C92   C     C_R   0.389788 0.750272 0.499730 0.786865
C93   C     C_3   0.528838 0.651639 0.492778 0.316453
C94   C     C_3   0.526513 0.343242 0.504427 0.226449
C95   C     C_3   0.031749 0.154307 0.500442 0.297092
C96   C     C_3   0.019830 0.844049 0.489585 0.193069
C97   C     C_R   0.728164 0.973549 0.440502 0.065417
C98   C     C_R   0.728102 0.026380 0.440421 0.063564
C99   C     C_R   0.224475 0.473582 0.439626 0.052314
C100  C     C_R   0.224417 0.526447 0.439619 0.062439
C101  C     C_R   0.755127 0.945788 0.506044 -0.104284
C102  C     C_R   0.754913 0.054076 0.505871 -0.085939
C103  C     C_R   0.255228 0.445806 0.505596 -0.096356
C104  C     C_R   0.254988 0.554092 0.505563 -0.074465
C105  C     C_R   0.778573 0.972555 0.573426 -0.120553
C106  C     C_R   0.778306 0.027160 0.573245 -0.129352
C107  C     C_R   0.283354 0.472495 0.573965 -0.113075
C108  C     C_R   0.282965 0.527166 0.573914 -0.127888
C109  C     C_3   0.740259 0.029148 0.382425 -0.425644
C110  C     C_3   0.740347 0.970712 0.382516 -0.408863
C111  C     C_3   0.231377 0.529333 0.377409 -0.430745
C112  C     C_3   0.231677 0.470892 0.377567 -0.403871
C113  C     C_R   0.609563 0.750907 0.498910 0.899845
C114  C     C_R   0.609841 0.249938 0.500160 0.814668
C115  C     C_R   0.109651 0.250759 0.499294 0.903522
C116  C     C_R   0.109814 0.749893 0.500073 0.813702
C117  C     C_R   0.751973 0.890006 0.501864 0.858627
C118  C     C_R   0.751819 0.109946 0.501738 0.857654
C119  C     C_R   0.251718 0.390017 0.501550 0.857106
C120  C     C_R   0.251625 0.609948 0.501514 0.864125
C121  C     C_R   0.750068 0.609840 0.501094 0.852074
C122  C     C_R   0.749966 0.390180 0.501202 0.850258
C123  C     C_R   0.250029 0.109820 0.501135 0.854487
C124  C     C_R   0.249876 0.890177 0.501356 0.853189
C125  C     C_R   0.696153 0.526542 0.453836 0.048428
C126  C     C_R   0.696130 0.473733 0.453933 0.057853
C127  C     C_R   0.195647 0.026553 0.454405 0.049401
C128  C     C_R   0.195613 0.973722 0.454485 0.053400
C129  C     C_R   0.749772 0.554102 0.507457 -0.229029
C130  C     C_R   0.749513 0.445920 0.507972 -0.224372
C131  C     C_R   0.249498 0.054075 0.507745 -0.230579
C132  C     C_R   0.249096 0.945889 0.508386 -0.226615
C133  C     C_R   0.801592 0.527228 0.568956 0.321355
C134  C     C_R   0.800459 0.472585 0.570570 0.334433
C135  C     C_R   0.301163 0.027157 0.569356 0.321762
C136  C     C_R   0.299730 0.972526 0.571202 0.338728
H1    H     H_    0.514511 0.640458 0.436286 0.001415
H2    H     H_    0.531483 0.371912 0.470605 0.011061
H3    H     H_    0.018058 0.150426 0.442597 0.006005
H4    H     H_    0.025256 0.869081 0.452736 0.024760
H5    H     H_    0.699490 0.046083 0.329648 0.217533
H6    H     H_    0.699592 0.953901 0.329792 0.224723
H7    H     H_    0.188671 0.546168 0.326320 0.207260
H8    H     H_    0.189230 0.454001 0.326469 0.220985
H9    H     H_    0.787329 0.045943 0.403645 0.259414
H10   H     H_    0.787460 0.953729 0.403681 0.223716
H11   H     H_    0.277374 0.546331 0.394532 0.257641
H12   H     H_    0.277954 0.454043 0.394991 0.230650
H13   H     H_    0.683504 0.453739 0.350637 0.198104
H14   H     H_    0.683424 0.546328 0.350350 0.197050
H15   H     H_    0.182417 0.953688 0.350886 0.198078
H16   H     H_    0.182360 0.046266 0.350573 0.196822
H17   H     H_    0.609443 0.454105 0.347314 0.209808
H18   H     H_    0.609415 0.546304 0.347116 0.206032
H19   H     H_    0.108641 0.954077 0.348167 0.209423
H20   H     H_    0.108631 0.046278 0.347898 0.205208
H21   H     H_    0.052502 0.796014 0.953660 0.147074
H22   H     H_    0.964912 0.164665 0.953091 0.150334
H23   H     H_    0.512851 0.331057 0.953097 0.150870
H24   H     H_    0.496647 0.665370 0.952899 0.148140
O1    O     O_3   0.749980 0.749980 0.500000 -0.505010
O2    O     O_3   0.749980 0.250020 0.500000 -0.496633
O3    O     O_3   0.249980 0.249980 0.500000 -0.503216
O4    O     O_3   0.249980 0.750020 0.500000 -0.495359
O5    O     O_R   0.887330 0.719620 0.543100 -0.673752
O6    O     O_R   0.887330 0.280380 0.543100 -0.637994
O7    O     O_R   0.387330 0.219620 0.543100 -0.666165
O8    O     O_R   0.387330 0.780380 0.543100 -0.646847
O9    O     O_R   0.612630 0.719620 0.456900 -0.651448
O10   O     O_R   0.612630 0.280380 0.456900 -0.657750
O11   O     O_R   0.112630 0.219620 0.456900 -0.652370
O12   O     O_R   0.112630 0.780380 0.456900 -0.659282
O13   O     O_R   0.698160 0.780350 0.335610 -0.612863
O14   O     O_R   0.698160 0.219650 0.335610 -0.626804
O15   O     O_R   0.198160 0.280350 0.335610 -0.613233
O16   O     O_R   0.198160 0.719650 0.335610 -0.633911
O17   O     O_R   0.801810 0.780340 0.664390 -0.606807
O18   O     O_R   0.801810 0.219660 0.664390 -0.612513
O19   O     O_R   0.301810 0.280340 0.664390 -0.617777
O20   O     O_R   0.301810 0.719660 0.664390 -0.607166
O21   O     O_R   0.637440 0.719620 0.335610 -0.642785
O22   O     O_R   0.637440 0.280380 0.335610 -0.635076
O23   O     O_R   0.137440 0.219620 0.335610 -0.642391
O24   O     O_R   0.137440 0.780380 0.335610 -0.631118
O25   O     O_R   0.862520 0.719620 0.664390 -0.638743
O26   O     O_R   0.862520 0.280380 0.664390 -0.638712
O27   O     O_R   0.362520 0.219620 0.664390 -0.629862
O28   O     O_R   0.362520 0.780380 0.664390 -0.640109
O29   O     O_R   0.844240 0.780350 0.456900 -0.574578
O30   O     O_R   0.844240 0.219650 0.456900 -0.645457
O31   O     O_R   0.344240 0.280350 0.456900 -0.588141
O32   O     O_R   0.344240 0.719650 0.456900 -0.646538
O33   O     O_R   0.655730 0.780340 0.543100 -0.645760
O34   O     O_R   0.655730 0.219660 0.543100 -0.608699
O35   O     O_R   0.155730 0.280340 0.543100 -0.647447
O36   O     O_R   0.155730 0.719660 0.543100 -0.604849
O37   O     O_R   0.758800 0.865790 0.456890 -0.625895
O38   O     O_R   0.758800 0.134210 0.456890 -0.637930
O39   O     O_R   0.258800 0.365790 0.456890 -0.634581
O40   O     O_R   0.258800 0.634210 0.456890 -0.641861
O41   O     O_R   0.698070 0.634180 0.456910 -0.658900
O42   O     O_R   0.698070 0.365820 0.456910 -0.655154
O43   O     O_R   0.198070 0.134180 0.456910 -0.657944
O44   O     O_R   0.198070 0.865820 0.456910 -0.657699
O45   O     O_R   0.741170 0.865780 0.543090 -0.628342
O46   O     O_R   0.741170 0.134220 0.543090 -0.624159
O47   O     O_R   0.241170 0.365780 0.543090 -0.627720
O48   O     O_R   0.241170 0.634220 0.543090 -0.625528
O49   O     O_R   0.801880 0.634180 0.543110 -0.620980
O50   O     O_R   0.801880 0.365820 0.543110 -0.595722
O51   O     O_R   0.301880 0.134180 0.543110 -0.621476
O52   O     O_R   0.301880 0.865820 0.543110 -0.595487
Zn1   Zn    Zn3+2 0.824140 0.706600 0.561580 0.978964
Zn2   Zn    Zn3+2 0.824140 0.293400 0.561580 0.977574
Zn3   Zn    Zn3+2 0.324140 0.206600 0.561580 0.987432
Zn4   Zn    Zn3+2 0.324140 0.793400 0.561580 0.973630
Zn5   Zn    Zn3+2 0.762580 0.793360 0.438420 1.043000
Zn6   Zn    Zn3+2 0.762580 0.206640 0.438420 0.986052
Zn7   Zn    Zn3+2 0.262580 0.293360 0.438420 1.033413
Zn8   Zn    Zn3+2 0.262580 0.706640 0.438420 0.977137
Zn9   Zn    Zn3+2 0.737390 0.793360 0.561570 1.019678
Zn10  Zn    Zn3+2 0.737390 0.206640 0.561570 1.001728
Zn11  Zn    Zn3+2 0.237390 0.293360 0.561570 1.012734
Zn12  Zn    Zn3+2 0.237390 0.706640 0.561570 1.006410
Zn13  Zn    Zn3+2 0.675820 0.706600 0.438430 0.962639
Zn14  Zn    Zn3+2 0.675820 0.293400 0.438430 0.952361
Zn15  Zn    Zn3+2 0.175820 0.206600 0.438430 0.963222
Zn16  Zn    Zn3+2 0.175820 0.793400 0.438430 0.951358
O53   O     O_3   0.849766 0.554473 0.629753 -0.631941
C137  C     C_3   0.905649 0.553034 0.632590 0.128868
H25   H     H_    0.898240 0.573694 0.584066 0.162165
H26   H     H_    0.920897 0.512888 0.633166 0.173575
C138  C     C_3   0.958465 0.579649 0.704127 -0.321090
H27   H     H_    0.945035 0.620465 0.703252 0.256543
H28   H     H_    0.964168 0.560236 0.752423 0.231104
C139  C     C_3   0.021801 0.577979 0.714032 -0.906661
H29   H     H_    0.035531 0.537585 0.713247 0.266004
H30   H     H_    0.059204 0.595483 0.768191 0.259149
H31   H     H_    0.018678 0.600232 0.669332 0.309821
O54   O     O_3   0.851965 0.445148 0.628082 -0.620134
C140  C     C_3   0.856634 0.451050 0.694523 0.084204
H32   H     H_    0.809297 0.448941 0.684407 0.120219
H33   H     H_    0.878911 0.488461 0.721049 0.195709
C141  C     C_3   0.899277 0.408303 0.748541 -0.295538
H34   H     H_    0.876916 0.370442 0.724621 0.252968
H35   H     H_    0.945808 0.409106 0.756607 0.245603
C142  C     C_3   0.910634 0.414212 0.823956 -0.919686
H36   H     H_    0.936140 0.450718 0.850706 0.259844
H37   H     H_    0.940028 0.381557 0.860506 0.285946
H38   H     H_    0.864943 0.414197 0.817731 0.283022
O55   O     O_3   0.349795 0.054336 0.629796 -0.633781
C143  C     C_3   0.405205 0.052192 0.631702 0.109565
H39   H     H_    0.397093 0.071574 0.581986 0.163443
H40   H     H_    0.420533 0.011808 0.633817 0.176195
C144  C     C_3   0.458338 0.080029 0.701654 -0.300609
H41   H     H_    0.444748 0.121002 0.699259 0.263990
H42   H     H_    0.464882 0.061905 0.751163 0.233757
C145  C     C_3   0.521122 0.077675 0.710295 -0.886600
H43   H     H_    0.535081 0.037062 0.711259 0.260985
H44   H     H_    0.558821 0.096335 0.763257 0.272429
H45   H     H_    0.517053 0.098475 0.664019 0.305885
O56   O     O_3   0.350150 0.944984 0.629978 -0.618549
C146  C     C_3   0.353688 0.952789 0.695474 0.081911
H46   H     H_    0.305765 0.955102 0.683960 0.115871
H47   H     H_    0.379909 0.988792 0.723342 0.192222
C147  C     C_3   0.390582 0.908121 0.748936 -0.281982
H48   H     H_    0.365936 0.871433 0.722173 0.249225
H49   H     H_    0.438826 0.906142 0.761616 0.256959
C148  C     C_3   0.396747 0.914296 0.821413 -0.929775
H50   H     H_    0.424998 0.949140 0.851476 0.262452
H51   H     H_    0.421094 0.880100 0.857307 0.291378
H52   H     H_    0.349231 0.917667 0.810332 0.264947
O57   O     O_3   0.549391 0.845869 0.488262 -0.608463
C149  C     C_3   0.585258 0.871690 0.557272 0.160687
H53   H     H_    0.625898 0.847516 0.600277 0.149724
H54   H     H_    0.555562 0.881409 0.577017 0.151424
C150  C     C_3   0.610938 0.921636 0.547588 -0.295598
H55   H     H_    0.639717 0.912589 0.526550 0.230295
H56   H     H_    0.570565 0.946519 0.505956 0.248804
C151  C     C_3   0.652018 0.951044 0.620480 -0.977148
H57   H     H_    0.623643 0.961972 0.641407 0.279944
H58   H     H_    0.670278 0.986648 0.611291 0.255864
H59   H     H_    0.693052 0.927048 0.662781 0.271922
O58   O     O_3   0.566519 0.154768 0.522466 -0.577484
C152  C     C_3   0.552201 0.130293 0.457478 0.148427
H60   H     H_    0.567861 0.154485 0.429451 0.101172
H61   H     H_    0.500291 0.122736 0.417915 0.134760
C153  C     C_3   0.587524 0.078792 0.479395 -0.297109
H62   H     H_    0.639090 0.085360 0.521576 0.233930
H63   H     H_    0.570143 0.053585 0.504561 0.251715
C154  C     C_3   0.577923 0.051465 0.412659 -0.964482
H64   H     H_    0.526710 0.043797 0.370079 0.280812
H65   H     H_    0.603832 0.014173 0.430778 0.267311
H66   H     H_    0.596660 0.075382 0.387890 0.263310
O59   O     O_3   0.039610 0.342943 0.469093 -0.609712
C155  C     C_3   0.074930 0.374411 0.532882 0.150134
H67   H     H_    0.115659 0.352875 0.580535 0.148818
H68   H     H_    0.044527 0.388849 0.549627 0.153368
C156  C     C_3   0.100503 0.420544 0.515038 -0.293102
H69   H     H_    0.126581 0.406722 0.492365 0.228952
H70   H     H_    0.060117 0.444799 0.472027 0.242055
C157  C     C_3   0.145142 0.453133 0.583832 -0.982925
H71   H     H_    0.119624 0.468622 0.606374 0.276445
H72   H     H_    0.163193 0.485872 0.568920 0.261893
H73   H     H_    0.186338 0.429738 0.627173 0.270354
O60   O     O_3   0.066562 0.654435 0.521930 -0.576672
C158  C     C_3   0.050581 0.630961 0.455593 0.147118
H74   H     H_    0.065362 0.655738 0.427151 0.104367
H75   H     H_    0.998504 0.623723 0.417032 0.132967
C159  C     C_3   0.085278 0.579349 0.474810 -0.298730
H76   H     H_    0.137035 0.585399 0.516444 0.234976
H77   H     H_    0.068203 0.553415 0.499608 0.252437
C160  C     C_3   0.074207 0.553640 0.406307 -0.977685
H78   H     H_    0.022776 0.546483 0.364239 0.280350
H79   H     H_    0.099729 0.516213 0.422314 0.268340
H80   H     H_    0.092448 0.578386 0.381719 0.263545
C161  C     C_2   0.429064 0.848501 0.470524 0.426263
H81   H     H_    0.386422 0.849186 0.468680 0.074332
O61   O     O_2   0.442551 0.887841 0.452464 -0.540615
C162  C     C_2   0.447517 0.147102 0.504835 0.424222
H82   H     H_    0.398596 0.144108 0.486194 0.047540
O62   O     O_2   0.480167 0.108249 0.528557 -0.563011
C163  C     C_2   0.920048 0.343856 0.452720 0.428630
H83   H     H_    0.878508 0.344670 0.453193 0.062445
O63   O     O_2   0.928700 0.380750 0.425491 -0.539156
C164  C     C_2   0.949718 0.647035 0.508994 0.424339
H84   H     H_    0.900797 0.643421 0.490137 0.049443
O64   O     O_2   0.983468 0.608851 0.534718 -0.563132
O65   O     O_3   0.498276 0.625595 0.573294 -0.589028
C165  C     C_3   0.461240 0.636547 0.599647 0.159977
H85   H     H_    0.452676 0.599601 0.617686 0.186392
H86   H     H_    0.413659 0.652832 0.556990 0.139924
C166  C     C_3   0.498303 0.672329 0.666838 -0.391689
H87   H     H_    0.546789 0.656575 0.707357 0.246287
H88   H     H_    0.502930 0.710865 0.648764 0.234012
C167  C     C_3   0.465257 0.678007 0.705074 -0.867193
H89   H     H_    0.414978 0.689303 0.663880 0.268227
H90   H     H_    0.489410 0.708034 0.748745 0.260982
H91   H     H_    0.467131 0.641059 0.731531 0.280987
O66   O     O_3   0.462759 0.346455 0.555299 -0.604204
C168  C     C_3   0.444638 0.394949 0.566841 0.131450
H92   H     H_    0.439369 0.389884 0.612768 0.195056
H93   H     H_    0.397033 0.407493 0.518383 0.143881
C169  C     C_3   0.495133 0.436414 0.590501 -0.397334
H94   H     H_    0.541095 0.423512 0.641346 0.258478
H95   H     H_    0.501815 0.442862 0.546007 0.207519
C170  C     C_3   0.475625 0.487302 0.606279 -0.891101
H96   H     H_    0.430760 0.501699 0.555338 0.292104
H97   H     H_    0.513323 0.516395 0.624569 0.278615
H98   H     H_    0.468788 0.482307 0.650982 0.268672
O67   O     O_3   0.992541 0.120000 0.568737 -0.585285
C171  C     C_3   0.957049 0.131037 0.597229 0.158533
H99   H     H_    0.943655 0.093708 0.608910 0.180303
H100  H     H_    0.911822 0.151752 0.557557 0.137346
C172  C     C_3   0.998171 0.161018 0.670112 -0.389298
H101  H     H_    0.044661 0.141236 0.707355 0.250030
H102  H     H_    0.007132 0.200388 0.658738 0.236860
C173  C     C_3   0.966178 0.165244 0.709795 -0.864749
H103  H     H_    0.917650 0.181396 0.671682 0.266975
H104  H     H_    0.994274 0.190967 0.758683 0.265694
H105  H     H_    0.963426 0.126710 0.729449 0.284851
O68   O     O_3   0.948344 0.855337 0.529965 -0.589617
C174  C     C_3   0.948239 0.909290 0.539141 0.109610
H106  H     H_    0.903385 0.926472 0.491233 0.144089
H107  H     H_    0.989375 0.927934 0.544444 0.148094
C175  C     C_3   0.951735 0.920219 0.609091 -0.298173
H108  H     H_    0.912779 0.899347 0.605754 0.256708
H109  H     H_    0.997791 0.906002 0.658514 0.233138
C176  C     C_3   0.945333 0.977720 0.617738 -0.916121
H110  H     H_    0.984265 0.999332 0.621947 0.267083
H111  H     H_    0.948020 0.984425 0.668981 0.280305
H112  H     H_    0.898888 0.992400 0.569521 0.272412
C177  C     C_2   0.414910 0.625991 0.438129 0.289549
H113  H     H_    0.390134 0.644627 0.384212 0.064724
O69   O     O_2   0.394123 0.585824 0.444545 -0.583354
C178  C     C_2   0.412053 0.376012 0.423277 0.233981
H114  H     H_    0.425156 0.413949 0.415960 0.058773
O70   O     O_2   0.357668 0.361050 0.379057 -0.518128
C179  C     C_2   0.914556 0.137703 0.435299 0.307469
H115  H     H_    0.895653 0.161750 0.386548 0.063305
O71   O     O_2   0.885937 0.098900 0.430560 -0.575978
C180  C     C_2   0.902132 0.868062 0.396452 0.243541
H116  H     H_    0.915594 0.896443 0.372050 0.043376
O72   O     O_2   0.846107 0.857549 0.364835 -0.507685
O73   O     O_3   0.587932 0.632682 0.554325 -0.584026
C181  C     C_3   0.608096 0.589875 0.533526 0.121008
H117  H     H_    0.659595 0.584147 0.577216 0.160227
H118  H     H_    0.603563 0.596947 0.480991 0.141288
C182  C     C_3   0.572994 0.540754 0.528555 -0.337789
H119  H     H_    0.583304 0.532393 0.583764 0.244986
H120  H     H_    0.520957 0.546102 0.487923 0.241620
C183  C     C_3   0.593387 0.494925 0.504134 -1.000080
H121  H     H_    0.582389 0.502267 0.448393 0.279754
H122  H     H_    0.566944 0.460224 0.500534 0.252656
H123  H     H_    0.645045 0.487542 0.544743 0.262970
O74   O     O_3   0.574940 0.342807 0.581692 -0.581380
C184  C     C_3   0.632910 0.361025 0.597822 0.040457
H124  H     H_    0.636394 0.402949 0.609535 0.155346
H125  H     H_    0.638207 0.354732 0.551928 0.143847
C185  C     C_3   0.686810 0.332793 0.666744 -0.288935
H126  H     H_    0.681208 0.337005 0.712568 0.250891
H127  H     H_    0.684886 0.291144 0.654234 0.229561
C186  C     C_3   0.751066 0.354092 0.692085 -0.949099
H128  H     H_    0.756965 0.352321 0.646326 0.241128
H129  H     H_    0.789319 0.331114 0.739619 0.301585
H130  H     H_    0.755022 0.394509 0.710362 0.259950
O75   O     O_3   0.086110 0.126513 0.556751 -0.579198
C187  C     C_3   0.099217 0.085028 0.526229 0.121650
H131  H     H_    0.148959 0.072595 0.568459 0.160323
H132  H     H_    0.097194 0.096730 0.476473 0.138369
C188  C     C_3   0.055283 0.039224 0.508859 -0.334697
H133  H     H_    0.060347 0.027189 0.560224 0.246898
H134  H     H_    0.005098 0.050529 0.466752 0.237835
C189  C     C_3   0.071100 0.993759 0.478813 -0.998246
H135  H     H_    0.064133 0.004508 0.426000 0.277007
H136  H     H_    0.039143 0.961168 0.467873 0.255969
H137  H     H_    0.121029 0.981285 0.519788 0.260812
O76   O     O_3   0.064992 0.850778 0.566976 -0.589125
C190  C     C_3   0.125161 0.864351 0.585192 0.053298
H138  H     H_    0.131922 0.906375 0.596320 0.152486
H139  H     H_    0.131694 0.855742 0.540823 0.150066
C191  C     C_3   0.175428 0.835169 0.655634 -0.289656
H140  H     H_    0.170911 0.845194 0.701129 0.243376
H141  H     H_    0.167877 0.793066 0.645704 0.234773
C192  C     C_3   0.241996 0.848392 0.679699 -0.952637
H142  H     H_    0.247848 0.838645 0.635193 0.242226
H143  H     H_    0.277369 0.826358 0.730583 0.294819
H144  H     H_    0.250527 0.890033 0.692274 0.253300
C193  C     C_2   0.809387 0.944657 0.645475 0.438961
H145  H     H_    0.800954 0.956622 0.685875 0.041599
O77   O     O_2   0.846247 0.909177 0.661452 -0.582676
C194  C     C_2   0.808645 0.055037 0.644948 0.428526
H146  H     H_    0.798727 0.043993 0.684409 0.041096
O78   O     O_2   0.846568 0.089579 0.661475 -0.593859
C195  C     C_2   0.319013 0.444209 0.646010 0.421000
H147  H     H_    0.315697 0.456045 0.690529 0.038362
O79   O     O_2   0.354024 0.408317 0.657027 -0.592380
C196  C     C_2   0.317644 0.555194 0.645917 0.424675
H148  H     H_    0.313601 0.543124 0.689825 0.043030
O80   O     O_2   0.352642 0.591119 0.657602 -0.597446
C197  C     C_2   0.882582 0.799303 0.950181 0.391860
H149  H     H_    0.876255 0.814202 0.991169 0.083139
O81   O     O_2   0.840274 0.804433 0.884225 -0.563591
C198  C     C_2   0.889281 0.314997 0.952843 0.372285
H150  H     H_    0.885969 0.332893 0.994664 0.088719
O82   O     O_2   0.846758 0.321254 0.887232 -0.595689
C199  C     C_2   0.372758 0.237780 0.951353 0.389172
H151  H     H_    0.363124 0.234698 0.992717 0.082229
O83   O     O_2   0.328920 0.236834 0.885532 -0.563402
C200  C     C_2   0.375209 0.783104 0.950488 0.383330
H152  H     H_    0.366259 0.791339 0.991590 0.087198
O84   O     O_2   0.332198 0.786990 0.884580 -0.585085
C201  C     C_2   0.484443 0.153699 0.050570 0.404866
H153  H     H_    0.451566 0.125652 0.009959 0.080909
O85   O     O_2   0.513631 0.144000 0.116651 -0.562787
C202  C     C_2   0.501124 0.853605 0.049857 0.407322
H154  H     H_    0.473662 0.883556 0.009077 0.072772
O86   O     O_2   0.532008 0.863784 0.115886 -0.552501
C203  C     C_2   0.934998 0.695437 0.050211 0.401309
H155  H     H_    0.888383 0.679544 0.009498 0.079997
O87   O     O_2   0.959022 0.689915 0.116262 -0.565641
C204  C     C_2   0.034034 0.356620 0.050516 0.406675
H156  H     H_    0.016318 0.387441 0.009971 0.071350
O88   O     O_2   0.068996 0.366614 0.116601 -0.553458
O89   O     O_3   0.469148 0.327111 0.054996 -0.643747
C205  C     C_3   0.424388 0.361542 0.999034 0.098512
H157  H     H_    0.385618 0.367094 0.005975 0.165702
H158  H     H_    0.401442 0.347378 0.941136 0.144993
C206  C     C_3   0.456066 0.413517 0.008848 -0.331256
H159  H     H_    0.474926 0.429077 0.064824 0.234793
H160  H     H_    0.496448 0.408353 0.004703 0.220356
C207  C     C_3   0.409277 0.452149 0.950044 -0.969371
H161  H     H_    0.391276 0.438054 0.893673 0.270708
H162  H     H_    0.433479 0.489580 0.959288 0.264144
H163  H     H_    0.368639 0.458206 0.953502 0.268849
O90   O     O_3   0.454071 0.686724 0.054906 -0.641691
C208  C     C_3   0.408834 0.652474 0.999947 0.092370
H164  H     H_    0.432303 0.625010 0.984476 0.143897
H165  H     H_    0.370463 0.673624 0.949513 0.158368
C209  C     C_3   0.378985 0.621656 0.030960 -0.319082
H166  H     H_    0.416774 0.600396 0.081429 0.233072
H167  H     H_    0.355220 0.648395 0.046795 0.229391
C210  C     C_3   0.330389 0.583225 0.973981 -0.973626
H168  H     H_    0.290530 0.603841 0.924478 0.277129
H169  H     H_    0.311192 0.560154 0.998905 0.267826
H170  H     H_    0.352928 0.556635 0.956469 0.269936
O91   O     O_3   0.021850 0.847368 0.054771 -0.643047
C211  C     C_3   0.005854 0.884302 0.999664 0.090486
H171  H     H_    0.957093 0.877919 0.948444 0.157702
H172  H     H_    0.040629 0.882695 0.985609 0.148657
C212  C     C_3   0.008408 0.937890 0.029678 -0.317788
H173  H     H_    0.974361 0.939908 0.044728 0.228971
H174  H     H_    0.056947 0.945064 0.080511 0.231146
C213  C     C_3   0.991727 0.979620 0.972394 -0.959000
H175  H     H_    0.025441 0.978486 0.956880 0.265942
H176  H     H_    0.994706 0.018045 0.996156 0.263514
H177  H     H_    0.942656 0.974049 0.921835 0.272176
O92   O     O_3   0.937004 0.214578 0.057389 -0.640881
C214  C     C_3   0.879087 0.190829 0.002524 0.088141
H178  H     H_    0.888131 0.155252 0.982052 0.145517
H179  H     H_    0.848172 0.217343 0.954962 0.158603
C215  C     C_3   0.844272 0.175945 0.036697 -0.326164
H180  H     H_    0.873614 0.148007 0.082615 0.232467
H181  H     H_    0.837132 0.210749 0.060180 0.230039
C216  C     C_3   0.779861 0.151819 0.979168 -0.948503
H182  H     H_    0.749334 0.179414 0.933267 0.274015
H183  H     H_    0.755812 0.141612 0.005719 0.268063
H184  H     H_    0.786006 0.116285 0.956096 0.268947
O93   O     O_3   0.625592 0.257418 0.053093 -0.639782
C217  C     C_3   0.632177 0.274193 0.997319 0.090205
H185  H     H_    0.618504 0.315497 0.984444 0.147816
H186  H     H_    0.602286 0.251017 0.945638 0.155727
C218  C     C_3   0.701509 0.268534 0.025350 -0.328835
H187  H     H_    0.732121 0.291391 0.076984 0.236512
H188  H     H_    0.715906 0.227427 0.038463 0.229971
C219  C     C_3   0.711438 0.287146 0.967434 -0.936366
H189  H     H_    0.682658 0.263790 0.916041 0.271216
H190  H     H_    0.762256 0.283261 0.989602 0.268164
H191  H     H_    0.697620 0.328287 0.953759 0.268885
O94   O     O_3   0.620521 0.724593 0.052486 -0.641048
C220  C     C_3   0.625622 0.708884 0.994985 0.102927
H192  H     H_    0.666384 0.729641 0.002370 0.168667
H193  H     H_    0.583328 0.718298 0.937796 0.145733
C221  C     C_3   0.638867 0.651018 0.001170 -0.348725
H194  H     H_    0.684173 0.642427 0.055763 0.237443
H195  H     H_    0.600195 0.629741 0.997933 0.220357
C222  C     C_3   0.643524 0.632368 0.939191 -0.938406
H196  H     H_    0.598072 0.639443 0.884101 0.266874
H197  H     H_    0.653581 0.590390 0.945499 0.269825
H198  H     H_    0.682514 0.652637 0.941863 0.270836
O95   O     O_3   0.111285 0.700470 0.054511 -0.639933
C223  C     C_3   0.121937 0.694109 0.999370 0.088621
H199  H     H_    0.134553 0.731782 0.987301 0.150241
H200  H     H_    0.079379 0.678120 0.947141 0.152926
C224  C     C_3   0.177230 0.656781 0.028002 -0.315574
H201  H     H_    0.220300 0.672231 0.079908 0.233337
H202  H     H_    0.165360 0.619104 0.040852 0.230971
C225  C     C_3   0.191398 0.648628 0.970818 -0.961938
H203  H     H_    0.149212 0.632577 0.918675 0.269253
H204  H     H_    0.231361 0.621056 0.993270 0.273643
H205  H     H_    0.204997 0.685599 0.958481 0.271373
O96   O     O_3   0.104201 0.196459 0.050591 -0.643457
C226  C     C_3   0.101731 0.171379 0.992249 0.097964
H206  H     H_    0.146866 0.179519 0.998935 0.166119
H207  H     H_    0.062675 0.184915 0.935402 0.143127
C227  C     C_3   0.096153 0.113223 0.997856 -0.343790
H208  H     H_    0.137923 0.099144 0.052224 0.235482
H209  H     H_    0.052694 0.104543 0.994688 0.220104
C228  C     C_3   0.092902 0.084843 0.935439 -0.940069
H210  H     H_    0.050075 0.096992 0.880612 0.269144
H211  H     H_    0.090215 0.042749 0.941811 0.265575
H212  H     H_    0.135946 0.092924 0.937443 0.269750
C229  C     C_2   0.976442 0.645670 0.950121 0.387608
H213  H     H_    0.997737 0.615043 0.991107 0.084641
O97   O     O_2   0.944050 0.635082 0.884164 -0.576263
C230  C     C_2   0.065583 0.296695 0.947488 0.369422
H214  H     H_    0.114357 0.308533 0.987708 0.091788
O98   O     O_2   0.041180 0.301948 0.881304 -0.574542
C231  C     C_2   0.536687 0.165050 0.949236 0.387532
H215  H     H_    0.575680 0.140522 0.989939 0.084743
O99   O     O_2   0.509549 0.156450 0.883185 -0.580778
C232  C     C_2   0.550099 0.823103 0.948959 0.365654
H216  H     H_    0.591864 0.845082 0.989617 0.094857
O100  O     O_2   0.526463 0.828577 0.882999 -0.582641

loop_
_geom_bond_atom_site_label_1
_geom_bond_atom_site_label_2
_ccdc_geom_bond_type
C99   C103  A    
C203  H155  S    
C144  H42   S    
C52   O92   S    
C188  H134  S    
C227  C228  S    
C192  H142  S    
C36   C42   S    
C154  H64   S    
C229  O97   D    
C209  H166  S    
O43   Zn15  S    
C11   C203  S    
C206  H159  S    
O41   Zn13  S    
O58   C152  S    
C186  H129  S    
C48   O28   A    
O1    Zn5   S    
C184  H125  S    
C5    C6    S    
C204  O88   D    
C166  C167  S    
C95   O75   S    
C19   C55   T    
C100  C104  A    
C5    H13   S    
C141  H34   S    
C173  H105  S    
C149  H53   S    
C229  H213  S    
C224  C225  S    
C170  H96   S    
C64   C84   A    
C79   C90   S    
C189  H137  S    
C13   C51   S    
O75   C187  S    
C28   C232  S    
C70   O58   S    
C14   C52   S    
O95   C223  S    
O50   Zn2   S    
C214  H179  S    
C10   C202  S    
C5    C126  S    
C70   C74   A    
C207  H163  S    
C164  H84   S    
C7    C128  S    
O35   Zn11  S    
C72   O60   S    
O34   Zn10  S    
C176  H112  S    
C123  C131  S    
C98   C109  S    
C189  H136  S    
C212  H174  S    
O38   Zn6   S    
O3    Zn15  S    
C50   O90   S    
C230  O98   D    
C157  H72   S    
C25   C29   S    
C215  H181  S    
O3    Zn11  S    
C165  H85   S    
C27   C31   S    
C163  H83   S    
C120  O48   A    
C153  C154  S    
C135  C136  A    
C190  C191  S    
O66   C168  S    
C183  H122  S    
O23   Zn15  S    
C4    C23   S    
C106  C194  S    
C167  H89   S    
O21   Zn13  S    
C98   C102  A    
C91   O31   A    
O49   Zn1   S    
C12   C40   S    
C181  H118  S    
C199  O83   D    
O53   C137  S    
O4    Zn12  S    
C172  H101  S    
C221  C222  S    
C68   C72   A    
C171  H99   S    
O60   C158  S    
C71   O59   S    
C151  H57   S    
C137  H26   S    
C167  H91   S    
O36   Zn12  S    
C68   C116  S    
C129  C133  A    
C194  H146  S    
C187  H132  S    
C206  H160  S    
O10   Zn14  S    
C182  H119  S    
O40   Zn8   S    
C192  H144  S    
C181  C182  S    
C232  H216  S    
O24   Zn16  S    
C25   C229  S    
C209  C210  S    
C142  H38   S    
C44   C50   S    
C146  H47   S    
O33   Zn9   S    
C114  O34   A    
C118  O46   A    
C65   C113  S    
C109  H9    S    
C84   C88   S    
C6    C125  S    
C219  H189  S    
C22   C58   T    
C69   O57   S    
C95   H3    S    
C141  C142  S    
C123  O43   A    
C10   C38   S    
C9    C15   S    
C121  O41   A    
C228  H211  S    
C10   C16   S    
C11   C13   S    
C45   O25   A    
C66   C70   A    
C211  H171  S    
O20   Zn12  S    
C15   C49   S    
C127  C131  A    
C194  O78   D    
C125  C129  A    
C122  O42   A    
C210  H170  S    
C223  H199  S    
C100  C111  S    
C152  H61   S    
C205  H157  S    
C73   C77   A    
C103  C107  A    
C218  H188  S    
C75   C79   A    
C41   C51   S    
C37   C57   S    
C42   C52   S    
C143  H39   S    
C195  O79   D    
C12   C204  S    
C222  H198  S    
C39   C51   S    
O47   Zn11  S    
C40   C60   S    
C219  H190  S    
C14   C198  S    
C111  C112  S    
O7    Zn3   S    
C20   C56   T    
C97   C98   A    
C7    C8    S    
C76   C164  S    
C193  H145  S    
C27   C33   S    
C23   C59   T    
C203  O87   D    
C1    O13   A    
C157  H71   S    
C31   C43   S    
C64   C68   A    
C91   O7    A    
C154  H65   S    
C17   C45   S    
C43   H23   S    
C19   C47   S    
C160  H79   S    
O68   C174  S    
C11   C25   S    
C171  C172  S    
C139  H29   S    
C124  C132  S    
C161  O61   D    
C140  H32   S    
C217  H186  S    
C175  H108  S    
C85   C93   S    
C155  C156  S    
C226  H206  S    
C86   O66   S    
C202  H154  S    
O1    Zn9   S    
C182  C183  S    
C107  C108  A    
C122  O50   A    
O14   Zn6   S    
C138  H27   S    
C111  H7    S    
C33   O93   S    
C1    C22   S    
C150  H55   S    
C3    C24   S    
C219  H191  S    
C74   C162  S    
O2    Zn14  S    
C178  O70   D    
O89   C205  S    
C168  H93   S    
C213  H176  S    
C216  H183  S    
C62   C66   A    
O39   Zn7   S    
C207  H161  S    
C64   C96   S    
C49   O89   S    
C151  H58   S    
C211  C212  S    
C12   C26   S    
C198  H150  S    
C163  O63   D    
C162  O62   D    
C63   C67   A    
C61   C65   A    
C138  H28   S    
C210  H168  S    
C223  C224  S    
C36   O96   S    
C175  H109  S    
C132  C136  A    
C226  C227  S    
C173  H104  S    
C220  H193  S    
C175  C176  S    
C147  H49   S    
C143  C144  S    
O5    Zn1   S    
C172  H102  S    
C221  H195  S    
C26   C30   S    
C4    O16   A    
C191  H140  S    
C174  C175  S    
C47   O27   A    
C118  O38   A    
C48   O20   A    
O2    Zn2   S    
C88   C180  S    
C29   C41   S    
C67   C115  S    
C76   C80   A    
C135  O55   S    
C185  H126  S    
C147  C148  S    
C209  H167  S    
C83   C87   S    
C96   H4    S    
C15   C31   S    
O56   C146  S    
C34   O94   S    
C16   C32   S    
C139  H31   S    
C158  C159  S    
O8    Zn4   S    
C145  H43   S    
C61   C81   A    
C184  H124  S    
C170  H98   S    
O46   Zn10  S    
C155  H68   S    
O54   C140  S    
C141  H35   S    
C149  H54   S    
C224  H202  S    
C35   C41   S    
C156  C157  S    
C116  O36   A    
C169  H94   S    
C191  C192  S    
C150  C151  S    
O91   C211  S    
C164  O64   D    
C24   C60   T    
O17   Zn9   S    
C110  H10   S    
C3    O23   A    
C159  C160  S    
C81   C85   S    
O3    Zn7   S    
C176  H111  S    
C87   C179  S    
O2    Zn6   S    
C180  H116  S    
C149  C150  S    
C88   O68   S    
C200  O84   D    
C151  H59   S    
C80   C84   A    
O28   Zn4   S    
C26   C230  S    
C179  H115  S    
O42   Zn14  S    
C130  C134  A    
O4    Zn4   S    
C85   C177  S    
C225  H203  S    
C165  H86   S    
C119  O39   A    
C13   C29   S    
C190  H139  S    
C16   C50   S    
C176  H110  S    
C117  O45   A    
C177  O69   D    
C90   O30   A    
O93   C217  S    
C61   C93   S    
C197  O81   D    
C126  C130  A    
C63   C95   S    
C26   C36   S    
C116  O12   A    
C152  H60   S    
C227  H208  S    
C80   C89   S    
C201  O85   D    
C196  H148  S    
C38   C58   S    
O3    Zn3   S    
C190  H138  S    
O29   Zn5   S    
C165  C166  S    
C171  H100  S    
C232  O100  D    
C174  H106  S    
C69   C73   A    
C108  C196  S    
C142  H37   S    
C189  H135  S    
C62   C82   A    
C144  C145  S    
C28   C34   S    
C148  H50   S    
C90   O6    A    
C188  C189  S    
C192  H143  S    
C42   H22   S    
C134  O54   S    
C185  C186  S    
O37   Zn5   S    
C18   C46   S    
O90   C208  S    
C159  H77   S    
C166  H88   S    
C136  O56   S    
C199  H151  S    
C186  H130  S    
O74   C184  S    
O55   C143  S    
C184  C185  S    
O59   C155  S    
C148  H51   S    
C204  H156  S    
O22   Zn14  S    
C113  O9    A    
C124  O52   A    
C82   C86   S    
C33   C37   S    
C158  H74   S    
C63   C83   A    
C35   C39   S    
C156  H69   S    
C228  H210  S    
C111  H11   S    
C87   C95   S    
C30   C54   S    
C166  H87   S    
C157  H73   S    
C169  C170  S    
C28   C32   S    
O30   Zn6   S    
C214  C215  S    
C39   C59   S    
C2    C21   S    
C211  H172  S    
C20   C48   S    
C25   C35   S    
C41   H21   S    
C115  O11   A    
C210  H169  S    
C223  H200  S    
C73   C161  S    
C62   C94   S    
C133  C134  A    
C44   H24   S    
C212  C213  S    
O9    Zn13  S    
O48   Zn12  S    
C127  C128  A    
C17   C53   T    
C104  C108  A    
C230  H214  S    
C9    C27   S    
C143  H40   S    
O73   C181  S    
C10   C28   S    
C222  H197  S    
C115  O35   A    
C159  H76   S    
C208  H165  S    
C27   C231  S    
C66   C114  S    
C8    H16   S    
C113  O33   A    
C121  C129  S    
C183  H121  S    
C152  C153  S    
C205  C206  S    
C105  C106  A    
C207  H162  S    
C101  C117  S    
C140  C141  S    
C181  H117  S    
C109  C110  S    
C153  H62   S    
C79   C83   A    
O12   Zn16  S    
C160  H78   S    
C228  H212  S    
C65   C69   A    
C120  O40   A    
C9    C201  S    
C67   C71   A    
C137  H25   S    
C133  O53   S    
C13   C197  S    
C51   O91   S    
C6    H14   S    
C7    H19   S    
C187  H131  S    
C202  O86   D    
C74   C78   A    
C148  H52   S    
C188  H133  S    
C182  H120  S    
C89   O29   A    
C30   C42   S    
C35   O95   S    
C31   C55   S    
C32   C56   S    
C92   O32   A    
C104  C120  S    
C215  C216  S    
C146  C147  S    
O51   Zn3   S    
C77   C92   S    
O65   C165  S    
C46   O18   A    
C186  H128  S    
C85   O65   S    
C72   C76   A    
C1    O21   A    
C231  O99   D    
C168  H92   S    
C213  H177  S    
C216  H182  S    
C208  H164  S    
C161  H81   S    
C124  O44   A    
C153  H63   S    
C208  C209  S    
C131  C135  A    
C5    H17   S    
C179  O71   D    
C214  H178  S    
C139  H30   S    
C37   C49   S    
C137  C138  S    
C198  O82   D    
C218  H187  S    
C2    O22   A    
C110  H6    S    
C78   C82   A    
C231  H215  S    
C15   C199  S    
C86   C94   S    
C107  C195  S    
O2    Zn10  S    
O25   Zn1   S    
O94   C220  S    
C123  O51   A    
C47   O19   A    
C212  H173  S    
C226  H207  S    
C77   C81   A    
O44   Zn16  S    
O13   Zn5   S    
C220  H192  S    
C102  C118  S    
C215  H180  S    
O4    Zn8   S    
C200  H152  S    
C191  H141  S    
C174  H107  S    
C173  H103  S    
C167  H90   S    
C14   C30   S    
C183  H123  S    
C128  C132  A    
C138  C139  S    
C96   O76   S    
O92   C214  S    
O1    Zn13  S    
C193  O77   D    
C101  C105  A    
O27   Zn3   S    
C16   C200  S    
C33   C43   S    
O52   Zn4   S    
C36   C40   S    
C154  H66   S    
C34   C44   S    
C185  H127  S    
O31   Zn7   S    
C43   C49   S    
C160  H80   S    
C86   C178  S    
C217  C218  S    
C40   C52   S    
C46   O26   A    
C112  H12   S    
O19   Zn11  S    
C140  H33   S    
C94   H2    S    
C145  H44   S    
C21   C57   T    
C217  H185  S    
C170  H97   S    
C94   O74   S    
C8    C127  S    
C99   C100  A    
C187  C188  S    
C224  H201  S    
C9    C37   S    
O57   C149  S    
C32   C44   S    
C75   C163  S    
O4    Zn16  S    
C6    H18   S    
C4    O24   A    
C11   C39   S    
C156  H70   S    
C89   O5    A    
O6    Zn2   S    
C169  H95   S    
C121  O49   A    
C150  H56   S    
C7    H15   S    
C145  H45   S    
C119  O47   A    
O32   Zn8   S    
O16   Zn8   S    
C144  H41   S    
C117  O37   A    
C178  H114  S    
O76   C190  S    
C168  C169  S    
C3    O15   A    
C114  O10   A    
O1    Zn1   S    
C213  H175  S    
C155  H67   S    
C216  H184  S    
C180  O72   D    
C34   C38   S    
O15   Zn7   S    
C103  C119  S    
O96   C226  S    
O11   Zn15  S    
C225  H204  S    
C87   O67   S    
C109  H5    S    
C142  H36   S    
C38   C50   S    
C45   O17   A    
C78   C91   S    
C222  H196  S    
C205  H158  S    
C218  C219  S    
C162  H82   S    
C112  H8    S    
C146  H46   S    
C12   C14   S    
C158  H75   S    
C105  C193  S    
C177  H113  S    
C2    O14   A    
C71   C75   A    
C97   C110  S    
O67   C171  S    
C197  H149  S    
C125  C126  A    
C29   C53   S    
C93   O73   S    
C99   C112  S    
O26   Zn2   S    
O45   Zn9   S    
C88   C96   S    
C102  C106  A    
C227  H209  S    
C201  H153  S    
C8    H20   S    
C220  C221  S    
C196  O80   D    
C92   O8    A    
C206  C207  S    
C93   H1    S    
C147  H48   S    
C18   C54   T    
C195  H147  S    
C172  C173  S    
C221  H194  S    
C225  H205  S    
O18   Zn10  S    
C122  C130  S    
C97   C101  A    
