data_mof_unit_pretest_1334.cif
_audit_creation_date              2013-03-05T16:09:48-0500
_audit_creation_method            fapswitch 2.2
_symmetry_space_group_name_H-M    P1
_symmetry_Int_Tables_number       1
_space_group_crystal_system       triclinic
_cell_length_a                    8.347643
_cell_length_b                    15.287724
_cell_length_c                    27.024598
_cell_angle_alpha                 99.293467
_cell_angle_beta                  92.294952
_cell_angle_gamma                 81.187221
_cell_volume                      3362.92015956

loop_
_atom_site_label
_atom_site_type_symbol
_atom_site_description
_atom_site_fract_x
_atom_site_fract_y
_atom_site_fract_z
_atom_type_partial_charge
P1    P     P_3+3 0.071950 0.575820 0.612140 0.506539
O1    O     O_2   0.906480 0.548660 0.619050 -0.358256
O2    O     O_3   0.138490 0.548590 0.558870 -0.312343
O3    O     O_3   0.686300 0.382310 0.585700 -0.292646
O4    O     O_2   0.764946 0.467122 0.673983 -0.359491
O5    O     O_3   0.056500 0.691915 0.630945 -0.631992
O6    O     O_3   0.788587 0.293641 0.668275 -0.490569
C1    C     C_3   0.779512 0.148215 0.688742 -0.763955
H1    H     H_    0.898611 0.119442 0.671634 0.272045
H2    H     H_    0.799294 0.174924 0.728879 0.262157
P2    P     P_3+3 0.664370 0.290050 0.457240 0.529087
P3    P     P_3+3 0.141825 0.219163 0.552898 0.475958
O7    O     O_2   0.844040 0.276390 0.471470 -0.349608
O8    O     O_3   0.101510 0.335500 0.560330 -0.383135
O9    O     O_2   0.005261 0.179285 0.521220 -0.377645
O10   O     O_3   0.665118 0.262383 0.391958 -0.547860
O11   O     O_3   0.120198 0.184977 0.610656 -0.528838
C2    C     C_3   0.219665 0.227208 0.647048 0.487671
H3    H     H_    0.325659 0.248595 0.630895 -0.042508
C3    C     C_3   0.286124 0.160371 0.681859 -0.721078
H4    H     H_    0.185191 0.135792 0.698433 0.281648
H5    H     H_    0.364064 0.102274 0.660428 0.248939
C4    C     C_3   0.278163 0.264759 0.349318 0.892546
H6    H     H_    0.382692 0.302151 0.352085 0.050503
C5    C     C_3   0.217403 0.248438 0.295014 -0.948438
H7    H     H_    0.186270 0.312687 0.280544 0.238053
H8    H     H_    0.314403 0.206534 0.271011 0.258535
H9    H     H_    0.108682 0.213730 0.292133 0.274355
Ba1   Ba    Ba6+2 0.860050 0.456430 0.522530 1.676137
C6    C     C_3   0.932045 0.742050 0.607302 0.218064
H10   H     H_    0.825588 0.707007 0.600009 0.145599
C7    C     C_3   0.887764 0.831095 0.642972 0.120847
H11   H     H_    0.000117 0.858438 0.656755 0.163326
H12   H     H_    0.824633 0.819627 0.675993 0.197999
C8    C     C_3   0.721476 0.328375 0.370433 0.392038
H13   H     H_    0.838920 0.342622 0.387572 0.129209
H14   H     H_    0.630541 0.390081 0.375320 0.085941
C9    C     C_3   0.745421 0.293077 0.314755 -0.981070
H15   H     H_    0.818437 0.225127 0.309775 0.287446
H16   H     H_    0.810635 0.337317 0.296918 0.226166
H17   H     H_    0.625934 0.288824 0.295540 0.254327
P4    P     P_3+3 0.117760 0.424110 0.387850 0.517115
O12   O     O_2   0.283210 0.451310 0.380920 -0.400167
O13   O     O_3   0.051220 0.451340 0.441120 -0.283962
O14   O     O_3   0.503410 0.617620 0.414290 -0.327103
O15   O     O_3   0.150942 0.306046 0.381923 -0.574184
P5    P     P_3+3 0.042318 0.781525 0.440718 0.446666
O16   O     O_3   0.617150 0.609960 0.527100 -0.309576
O17   O     O_3   0.088210 0.664420 0.439670 -0.333991
O18   O     O_2   0.173629 0.823869 0.474170 -0.391461
O19   O     O_3   0.081337 0.804633 0.381458 -0.539123
Ba2   Ba    Ba6+2 0.329780 0.543490 0.477460 1.659333
P6    P     P_3+3 0.673361 0.389843 0.650772 0.541893
C10   C     C_3   0.694851 0.223356 0.661593 0.436497
H18   H     H_    0.574471 0.246000 0.679001 0.031861
H19   H     H_    0.703077 0.094266 0.686567 0.254989
O20   O     O_3   0.572560 0.389960 0.472890 -0.347217
C11   C     C_3   0.482716 0.705629 0.636799 0.241004
H20   H     H_    0.359374 0.694800 0.622867 0.110699
H21   H     H_    0.566945 0.641784 0.633371 0.119047
C12   C     C_3   0.475816 0.746806 0.693077 0.574297
P7    P     P_3+3 0.530284 0.724293 0.543600 0.542589
O21   O     O_2   0.345660 0.723580 0.528500 -0.342778
O22   O     O_3   0.543937 0.761743 0.608734 -0.504686
H22   H     H_    0.359489 0.192296 0.712817 0.227664
C13   C     C_3   0.018451 0.742191 0.344914 0.393471
H23   H     H_    0.072294 0.672520 0.348770 0.152606
H24   H     H_    0.884376 0.749688 0.347423 0.063497
C14   C     C_3   0.061849 0.758560 0.293465 -0.844865
H25   H     H_    0.194286 0.759165 0.291652 0.278384
H26   H     H_    0.029135 0.704100 0.264460 0.248510
H27   H     H_    0.995772 0.823837 0.285727 0.255951
P8    P     P_3+3 0.510000 0.597816 0.348359 0.516495
C15   C     C_3   0.515060 0.768323 0.368119 0.403157
H28   H     H_    0.631132 0.753514 0.388711 0.067415
O23   O     O_2   0.347450 0.567152 0.329182 -0.402989
O24   O     O_3   0.502303 0.700738 0.326882 -0.508914
H29   H     H_    0.411432 0.775065 0.393755 0.154271
H30   H     H_    0.616101 0.853580 0.324626 0.262957
C16   C     C_3   0.512165 0.857409 0.349687 -0.893864
H31   H     H_    0.520941 0.911302 0.382123 0.231879
H32   H     H_    0.397163 0.874232 0.328827 0.283654
C17   C     C_R   0.012713 0.426897 0.175745 0.544813
O25   O     O_2   0.049687 0.359147 0.194744 -0.592206
N1    N     N_R   0.932762 0.503963 0.203881 -0.164904
C18   C     C_R   0.888014 0.580314 0.181837 0.546661
C19   C     C_2   0.733438 0.522003 0.270324 -0.190508
C20   C     C_3   0.688841 0.514305 0.323158 0.060698
C21   C     C_1   0.980164 0.477445 0.341618 0.145688
C22   C     C_2   0.019160 0.479051 0.294363 -0.330157
C23   C     C_2   0.890550 0.503251 0.255870 0.147856
C24   C     C_R   0.005552 0.502789 0.102429 -0.075298
C25   C     C_R   0.048283 0.425014 0.124721 -0.052610
C26   C     C_R   0.126658 0.347081 0.095485 -0.085489
C27   C     C_R   0.927566 0.581287 0.131378 -0.116438
C28   C     C_2   0.835894 0.516285 0.358024 0.122328
H33   H     H_    0.145411 0.467783 0.283793 0.188430
H34   H     H_    0.167890 0.287224 0.111857 0.183961
C29   C     C_2   0.354023 0.481955 0.642004 0.142714
C30   C     C_R   0.108419 0.415785 0.967477 -0.168731
C31   C     C_R   0.073157 0.580049 0.980683 0.110565
C32   C     C_R   0.111858 0.496596 0.948618 0.059808
C33   C     C_R   0.110400 0.335617 0.932540 0.325931
C34   C     C_R   0.147279 0.333202 0.881789 0.485947
C35   C     C_R   0.176112 0.412330 0.864128 -0.259397
C36   C     C_R   0.154746 0.494178 0.897655 -0.121662
C37   C     C_R   0.177149 0.573991 0.880548 -0.034066
C38   C     C_R   0.224207 0.571379 0.830434 0.577019
N2    N     N_R   0.244423 0.491570 0.797342 -0.170910
C39   C     C_R   0.220447 0.413019 0.813753 0.599877
C40   C     C_2   0.435421 0.442236 0.727472 -0.051284
C41   C     C_3   0.456096 0.416183 0.671191 -0.028553
C42   C     C_1   0.210733 0.523726 0.659180 0.112351
C43   C     C_2   0.174520 0.532231 0.708406 -0.163274
C44   C     C_2   0.291086 0.488977 0.745065 0.111316
O26   O     O_2   0.238673 0.343261 0.784327 -0.569351
C45   C     C_R   0.097971 0.419319 0.020443 0.134896
C46   C     C_R   0.039119 0.501547 0.050853 0.050433
C47   C     C_R   0.012464 0.581964 0.029826 -0.106260
C48   C     C_R   0.151813 0.344526 0.044489 -0.111102
H35   H     H_    0.219527 0.284122 0.024521 0.187969
O27   O     O_2   0.813405 0.647548 0.206079 -0.586639
C49   C     C_R   0.885033 0.658202 0.108697 -0.142129
H36   H     H_    0.637491 0.536125 0.243142 0.170635
H37   H     H_    0.817070 0.718018 0.129496 0.211421
C50   C     C_R   0.105372 0.657640 0.963327 -0.108895
C51   C     C_R   0.155593 0.654781 0.914355 -0.054763
O28   O     O_2   0.248504 0.640200 0.816443 -0.578476
C52   C     C_R   0.924435 0.659271 0.058858 0.422980
H38   H     H_    0.101309 0.720734 0.988108 0.192146
H39   H     H_    0.178019 0.716629 0.903080 0.191032
C53   C     C_R   0.836660 0.833333 0.465290 0.191524
C54   C     C_R   0.769447 0.924966 0.467319 0.025916
C55   C     C_R   0.638713 0.111219 0.476166 -0.008471
C56   C     C_R   0.783725 0.076084 0.450484 -0.049843
C57   C     C_R   0.848593 0.985185 0.446670 -0.176058
C58   C     C_R   0.575288 0.204800 0.484043 0.253987
H40   H     H_    0.850154 0.118212 0.433311 0.182156
H41   H     H_    0.962364 0.962881 0.427584 0.187129
C59   C     C_R   0.427063 0.234166 0.507634 -0.410201
C60   C     C_R   0.605503 0.807428 0.510908 0.278097
C61   C     C_R   0.536270 0.899441 0.514570 -0.108731
C62   C     C_R   0.618186 0.957670 0.491327 -0.003287
C63   C     C_R   0.391526 0.938125 0.540872 0.560132
C64   C     C_R   0.319490 0.023738 0.536861 -0.258730
C65   C     C_R   0.401247 0.082545 0.517409 -0.081870
C66   C     C_R   0.553034 0.050458 0.494878 0.041098
C67   C     C_R   0.338269 0.174044 0.523191 0.217880
C68   C     C_R   0.750383 0.777393 0.485995 -0.466315
H42   H     H_    0.202764 0.045658 0.553900 0.225801
H43   H     H_    0.377347 0.304635 0.512524 0.187357
H44   H     H_    0.805802 0.710074 0.487777 0.203127
N3    N     N_3   0.673915 0.190177 0.608127 -0.209263
H45   H     H_    0.605011 0.137762 0.604380 0.090712
H46   H     H_    0.787293 0.163922 0.592639 0.197874
N4    N     N_3   0.990568 0.759313 0.560506 -0.196995
H47   H     H_    0.034277 0.698414 0.538576 0.179383
H48   H     H_    0.087840 0.794169 0.568413 0.222439
Cl1   Cl    Cl    0.763622 0.915242 0.614550 -0.625420
Cl2   Cl    Cl    0.440354 0.866984 0.702527 -0.454338
N5    N     N_3   0.347866 0.714602 0.717211 -0.228329
H49   H     H_    0.236300 0.745073 0.704775 0.120832
H50   H     H_    0.353593 0.737804 0.755714 0.229037
Cl3   Cl    Cl    0.663954 0.713189 0.723336 -0.648389
N6    N     N_3   0.122045 0.304375 0.675834 -0.121006
H51   H     H_    0.066080 0.346217 0.651289 0.175899
H52   H     H_    0.201541 0.341273 0.697138 0.100289
N7    N     N_3   0.557506 0.404770 0.760393 -0.163076
H53   H     H_    0.532010 0.342257 0.765800 0.156741
H54   H     H_    0.556459 0.446495 0.795115 0.134478
Cl4   Cl    Cl    0.151399 0.228798 0.841473 -0.449337
Cl5   Cl    Cl    0.032718 0.242165 0.948568 -0.518100
N8    N     N_3   0.037193 0.593122 0.729439 -0.150945
H55   H     H_    0.931732 0.570714 0.714351 0.225239
H56   H     H_    0.040639 0.656752 0.720584 0.188346
Cl6   Cl    Cl    0.829930 0.753625 0.033142 -0.597863
Cl7   Cl    Cl    0.822191 0.581968 0.416822 -0.632039
Cl8   Cl    Cl    0.438282 0.510691 0.589061 -0.556289
Cl9   Cl    Cl    0.301123 0.898569 0.588491 -0.577946
Cl10  Cl    Cl    0.353016 0.158819 0.367673 -0.643724

loop_
_geom_bond_atom_site_label_1
_geom_bond_atom_site_label_2
_geom_bond_distance
_ccdc_geom_bond_type
C56   H40   1.079007 S    
C13   H24   1.111138 S    
C19   C20   1.517023 S    
C20   C28   1.518272 S    
N6    H51   1.043108 S    
C19   C23   1.358116 D    
O3    P6    1.750249 S    
C12   Cl3   1.784623 S    
C40   C41   1.518582 S    
C35   C39   1.427063 A    
C59   C67   1.389059 A    
C10   N3    1.464848 S    
C43   C44   1.517485 S    
N1    C23   1.464253 S    
C60   C68   1.386360 A    
C56   C57   1.400914 A    
P5    O17   1.768319 S    
N1    C18   1.389251 Am   
C5    H9    1.113482 S    
C62   C66   1.428648 A    
C55   C66   1.419276 A    
C25   C26   1.403668 A    
P1    C42   1.875846 S    
O1    Ba1   2.800128 S    
C12   N5    1.459173 S    
O7    Ba1   2.892904 S    
N4    H47   1.042189 S    
C8    H14   1.109920 S    
C42   C43   1.357317 D    
O10   C8    1.390842 S    
C64   C65   1.385556 A    
C19   H36   1.085729 S    
O12   Ba2   2.800509 S    
C49   H37   1.083783 S    
C13   C14   1.519058 S    
C36   C37   1.412988 A    
C26   H34   1.083356 S    
C11   H21   1.105142 S    
C17   C25   1.416941 A    
C38   N2    1.383282 Am   
O14   P8    1.760076 S    
C2    H3    1.116253 S    
P4    O15   1.765535 S    
C14   H26   1.106315 S    
C24   C46   1.429237 A    
C46   C47   1.419694 A    
P7    O22   1.765666 S    
C26   C48   1.395782 A    
C43   N8    1.434603 S    
C8    H13   1.104342 S    
C53   C54   1.420217 A    
C15   O24   1.404672 S    
P3    O11   1.748450 S    
C18   O27   1.221732 D    
C54   C57   1.406149 A    
C4    H6    1.107946 S    
C63   Cl9   1.749367 S    
C52   Cl6   1.765549 S    
C28   Cl7   1.735021 S    
N3    H46   1.045504 S    
C22   H33   1.083776 S    
O3    Ba1   2.762000 S    
C7    Cl1   1.779227 S    
O13   Ba2   2.954692 S    
C11   C12   1.548979 S    
N7    H54   1.045506 S    
C13   H23   1.110287 S    
N6    H52   1.034044 S    
C4    O15   1.411580 S    
C15   C16   1.520398 S    
C49   C52   1.402403 A    
C53   C68   1.392369 A    
C1    H19   1.110585 S    
P4    O13   1.534245 S    
C55   C58   1.432107 A    
C57   H41   1.080491 S    
P1    Ba1   3.397554 S    
C34   C35   1.426179 A    
N5    H50   1.045392 S    
C2    N6    1.456268 S    
N5    H49   1.043961 S    
P5    O18   1.544960 D    
C65   C67   1.402896 A    
N8    H56   1.043397 S    
C11   O22   1.395656 S    
C9    H15   1.111819 S    
C58   C59   1.392664 A    
C54   C62   1.425724 A    
C15   H28   1.109078 S    
Ba1   O16   2.846710 S    
P1    O5    1.751774 S    
C31   C47   1.434613 A    
C31   C32   1.421963 A    
C3    H22   1.109902 S    
C12   Cl2   1.793379 S    
C8    C9    1.524460 S    
C29   Cl8   1.764385 S    
C16   H32   1.110565 S    
Ba2   O20   2.846122 S    
C45   C48   1.410958 A    
C1    C10   1.529466 S    
C50   H38   1.078511 S    
C1    H1    1.110312 S    
P5    O19   1.747975 S    
O14   Ba2   2.761479 S    
C11   H20   1.109198 S    
N8    H55   1.037865 S    
C24   C27   1.405051 A    
P1    O2    1.534243 S    
O19   C13   1.403445 S    
C7    H12   1.105118 S    
C14   H27   1.110569 S    
P8    C20   1.881255 S    
P7    O21   1.579626 D    
C6    C7    1.539313 S    
P2    O10   1.746560 S    
O16   P7    1.779198 S    
C17   O25   1.221790 D    
P3    O9    1.539579 D    
P3    O8    1.738790 S    
C37   C38   1.417883 A    
O17   Ba2   2.798179 S    
C30   C32   1.414997 A    
C31   C50   1.409576 A    
C38   O28   1.221079 D    
C59   H43   1.082454 S    
C4    Cl10  1.784411 S    
C9    H17   1.111866 S    
C34   Cl4   1.777712 S    
P6    C41   1.881648 S    
N7    H53   1.043979 S    
C17   N1    1.386369 Am   
Ba1   O20   2.939506 S    
C60   C61   1.425846 A    
Ba1   O13   2.753333 S    
C33   Cl5   1.776374 S    
P8    O23   1.545861 D    
C61   C63   1.424418 A    
C68   H44   1.069495 S    
P4    O12   1.528827 D    
O6    P6    1.751200 S    
O8    Ba1   2.797744 S    
C21   C22   1.335407 D    
C39   O26   1.216102 D    
C48   H35   1.080274 S    
C65   C66   1.411281 A    
O4    P6    1.540370 D    
C10   H18   1.108880 S    
P4    Ba2   3.398052 S    
O5    C6    1.391409 S    
C64   H42   1.076932 S    
C3    H5    1.111103 S    
C16   H31   1.110256 S    
Ba2   O21   2.893217 S    
C29   C42   1.329910 D    
O2    Ba2   2.753913 S    
C55   C56   1.408255 A    
C40   N7    1.439193 S    
C5    H8    1.111629 S    
C35   C36   1.413083 A    
O11   C2    1.402589 S    
P5    C53   1.876260 S    
C63   C64   1.373246 A    
P4    C21   1.863394 S    
C7    H11   1.111280 S    
P3    C67   1.841026 S    
C21   C28   1.318386 D    
N4    H48   1.034812 S    
C5    H7    1.105857 S    
C37   C51   1.404687 A    
C45   C46   1.416486 A    
C9    H16   1.106916 S    
P2    O7    1.524708 D    
O2    Ba1   2.953929 S    
C22   C23   1.511536 S    
C6    H10   1.101515 S    
C50   C51   1.396174 A    
C29   C41   1.516254 S    
P1    O1    1.528612 D    
C6    N4    1.450674 S    
C24   C25   1.409982 A    
C47   C52   1.425803 A    
C32   C36   1.430181 A    
C2    C3    1.527001 S    
C30   C33   1.419541 A    
P2    C58   1.849639 S    
C14   H25   1.110093 S    
C51   H39   1.083399 S    
C18   C27   1.418739 A    
N2    C44   1.473246 S    
H30   C16   1.110664 S    
O16   Ba2   2.938655 S    
C4    C5    1.527765 S    
C3    H4    1.110536 S    
P2    Ba1   3.441501 S    
C1    H2    1.110779 S    
C15   H29   1.111990 S    
N2    C39   1.389832 Am   
C33   C34   1.411096 A    
P8    O24   1.754343 S    
C61   C62   1.433896 A    
C40   C44   1.364061 D    
C30   C45   1.429303 A    
P7    C60   1.855194 S    
O6    C10   1.408204 S    
N3    H45   1.045726 S    
P2    O20   1.599314 S    
C27   C49   1.404222 A    
Ba1   Ba2   4.597332 S    
