data_mof_unit_pretest_635.cif
_audit_creation_date              2012-12-11T15:55:41-0500
_audit_creation_method            fapswitch 2.2
_symmetry_space_group_name_H-M    P1
_symmetry_Int_Tables_number       1
_space_group_crystal_system       triclinic
_cell_length_a                    8.489925
_cell_length_b                    18.712506
_cell_length_c                    18.916922
_cell_angle_alpha                 97.460298
_cell_angle_beta                  95.543202
_cell_angle_gamma                 92.074584
_cell_volume                      2962.29524576

loop_
_atom_site_label
_atom_site_type_symbol
_atom_type_description
_atom_site_fract_x
_atom_site_fract_y
_atom_site_fract_z
_atom_type_partial_charge
Ba1   Ba    Ba6+2 0.152460 0.535140 0.468980 1.551319
Ba2   Ba    Ba6+2 0.657710 0.464850 0.530960 1.603265
C1    C     C_3   0.313907 0.698785 0.194555 0.798226
C2    C     C_R   0.092613 0.901125 0.565638 -0.104376
C3    C     C_R   0.245198 0.040035 0.542897 -0.089492
C4    C     C_3   0.930513 0.732982 0.340240 0.343276
C5    C     C_R   0.088860 0.017091 0.514384 0.004895
C6    C     C_R   0.303324 0.110674 0.541890 -0.067946
C7    C     C_R   0.204823 0.162904 0.517995 0.023872
C8    C     C_R   0.052521 0.139982 0.483273 0.061142
C9    C     C_R   0.998485 0.065921 0.478063 0.024440
C10   C     C_R   0.250298 0.237500 0.531212 0.066762
C11   C     C_R   0.144986 0.287195 0.504055 -0.146516
C12   C     C_3   0.412725 0.714673 0.269703 0.788852
C13   C     C_R   0.994334 0.265690 0.467557 -0.053909
C14   C     C_R   0.949802 0.191140 0.457041 -0.051362
C15   C     C_R   0.871233 0.923809 0.482186 0.004959
C16   C     C_3   0.980371 0.811083 0.335938 -0.269353
C17   C     C_R   0.803909 0.852767 0.484766 -0.053037
C18   C     C_R   0.889253 0.804936 0.525088 -0.034781
C19   C     C_R   0.029122 0.831736 0.567579 -0.037649
C20   C     C_R   0.803970 0.166223 0.420550 -0.068277
C21   C     C_R   0.754501 0.094330 0.412050 -0.071606
C22   C     C_R   0.848751 0.042640 0.441118 0.020081
C23   C     C_3   0.519411 0.690026 0.671655 0.865233
C24   C     C_R   0.791351 0.970206 0.439347 -0.057513
C25   C     C_R   0.651313 0.943943 0.397950 -0.133922
C26   C     C_R   0.652114 0.830171 0.447030 -0.087277
C27   C     C_R   0.571895 0.880422 0.408351 0.438335
C28   C     C_3   0.924594 0.314313 0.296078 0.687711
C29   C     C_R   0.591017 0.758069 0.447878 0.040625
C30   C     C_R   0.686180 0.709960 0.482451 -0.271453
C31   C     C_R   0.833015 0.731957 0.521735 -0.001477
C32   C     C_R   0.609189 0.530881 0.303173 -0.183024
C33   C     C_R   0.462077 0.495827 0.278130 0.096422
C34   C     C_3   0.660628 0.723529 0.724145 0.320123
C35   C     C_R   0.405840 0.491982 0.206030 -0.093501
C36   C     C_R   0.497945 0.520355 0.157221 0.008476
C37   C     C_R   0.647676 0.554165 0.182846 -0.077231
C38   C     C_R   0.702603 0.560036 0.255788 0.045058
C39   C     C_R   0.475648 0.565173 0.036823 -0.063146
C40   C     C_3   0.926416 0.232047 0.282510 -0.312224
C41   C     C_R   0.419802 0.556944 0.964117 -0.063304
C42   C     C_R   0.326317 0.495305 0.932180 0.060617
C43   C     C_R   0.284539 0.443875 0.975873 -0.041903
C44   C     C_R   0.342826 0.451341 0.048040 -0.059965
C45   C     C_3   0.859509 0.256395 0.681944 0.708368
C46   C     C_R   0.439240 0.512079 0.079668 0.034187
C47   C     C_R   0.132543 0.447896 0.824530 -0.140344
C48   C     C_R   0.090216 0.437172 0.750312 0.108516
C49   C     C_R   0.340288 0.497409 0.732187 0.038839
C50   C     C_R   0.381665 0.507672 0.806146 -0.026096
C51   C     C_R   0.279282 0.483158 0.853333 -0.016688
C52   C     C_3   0.027077 0.618373 0.689044 0.295717
C53   C     C_R   0.195619 0.461474 0.704517 -0.205241
C54   C     C_3   0.077935 0.639368 0.768687 -0.369472
C55   C     C_3   0.347107 0.309801 0.366277 0.325751
C56   C     C_3   0.805998 0.182328 0.704660 0.217640
C57   C     C_3   0.443073 0.243964 0.347142 0.287108
C58   C     C_3   0.126090 0.615729 0.126600 0.313345
C59   C     C_3   0.630993 0.757560 0.216173 0.168109
C60   C     C_3   0.482434 0.799922 0.624599 0.166339
C61   C     C_3   0.733866 0.793973 0.832300 0.205865
C62   C     C_3   0.762255 0.100172 0.601911 0.151507
C63   C     C_3   0.259834 0.091720 0.781617 0.207752
C64   C     C_3   0.317973 0.917490 0.402931 0.262982
C65   C     C_3   0.446595 0.253517 0.724430 0.645751
C66   C     C_3   0.415355 0.173227 0.733822 0.385795
C67   C     C_R   0.019939 0.947415 0.520664 0.006612
H1    H     H_    0.469488 0.664141 0.280991 -0.716077
H2    H     H_    0.227859 0.290143 0.374915 -0.114664
H3    H     H_    0.401983 0.339365 0.417740 0.025086
H4    H     H_    0.461421 0.215010 0.394633 -0.024708
H5    H     H_    0.557952 0.262563 0.331549 0.060251
H6    H     H_    0.396032 0.677459 0.155498 -0.232550
H7    H     H_    0.563469 0.662331 0.622042 -0.176645
H8    H     H_    0.727871 0.678355 0.742612 -0.021676
H9    H     H_    0.739836 0.756459 0.696092 -0.054366
H10   H     H_    0.878016 0.843358 0.322229 0.092635
H11   H     H_    0.812843 0.261488 0.626112 0.053036
H12   H     H_    0.803846 0.207574 0.274956 0.149770
H13   H     H_    0.902897 0.146942 0.720132 0.067216
H14   H     H_    0.758529 0.192180 0.756089 0.100633
H15   H     H_    0.344628 0.282697 0.713500 0.133169
H16   H     H_    0.524516 0.150622 0.756198 0.042291
H17   H     H_    0.009171 0.716905 0.385063 0.109025
H18   H     H_    0.379748 0.141949 0.680738 0.016084
H19   H     H_    0.180165 0.344032 0.512380 0.072356
H20   H     H_    0.424137 0.124912 0.563391 0.092373
H21   H     H_    0.091482 0.799747 0.603692 0.128988
H22   H     H_    0.726060 0.202061 0.397227 0.081126
H23   H     H_    0.984887 0.213803 0.233868 0.235720
H24   H     H_    0.641847 0.654872 0.481432 0.084612
H25   H     H_    0.326538 0.003797 0.565086 0.045603
H26   H     H_    0.198813 0.917780 0.600858 0.052780
H27   H     H_    0.636209 0.082240 0.386100 0.106431
H28   H     H_    0.805833 0.730112 0.352708 -0.035800
H29   H     H_    0.595735 0.972936 0.357415 0.136250
H30   H     H_    0.493350 0.536118 0.826574 0.078659
H31   H     H_    0.449249 0.599380 0.933146 0.076037
H32   H     H_    0.545575 0.613685 0.059525 0.081802
H33   H     H_    0.290609 0.465694 0.188316 0.109916
H34   H     H_    0.994512 0.211794 0.327494 0.063855
H35   H     H_    0.210238 0.396443 0.954300 0.099375
H36   H     H_    0.313895 0.408472 0.078557 0.116603
H37   H     H_    0.048717 0.431101 0.859480 0.099564
H38   H     H_    0.723669 0.574176 0.146277 0.059662
H39   H     H_    0.160050 0.457180 0.647576 0.067694
H40   H     H_    0.034745 0.835861 0.389338 0.064671
H41   H     H_    0.654131 0.532750 0.358919 0.075580
H42   H     H_    0.068830 0.814770 0.297353 0.233973
H43   H     H_    0.040548 0.339601 0.318495 0.003432
H44   H     H_    0.123153 0.556021 0.121923 0.041618
H45   H     H_    0.129799 0.597448 0.662374 0.034024
H46   H     H_    0.188623 0.632037 0.081668 0.032884
H47   H     H_    0.001762 0.631934 0.119411 0.083721
H48   H     H_    0.369462 0.248137 0.189931 0.370379
H49   H     H_    0.572731 0.769874 0.164517 0.076088
H50   H     H_    0.671269 0.701689 0.210627 0.010237
H51   H     H_    0.735835 0.795050 0.226929 0.134095
H52   H     H_    0.585030 0.784208 0.595441 -0.062064
H53   H     H_    0.520371 0.844460 0.668315 0.064408
H54   H     H_    0.394135 0.820865 0.586508 0.076372
H55   H     H_    0.818526 0.827290 0.807287 0.028919
H56   H     H_    0.930368 0.575756 0.682248 0.042998
H57   H     H_    0.795519 0.749868 0.855938 0.035247
H58   H     H_    0.688510 0.829424 0.876710 0.094645
H59   H     H_    0.369771 0.815700 0.085920 0.348094
H60   H     H_    0.055840 0.244015 0.800157 0.356590
H61   H     H_    0.669106 0.068684 0.564285 0.053043
H62   H     H_    0.840447 0.060887 0.625201 0.053149
H63   H     H_    0.828565 0.135386 0.571556 0.084909
H64   H     H_    0.327566 0.338429 0.863388 0.354892
H65   H     H_    0.364997 0.062234 0.799196 0.030469
H66   H     H_    0.205091 0.066202 0.728031 0.037560
H67   H     H_    0.180609 0.679026 0.776521 0.178125
H68   H     H_    0.171035 0.086977 0.820296 0.100125
H69   H     H_    0.369583 0.973705 0.415481 -0.010618
H70   H     H_    0.276883 0.900277 0.452089 0.021958
H71   H     H_    0.215087 0.920240 0.362968 0.103437
H72   H     H_    0.678530 0.329869 0.130150 0.367122
H73   H     H_    0.111324 0.591362 0.793826 0.042003
H74   H     H_    0.979620 0.663762 0.796266 0.106507
O1    O     O_2   0.118870 0.674530 0.547560 -0.426980
O2    O     O_2   0.771270 0.454174 0.743678 -0.441120
O3    O     O_3   0.819055 0.315702 0.730898 -0.541430
O4    O     O_3   0.870460 0.585330 0.542110 -0.481777
O5    O     O_3   0.436130 0.464210 0.414140 -0.492236
O6    O     O_2   0.629420 0.533310 0.672080 -0.473384
O7    O     O_3   0.437302 0.642539 0.708559 -0.654670
O8    O     O_2   0.570499 0.249399 0.533234 -0.501032
O9    O     O_3   0.541748 0.260340 0.668123 -0.631338
O10   O     O_3   0.354280 0.631750 0.418430 -0.452097
O11   O     O_2   0.267319 0.759355 0.458428 -0.495705
O12   O     O_3   0.337896 0.351220 0.309158 -0.609303
O13   O     O_3   0.973404 0.679749 0.661112 -0.638457
O14   O     O_3   0.308030 0.735051 0.322116 -0.527707
O15   O     O_2   0.180880 0.466650 0.327890 -0.421851
O16   O     O_3   0.939000 0.596010 0.380670 -0.488329
O17   O     O_2   0.031333 0.553067 0.255526 -0.375185
O18   O     O_3   0.194580 0.644812 0.196319 -0.632233
O19   O     O_2   0.224419 0.136531 0.299371 -0.287544
O20   O     O_2   0.476008 0.131968 0.246983 -0.254844
O21   O     O_3   0.276736 0.224444 0.206989 -0.444508
O22   O     O_3   0.531249 0.770994 0.271784 -0.634423
O23   O     O_3   0.946850 0.688024 0.275797 -0.553300
O24   O     O_3   0.410621 0.742250 0.653141 -0.620565
O25   O     O_3   0.604475 0.766174 0.782831 -0.624710
O26   O     O_2   0.051717 0.774068 0.164512 -0.272063
O27   O     O_2   0.292670 0.846275 0.212892 -0.248452
O28   O     O_3   0.272122 0.784117 0.080917 -0.516885
O29   O     O_2   0.111716 0.182752 0.656587 -0.435267
O30   O     O_2   0.122233 0.312153 0.646718 -0.448929
O31   O     O_3   0.121719 0.275284 0.775075 -0.543385
O32   O     O_3   0.689837 0.143072 0.654630 -0.688684
O33   O     O_2   0.677538 0.274153 0.841510 -0.269942
O34   O     O_2   0.691430 0.325420 0.452420 -0.467299
O35   O     O_2   0.558575 0.380200 0.801506 -0.298424
O36   O     O_3   0.395613 0.297742 0.869685 -0.447074
O37   O     O_3   0.299582 0.165550 0.781388 -0.563774
O38   O     O_3   0.420968 0.866251 0.374082 -0.572132
O39   O     O_2   0.855328 0.424829 0.223383 -0.321968
O40   O     O_2   0.011735 0.331153 0.165646 -0.264970
O41   O     O_3   0.710461 0.302447 0.170176 -0.503033
O42   O     O_3   0.939830 0.414660 0.457830 -0.457339
O43   O     O_3   0.456020 0.368240 0.581510 -0.444080
O44   O     O_3   0.806864 0.336786 0.340075 -0.629459
O45   O     O_3   0.374170 0.535780 0.585810 -0.458215
O46   O     O_3   0.871300 0.403980 0.619270 -0.462197
P1    P     P_3+3 0.947550 0.663200 0.567530 0.985692
P2    P     P_3+3 0.354660 0.445020 0.336980 1.051564
P3    P     P_3+3 0.903221 0.598643 0.289503 1.066301
P4    P     P_3+3 0.862750 0.336790 0.432410 0.971491
P5    P     P_3+3 0.888737 0.401338 0.711758 1.131614
P6    P     P_3+3 0.385822 0.722473 0.409816 1.052867
P7    P     P_3+3 0.449201 0.551043 0.675672 0.964735
P8    P     P_3+3 0.444515 0.275077 0.583182 0.994854
S1    S     S_3+6 0.352751 0.181248 0.274074 -0.040907
S2    S     S_3+6 0.228901 0.778843 0.165109 -0.034438
S3    S     S_3+6 0.061388 0.255261 0.687083 -0.228282
S4    S     S_3+6 0.527674 0.302659 0.809842 -0.022890
S5    S     S_3+6 0.878361 0.345449 0.211550 -0.036794

loop_
_geom_bond_atom_site_label_1
_geom_bond_atom_site_label_2
_ccdc_geom_bond_type
C4    O23   S    
C25   H29   S    
C15   C67   A    
C59   H50   S    
C39   C41   A    
O8    P8    D    
C38   P3    S    
C17   C18   A    
Ba2   O46   S    
C14   C20   A    
C40   H34   S    
C61   H55   S    
C43   C44   A    
C23   O24   S    
C37   H38   S    
C55   O12   S    
C24   C25   A    
C27   O38   S    
C32   C38   A    
C15   C24   A    
C60   O24   S    
C26   C27   A    
C33   C35   A    
C56   O32   S    
C22   C24   A    
C32   C33   A    
C49   P7    S    
C56   H13   S    
O6    P7    D    
C52   O13   S    
C35   H33   S    
C55   C57   S    
C25   C27   A    
O4    P1    S    
Ba2   O5    S    
C13   C14   A    
C44   H36   S    
C9    C22   A    
C34   O25   S    
C21   H27   S    
Ba1   Ba2   S    
O27   S2    D    
C2    C67   A    
O28   S2    S    
C54   H74   S    
O46   P5    S    
C64   H70   S    
C62   H63   S    
O20   S1    D    
C16   H10   S    
O10   P6    S    
C1    S2    S    
C20   H22   S    
C16   H40   S    
O43   P8    S    
Ba2   O34   S    
O3    P5    S    
H72   O41   S    
C1    H6    S    
C7    C8    A    
C57   H4    S    
C49   C53   A    
C63   H65   S    
O26   S2    D    
C63   H68   S    
Ba1   P1    S    
Ba2   O6    S    
C30   H24   S    
C59   H49   S    
C45   O3    S    
C65   H15   S    
O39   S5    D    
O44   P4    S    
O30   S3    D    
C66   H16   S    
C12   H1    S    
C58   H44   S    
C40   H12   S    
C45   H11   S    
C28   C40   S    
C28   S5    S    
C42   C51   S    
C60   H54   S    
C54   H67   S    
O21   S1    S    
C3    H25   S    
C52   C54   S    
C19   H21   S    
H48   O21   S    
C4    C16   S    
C52   H56   S    
C44   C46   A    
O41   S5    S    
C12   O14   S    
C65   C66   S    
C4    H28   S    
O36   S4    S    
Ba1   O16   S    
C41   H31   S    
O17   P3    D    
C37   C38   A    
C3    C5    A    
C6    C7    A    
Ba2   O4    S    
C66   O37   S    
C49   C50   A    
C28   H43   S    
C23   O7    S    
C62   O32   S    
C5    C9    A    
C41   C42   A    
Ba2   O43   S    
C35   C36   A    
C65   S4    S    
C43   H35   S    
C2    H26   S    
C29   C30   A    
C64   H69   S    
C62   H62   S    
C10   P8    S    
C18   C19   A    
C58   O18   S    
C63   H66   S    
C55   H2    S    
C12   O22   S    
Ba1   O10   S    
C17   C26   A    
C57   H5    S    
O7    P7    S    
O2    P5    D    
C59   O22   S    
C1    C12   S    
O12   P2    S    
C18   C31   A    
Ba1   P2    S    
C61   O25   S    
C64   O38   S    
C62   H61   S    
O34   P4    D    
C11   C13   A    
C32   H41   S    
H60   O31   S    
Ba1   O4    S    
O11   P6    D    
C16   H42   S    
C60   H53   S    
C50   C51   A    
Ba1   O45   S    
Ba1   O15   S    
C33   P2    S    
C21   C22   A    
C40   H23   S    
C65   O9    S    
O14   P6    S    
O40   S5    D    
C36   C46   S    
O33   S4    D    
C26   C29   A    
H64   O36   S    
C42   C43   A    
O42   P4    S    
Ba1   O5    S    
C5    C67   A    
C3    C6    A    
C47   H37   S    
C63   O37   S    
Ba1   O42   S    
O19   S1    D    
C50   H30   S    
O31   S3    S    
C48   C53   A    
C4    H17   S    
C53   H39   S    
C34   H8    S    
C23   H7    S    
C30   C31   A    
Ba2   P4    S    
Ba2   O42   S    
C54   H73   S    
Ba1   O1    S    
C8    C14   A    
O15   P2    D    
C28   O44   S    
C45   C56   S    
C29   P6    S    
C2    C19   A    
C48   P5    S    
C36   C37   A    
O1    P1    D    
O5    P2    S    
C47   C51   A    
O16   P3    S    
C52   H45   S    
C11   H19   S    
C15   C17   A    
C39   C46   A    
C39   H32   S    
O9    P8    S    
O29   S3    D    
O23   P3    S    
C55   H3    S    
C45   S3    S    
C7    C10   A    
Ba2   O45   S    
C61   H57   S    
C58   H47   S    
C8    C9    A    
C1    O18   S    
C23   C34   S    
C13   P4    S    
C64   H71   S    
C10   C11   A    
O45   P7    S    
H59   O28   S    
C47   C48   A    
O35   S4    D    
C66   H18   S    
C20   C21   A    
C31   P1    S    
C58   H46   S    
C34   H9    S    
C6    H20   S    
C57   S1    S    
C56   H14   S    
C60   H52   S    
C61   H58   S    
C59   H51   S    
O13   P1    S    
