data_mof_unit_pretest_1384.cif
_audit_creation_date              2012-12-10T17:23:41-0500
_audit_creation_method            fapswitch 2.2
_symmetry_space_group_name_H-M    P1
_symmetry_Int_Tables_number       1
_space_group_crystal_system       triclinic
_cell_length_a                    9.577528
_cell_length_b                    10.838947
_cell_length_c                    17.340355
_cell_angle_alpha                 92.758515
_cell_angle_beta                  85.6121
_cell_angle_gamma                 90.750287
_cell_volume                      1792.67169563

loop_
_atom_site_label
_atom_site_type_symbol
_atom_type_description
_atom_site_fract_x
_atom_site_fract_y
_atom_site_fract_z
_atom_type_partial_charge
C1    C     C_R   0.501476 0.736404 0.492373 0.861541
C2    C     C_R   0.351491 0.454530 0.777920 0.399317
C3    C     C_R   0.416313 0.475494 0.145779 -0.136605
C4    C     C_R   0.409484 0.472329 0.225775 -0.189857
C5    C     C_R   0.656590 0.525092 0.224293 -0.179340
C6    C     C_R   0.663086 0.529528 0.143956 -0.154773
C7    C     C_R   0.542410 0.507472 0.104369 0.181717
C8    C     C_2   0.440206 0.537397 0.980653 -0.201517
C9    C     C_2   0.551937 0.515098 0.019791 -0.213230
C10   C     C_R   0.528975 0.498474 0.265678 -0.022819
C11   C     C_R   0.265454 0.874651 0.430726 0.427920
C12   C     C_R   0.481106 0.498493 0.649790 0.785083
C13   C     C_R   0.133027 0.930243 0.438843 -0.235232
C14   C     C_R   0.114458 0.041956 0.480750 -0.190786
C15   C     C_R   0.229911 0.105968 0.507130 -0.173964
C16   C     C_R   0.366601 0.057279 0.493324 0.025486
C17   C     C_R   0.378605 0.932184 0.467785 0.061906
C18   C     C_R   0.502565 0.869558 0.481995 -0.092973
C19   C     C_R   0.622877 0.937096 0.498752 -0.220857
C20   C     C_R   0.619109 0.064470 0.505878 -0.198164
C21   C     C_R   0.492048 0.126540 0.504128 -0.092486
C22   C     C_R   0.867986 0.336521 0.396111 -0.281903
C23   C     C_R   0.497630 0.261973 0.503301 0.769503
C24   C     C_R   0.946441 0.255739 0.344866 0.405669
C25   C     C_R   0.090382 0.256781 0.345585 -0.197305
C26   C     C_R   0.156254 0.336286 0.396661 -0.264897
C27   C     C_R   0.080747 0.419468 0.449113 0.201870
C28   C     C_R   0.931194 0.419565 0.448984 0.169200
C29   C     C_R   0.920500 0.576914 0.548238 -0.060809
C30   C     C_R   0.068557 0.576899 0.548199 -0.034901
C31   C     C_R   0.518688 0.499059 0.350143 0.795514
C32   C     C_R   0.469795 0.502696 0.734483 -0.138231
C33   C     C_R   0.576791 0.563011 0.773029 -0.239064
C34   C     C_R   0.567048 0.576735 0.853167 -0.146477
C35   C     C_R   0.449431 0.531110 0.896020 0.093938
C36   C     C_R   0.340823 0.473279 0.858200 -0.153078
Cu1   Cu    Cu3+1 0.359340 0.500010 0.500010 0.957158
Cu2   Cu    Cu3+1 0.640660 0.499990 0.499990 0.936173
H1    H     H_    0.667377 0.601603 0.741055 0.167136
H2    H     H_    0.761777 0.552097 0.112782 0.128571
H3    H     H_    0.720155 0.891536 0.507292 0.163870
H4    H     H_    0.044008 0.886393 0.413484 0.144010
H5    H     H_    0.011003 0.081583 0.490279 0.159937
H6    H     H_    0.208313 0.190683 0.540810 0.184181
H7    H     H_    0.715792 0.114145 0.515075 0.165871
H8    H     H_    0.860570 0.639921 0.587745 0.131449
H9    H     H_    0.758467 0.330418 0.392098 0.200638
H10   H     H_    0.310497 0.448842 0.256258 0.156308
H11   H     H_    0.152388 0.194304 0.306563 0.178615
H12   H     H_    0.266664 0.327210 0.392817 0.218250
H13   H     H_    0.119477 0.639918 0.587665 0.141313
H14   H     H_    0.750480 0.544539 0.253972 0.157331
H15   H     H_    0.653856 0.500656 0.988835 0.151828
H16   H     H_    0.250630 0.436524 0.891518 0.150339
H17   H     H_    0.322862 0.451321 0.116987 0.126630
H18   H     H_    0.337492 0.551881 0.010332 0.146533
H19   H     H_    0.650631 0.624230 0.881527 0.144812
N1    N     N_R   0.852190 0.498790 0.499250 -0.186765
N2    N     N_R   0.148060 0.498710 0.499220 -0.189626
O1    O     O_R   0.381190 0.680360 0.500010 -0.545399
O2    O     O_R   0.618760 0.680340 0.500000 -0.597511
O3    O     O_R   0.367440 0.500030 0.613600 -0.572441
O4    O     O_R   0.605010 0.500010 0.613590 -0.575994
O5    O     O_R   0.381240 0.319660 0.500000 -0.616448
O6    O     O_R   0.618810 0.319640 0.499990 -0.597148
O7    O     O_R   0.394990 0.499990 0.386410 -0.576293
O8    O     O_R   0.632560 0.499970 0.386400 -0.608590
O9    O     O_3   0.288814 0.770518 0.382463 -0.718147
H20   H     H_    0.199394 0.742993 0.361586 0.320076
O10   O     O_3   0.885094 0.174335 0.293576 -0.720479
H21   H     H_    0.781974 0.183865 0.300026 0.316846
O11   O     O_3   0.246904 0.386256 0.745061 -0.727058
H22   H     H_    0.287837 0.341409 0.697766 0.324628

loop_
_geom_bond_atom_site_label_1
_geom_bond_atom_site_label_2
_ccdc_geom_bond_type
C31   O7    A    
O9    H20   S    
C30   H13   S    
C5    H14   S    
C29   C30   A    
C28   N1    A    
C34   H19   S    
C12   O3    A    
C3    C7    A    
C19   C20   A    
Cu2   O6    S    
C18   C19   A    
C29   H8    S    
Cu1   O5    S    
Cu2   O2    S    
C32   C33   A    
C8    H18   S    
C25   H11   S    
C21   C23   S    
C17   C18   A    
C1    C18   S    
C24   C25   A    
C24   O10   S    
C5    C10   A    
C27   N2    A    
C13   C14   A    
C12   C32   S    
C31   O8    A    
C11   C13   A    
C11   O9    S    
C23   O6    A    
C26   C27   A    
Cu1   N2    S    
C3    H17   S    
C2    O11   S    
C10   C31   S    
C2    C32   A    
C13   H4    S    
Cu1   Cu2   S    
C15   H6    S    
C33   C34   A    
C6    C7    A    
C6    H2    S    
C26   H12   S    
Cu1   O7    S    
C5    C6    A    
C34   C35   A    
C22   C24   A    
Cu1   O1    S    
C36   H16   S    
C4    C10   A    
C15   C16   A    
Cu2   O8    S    
C23   O5    A    
O10   H21   S    
C9    H15   S    
C29   N1    A    
O11   H22   S    
C20   C21   A    
Cu2   O4    S    
C4    H10   S    
C1    O1    A    
C2    C36   A    
C27   C28   A    
C7    C9    S    
C30   N2    A    
Cu1   O3    S    
C14   C15   A    
C14   H5    S    
C22   C28   A    
C35   C36   A    
C25   C26   A    
C12   O4    A    
C20   H7    S    
C16   C21   A    
Cu2   N1    S    
C33   H1    S    
C22   H9    S    
C11   C17   A    
C3    C4    A    
C19   H3    S    
C16   C17   A    
C8    C9    D    
C8    C35   S    
C1    O2    A    
