data_mof_unit_pretest_1933.cif
_audit_creation_date              2012-12-10T19:54:36-0500
_audit_creation_method            fapswitch 2.2
_symmetry_space_group_name_H-M    P1
_symmetry_Int_Tables_number       1
_space_group_crystal_system       orthorhombic
_cell_length_a                    18.343864
_cell_length_b                    18.343832
_cell_length_c                    51.326879
_cell_angle_alpha                 90.0
_cell_angle_beta                  90.0
_cell_angle_gamma                 90.0
_cell_volume                      17271.328456

loop_
_atom_site_label
_atom_site_type_symbol
_atom_type_description
_atom_site_fract_x
_atom_site_fract_y
_atom_site_fract_z
_atom_type_partial_charge
C1    C     C_R   0.000000 0.500000 0.929244 0.801608
C2    C     C_R   0.974312 0.630001 0.763249 -0.155644
C3    C     C_R   0.639461 0.140815 0.000046 0.831501
C4    C     C_R   0.140816 0.639445 0.000052 0.830914
C5    C     C_R   0.639444 0.859184 0.000052 0.830911
C6    C     C_R   0.859184 0.360555 0.000052 0.830914
C7    C     C_R   0.360555 0.140816 0.000052 0.830911
C8    C     C_R   0.359185 0.139461 0.500046 0.831500
C9    C     C_R   0.860538 0.359185 0.500046 0.831499
C10   C     C_R   0.640815 0.860538 0.500046 0.831499
C11   C     C_R   0.139461 0.640815 0.500046 0.831499
C12   C     C_R   0.640816 0.139445 0.500052 0.830912
C13   C     C_R   0.369925 0.974745 0.763246 -0.155662
C14   C     C_R   0.139444 0.359184 0.500052 0.830912
C15   C     C_R   0.359184 0.860555 0.500052 0.830912
C16   C     C_R   0.860555 0.640816 0.500052 0.830912
C17   C     C_R   0.249997 0.696996 0.981491 0.098883
C18   C     C_R   0.303005 0.249998 0.981491 0.098890
C19   C     C_R   0.750003 0.303004 0.981491 0.098883
C20   C     C_R   0.696995 0.750002 0.981491 0.098890
C21   C     C_R   0.749966 0.697053 0.981484 0.095441
C22   C     C_R   0.697054 0.250033 0.981483 0.095448
C23   C     C_R   0.250034 0.302947 0.981484 0.095441
C24   C     C_R   0.025688 0.369999 0.763249 -0.155644
C25   C     C_R   0.302946 0.749966 0.981483 0.095448
C26   C     C_R   0.749998 0.196995 0.481491 0.098890
C27   C     C_R   0.803005 0.749999 0.481491 0.098891
C28   C     C_R   0.250002 0.803005 0.481491 0.098890
C29   C     C_R   0.196994 0.250002 0.481491 0.098891
C30   C     C_R   0.249966 0.197053 0.481484 0.095444
C31   C     C_R   0.197053 0.750034 0.481484 0.095443
C32   C     C_R   0.750034 0.802947 0.481484 0.095444
C33   C     C_R   0.802947 0.249966 0.481484 0.095443
C34   C     C_R   0.201023 0.690698 0.002103 -0.107162
C35   C     C_R   0.130074 0.525259 0.263246 -0.155660
C36   C     C_R   0.309302 0.201023 0.002103 -0.107161
C37   C     C_R   0.798977 0.309302 0.002103 -0.107162
C38   C     C_R   0.690698 0.798977 0.002103 -0.107160
C39   C     C_R   0.798976 0.690740 0.002091 -0.107308
C40   C     C_R   0.690740 0.201024 0.002091 -0.107307
C41   C     C_R   0.201024 0.309259 0.002091 -0.107308
C42   C     C_R   0.309259 0.798976 0.002091 -0.107307
C43   C     C_R   0.701023 0.190698 0.502103 -0.107162
C44   C     C_R   0.809302 0.701023 0.502103 -0.107160
C45   C     C_R   0.298977 0.809302 0.502103 -0.107162
C46   C     C_R   0.474718 0.130074 0.263246 -0.155653
C47   C     C_R   0.190698 0.298977 0.502103 -0.107159
C48   C     C_R   0.298976 0.190740 0.502091 -0.107307
C49   C     C_R   0.190740 0.701024 0.502091 -0.107310
C50   C     C_R   0.701024 0.809259 0.502091 -0.107307
C51   C     C_R   0.809260 0.298976 0.502091 -0.107309
C52   C     C_R   0.213901 0.731470 0.025071 0.031164
C53   C     C_R   0.268530 0.213900 0.025071 0.031164
C54   C     C_R   0.786099 0.268530 0.025071 0.031164
C55   C     C_R   0.731470 0.786100 0.025071 0.031164
C56   C     C_R   0.786098 0.731489 0.025065 0.031753
C57   C     C_R   0.869926 0.474741 0.263246 -0.155660
C58   C     C_R   0.731489 0.213903 0.025065 0.031752
C59   C     C_R   0.213902 0.268510 0.025065 0.031753
C60   C     C_R   0.268511 0.786097 0.025065 0.031752
C61   C     C_R   0.713901 0.231470 0.525071 0.031164
C62   C     C_R   0.768530 0.713900 0.525071 0.031155
C63   C     C_R   0.286099 0.768530 0.525071 0.031165
C64   C     C_R   0.231470 0.286100 0.525071 0.031155
C65   C     C_R   0.286097 0.231489 0.525065 0.031750
C66   C     C_R   0.231489 0.713902 0.525065 0.031759
C67   C     C_R   0.713902 0.768510 0.525065 0.031750
C68   C     C_R   0.525282 0.869926 0.263246 -0.155653
C69   C     C_R   0.768511 0.286097 0.525065 0.031759
C70   C     C_3   0.294776 0.763655 0.952947 -0.459117
C71   C     C_3   0.236348 0.294779 0.952948 -0.459091
C72   C     C_3   0.705224 0.236345 0.952947 -0.459116
C73   C     C_3   0.763652 0.705221 0.952948 -0.459090
C74   C     C_3   0.705044 0.763773 0.952959 -0.466391
C75   C     C_3   0.763776 0.294954 0.952958 -0.466366
C76   C     C_3   0.294956 0.236227 0.952959 -0.466391
C77   C     C_3   0.236224 0.705046 0.952958 -0.466365
C78   C     C_3   0.794778 0.263652 0.452948 -0.459096
C79   C     C_R   0.130101 0.525179 0.236053 -0.157015
C80   C     C_3   0.736348 0.794779 0.452948 -0.459095
C81   C     C_3   0.205221 0.736348 0.452948 -0.459097
C82   C     C_3   0.263652 0.205221 0.452948 -0.459095
C83   C     C_3   0.205043 0.263773 0.452959 -0.466397
C84   C     C_3   0.263773 0.794956 0.452959 -0.466394
C85   C     C_3   0.794956 0.736227 0.452959 -0.466397
C86   C     C_3   0.736226 0.205044 0.452959 -0.466394
C87   C     C_R   0.436092 0.987378 0.804486 0.510055
C88   C     C_R   0.012829 0.436128 0.804490 0.510054
C89   C     C_R   0.563908 0.012622 0.804486 0.510055
C90   C     C_R   0.474797 0.130101 0.236053 -0.157008
C91   C     C_R   0.987171 0.563872 0.804490 0.510054
C92   C     C_R   0.936092 0.487376 0.304486 0.510053
C93   C     C_R   0.512635 0.936092 0.304487 0.510050
C94   C     C_R   0.063908 0.512624 0.304486 0.510053
C95   C     C_R   0.487365 0.063908 0.304487 0.510049
C96   C     C_R   0.565268 0.012680 0.777136 -0.021005
C97   C     C_R   0.987104 0.565231 0.777139 -0.021006
C98   C     C_R   0.434732 0.987320 0.777136 -0.021005
C99   C     C_R   0.012896 0.434769 0.777139 -0.021006
C100  C     C_R   0.065268 0.512682 0.277136 -0.021007
C101  C     C_R   0.869899 0.474821 0.236053 -0.157015
C102  C     C_R   0.487306 0.065267 0.277136 -0.021002
C103  C     C_R   0.934732 0.487318 0.277136 -0.021007
C104  C     C_R   0.512694 0.934733 0.277136 -0.021002
C105  C     C_R   0.500000 0.000000 0.929244 0.801591
C106  C     C_R   0.525202 0.869899 0.236053 -0.157008
C107  C     C_R   0.630102 0.025175 0.736053 -0.157018
C108  C     C_R   0.974390 0.630028 0.736055 -0.156991
C109  C     C_R   0.369898 0.974825 0.736053 -0.157018
C110  C     C_R   0.025610 0.369972 0.736055 -0.156992
C111  C     C_R   0.065308 0.512610 0.222167 -0.025717
C112  C     C_R   0.487378 0.065307 0.222167 -0.025711
C113  C     C_R   0.934692 0.487390 0.222167 -0.025716
C114  C     C_R   0.512622 0.934693 0.222167 -0.025710
C115  C     C_R   0.565308 0.012608 0.722167 -0.025715
C116  C     C_R   0.500000 1.000000 0.429244 0.801593
C117  C     C_R   0.987174 0.565271 0.722169 -0.025704
C118  C     C_R   0.434692 0.987392 0.722167 -0.025715
C119  C     C_R   0.012826 0.434729 0.722169 -0.025703
C120  C     C_R   1.000000 0.500000 0.235893 -0.017957
C121  C     C_R   0.500000 0.000000 0.235893 -0.017969
C122  C     C_R   0.500000 1.000000 0.735893 -0.017957
C123  C     C_R   0.000000 0.500000 0.735896 -0.017985
C124  C     C_R   0.063981 0.512248 0.194821 0.537076
C125  C     C_R   0.487740 0.063981 0.194821 0.537072
C126  C     C_R   0.936018 0.487752 0.194821 0.537075
C127  C     C_R   1.000000 0.500000 0.429244 0.801592
C128  C     C_R   0.512259 0.936019 0.194821 0.537071
C129  C     C_R   0.563982 0.012246 0.694821 0.537076
C130  C     C_R   0.987541 0.563946 0.694824 0.537068
C131  C     C_R   0.436018 0.987754 0.694821 0.537076
C132  C     C_R   0.012459 0.436054 0.694824 0.537068
C133  C     C_R   0.001912 0.433713 0.140151 0.103713
C134  C     C_R   0.433713 0.998097 0.140151 0.103720
C135  C     C_R   0.998088 0.566286 0.140151 0.103714
C136  C     C_R   0.566287 0.001903 0.140151 0.103720
C137  C     C_R   0.501911 0.933714 0.640151 0.103712
C138  C     C_R   0.500000 0.000000 0.763411 -0.017208
C139  C     C_R   0.933715 0.497995 0.640151 0.103753
C140  C     C_R   0.498089 0.066286 0.640151 0.103712
C141  C     C_R   0.066285 0.502006 0.640151 0.103753
C142  C     C_R   0.001838 0.433957 0.112863 -0.267141
C143  C     C_R   0.433957 0.998171 0.112863 -0.267143
C144  C     C_R   0.998162 0.566043 0.112863 -0.267142
C145  C     C_R   0.566043 0.001829 0.112863 -0.267142
C146  C     C_R   0.501837 0.933957 0.612863 -0.267142
C147  C     C_R   0.933959 0.498071 0.612864 -0.267152
C148  C     C_R   0.498163 0.066043 0.612863 -0.267142
C149  C     C_R   1.000000 0.500000 0.763413 -0.017227
C150  C     C_R   0.066041 0.501929 0.612864 -0.267152
C151  C     C_R   0.000000 0.500000 0.099031 -0.040523
C152  C     C_R   0.500000 0.000000 0.099031 -0.040523
C153  C     C_R   0.500000 1.000000 0.599031 -0.040524
C154  C     C_R   0.000000 0.500000 0.599032 -0.040524
C155  C     C_R   1.000000 0.500000 0.153821 0.346630
C156  C     C_R   0.500000 0.000000 0.153822 0.346606
C157  C     C_R   0.500000 1.000000 0.653822 0.346631
C158  C     C_R   0.000000 0.500000 0.653823 0.346517
C159  C     C_R   0.000000 0.500000 0.070286 0.820904
C160  C     C_R   1.000000 0.500000 0.263411 -0.017208
C161  C     C_R   0.500000 0.000000 0.070286 0.820903
C162  C     C_R   0.500000 0.000000 0.570286 0.820903
C163  C     C_R   1.000000 0.500000 0.570286 0.820895
C164  C     C_R   0.537278 0.945640 0.859202 -0.147678
C165  C     C_R   0.054303 0.537364 0.859204 -0.147697
C166  C     C_R   0.462722 0.054360 0.859202 -0.147678
C167  C     C_R   0.945697 0.462636 0.859204 -0.147696
C168  C     C_R   0.037278 0.445640 0.359202 -0.147678
C169  C     C_R   0.554355 0.037286 0.359202 -0.147678
C170  C     C_R   0.962721 0.554360 0.359202 -0.147678
C171  C     C_R   0.500000 1.000000 0.263411 -0.017218
C172  C     C_R   0.445645 0.962714 0.359202 -0.147678
C173  C     C_R   0.538082 0.945155 0.886528 0.049033
C174  C     C_R   0.054790 0.538163 0.886530 0.049060
C175  C     C_R   0.461917 0.054845 0.886528 0.049033
C176  C     C_R   0.945209 0.461837 0.886530 0.049060
C177  C     C_R   0.038083 0.445155 0.386528 0.049035
C178  C     C_R   0.554840 0.038090 0.386528 0.049038
C179  C     C_R   0.961917 0.554845 0.386528 0.049035
C180  C     C_R   0.445159 0.961910 0.386528 0.049038
C181  C     C_R   0.500000 0.000000 0.900417 -0.043191
C182  C     C_R   0.630075 0.025255 0.763246 -0.155662
C183  C     C_R   1.000000 0.500000 0.900418 -0.043128
C184  C     C_R   1.000000 0.500000 0.400417 -0.043191
C185  C     C_R   0.500000 1.000000 0.400417 -0.043187
C186  C     C_R   0.500000 0.000000 0.845565 0.265320
C187  C     C_R   1.000000 0.500000 0.845567 0.265406
C188  C     C_R   1.000000 0.500000 0.345565 0.265323
C189  C     C_R   0.500000 1.000000 0.345565 0.265317
C190  C     C_R   0.859185 0.639462 0.000046 0.831497
C191  C     C_R   0.360538 0.859185 0.000046 0.831501
C192  C     C_R   0.140815 0.360538 0.000046 0.831496
H1    H     H_    0.273402 0.819070 0.948592 0.194068
H2    H     H_    0.680933 0.773405 0.448592 0.194070
H3    H     H_    0.338134 0.948844 0.148389 0.188975
H4    H     H_    0.040894 0.664831 0.148505 0.199165
H5    H     H_    0.948821 0.661857 0.148390 0.188986
H6    H     H_    0.664826 0.959082 0.148506 0.199177
H7    H     H_    0.661866 0.051156 0.148389 0.188975
H8    H     H_    0.459103 0.835169 0.648505 0.199160
H9    H     H_    0.551176 0.838142 0.648390 0.188993
H10   H     H_    0.835104 0.540656 0.648506 0.199233
H11   H     H_    0.838213 0.448585 0.648389 0.188928
H12   H     H_    0.540897 0.164831 0.648505 0.199160
H13   H     H_    0.226596 0.680932 0.448592 0.194070
H14   H     H_    0.448824 0.161858 0.648390 0.188993
H15   H     H_    0.164896 0.459344 0.648506 0.199232
H16   H     H_    0.161787 0.551415 0.648389 0.188928
H17   H     H_    0.599873 0.851665 0.887199 0.183599
H18   H     H_    0.623337 0.915622 0.908970 0.175935
H19   H     H_    0.148191 0.600089 0.887202 0.183607
H20   H     H_    0.084204 0.623450 0.908976 0.175876
H21   H     H_    0.400127 0.148335 0.887199 0.183599
H22   H     H_    0.376663 0.084378 0.908970 0.175934
H23   H     H_    0.851809 0.399911 0.887202 0.183607
H24   H     H_    0.319067 0.226595 0.448592 0.194070
H25   H     H_    0.915796 0.376550 0.908977 0.175876
H26   H     H_    0.099874 0.351666 0.387199 0.183593
H27   H     H_    0.123338 0.415623 0.408970 0.175935
H28   H     H_    0.648322 0.099893 0.387199 0.183594
H29   H     H_    0.584362 0.123348 0.408970 0.175930
H30   H     H_    0.900125 0.648334 0.387199 0.183593
H31   H     H_    0.876662 0.584377 0.408970 0.175935
H32   H     H_    0.351678 0.900107 0.387199 0.183594
H33   H     H_    0.415638 0.876652 0.408970 0.175930
H34   H     H_    0.226335 0.319223 0.448604 0.191306
H35   H     H_    0.319223 0.773664 0.448604 0.191306
H36   H     H_    0.773665 0.680777 0.448604 0.191306
H37   H     H_    0.680777 0.226336 0.448604 0.191306
H38   H     H_    0.344361 0.747812 0.941860 0.218404
H39   H     H_    0.252191 0.344364 0.941860 0.218404
H40   H     H_    0.655639 0.252188 0.941860 0.218404
H41   H     H_    0.180933 0.273404 0.948592 0.194067
H42   H     H_    0.747809 0.655636 0.941860 0.218404
H43   H     H_    0.655440 0.747918 0.941882 0.218980
H44   H     H_    0.747922 0.344557 0.941881 0.218992
H45   H     H_    0.344560 0.252082 0.941882 0.218980
H46   H     H_    0.252078 0.655443 0.941881 0.218992
H47   H     H_    0.844364 0.247809 0.441860 0.218399
H48   H     H_    0.752191 0.844364 0.441860 0.218399
H49   H     H_    0.155636 0.752191 0.441860 0.218399
H50   H     H_    0.247809 0.155636 0.441860 0.218399
H51   H     H_    0.155440 0.247918 0.441882 0.218977
H52   H     H_    0.726598 0.180930 0.948592 0.194068
H53   H     H_    0.247919 0.844560 0.441882 0.218978
H54   H     H_    0.844560 0.752082 0.441882 0.218977
H55   H     H_    0.752081 0.155440 0.441882 0.218978
H56   H     H_    0.680986 0.035160 0.773329 0.192467
H57   H     H_    0.964237 0.680883 0.773332 0.192454
H58   H     H_    0.319014 0.964840 0.773329 0.192467
H59   H     H_    0.035762 0.319117 0.773332 0.192454
H60   H     H_    0.180985 0.535165 0.273329 0.192469
H61   H     H_    0.464802 0.180984 0.273329 0.192465
H62   H     H_    0.819015 0.464835 0.273329 0.192469
H63   H     H_    0.819067 0.726596 0.948592 0.194067
H64   H     H_    0.535198 0.819016 0.273329 0.192465
H65   H     H_    0.181019 0.535025 0.225966 0.192289
H66   H     H_    0.464942 0.181019 0.225966 0.192285
H67   H     H_    0.818981 0.464975 0.225966 0.192289
H68   H     H_    0.535058 0.818981 0.225966 0.192286
H69   H     H_    0.681020 0.035020 0.725966 0.192287
H70   H     H_    0.964374 0.680917 0.725969 0.192276
H71   H     H_    0.318980 0.964980 0.725966 0.192287
H72   H     H_    0.035626 0.319083 0.725969 0.192276
H73   H     H_    0.003369 0.382402 0.102579 0.171657
H74   H     H_    0.726335 0.819223 0.948604 0.191304
H75   H     H_    0.382401 0.996648 0.102579 0.171657
H76   H     H_    0.996631 0.617598 0.102579 0.171657
H77   H     H_    0.617599 0.003352 0.102579 0.171657
H78   H     H_    0.503367 0.882402 0.602579 0.171658
H79   H     H_    0.882405 0.496467 0.602580 0.171652
H80   H     H_    0.496632 0.117598 0.602579 0.171658
H81   H     H_    0.117595 0.503533 0.602580 0.171652
H82   H     H_    0.566059 0.903893 0.848383 0.148113
H83   H     H_    0.096004 0.566211 0.848385 0.148034
H84   H     H_    0.433941 0.096107 0.848383 0.148113
H85   H     H_    0.819226 0.273662 0.948604 0.191307
H86   H     H_    0.903995 0.433789 0.848385 0.148034
H87   H     H_    0.066059 0.403894 0.348383 0.148109
H88   H     H_    0.596098 0.066072 0.348383 0.148106
H89   H     H_    0.933940 0.596106 0.348383 0.148109
H90   H     H_    0.403902 0.933927 0.348383 0.148106
H91   H     H_    0.205996 0.703386 0.063221 0.179032
H92   H     H_    0.143770 0.765969 0.053087 0.185348
H93   H     H_    0.296612 0.205994 0.063221 0.179032
H94   H     H_    0.234030 0.143768 0.053087 0.185348
H95   H     H_    0.794004 0.296614 0.063221 0.179032
H96   H     H_    0.273665 0.180777 0.948604 0.191304
H97   H     H_    0.856229 0.234031 0.053087 0.185348
H98   H     H_    0.703388 0.794006 0.063221 0.179032
H99   H     H_    0.765970 0.856231 0.053087 0.185348
H100  H     H_    0.794027 0.703372 0.063212 0.178287
H101  H     H_    0.856229 0.765984 0.053083 0.185200
H102  H     H_    0.703370 0.205975 0.063212 0.178288
H103  H     H_    0.765982 0.143772 0.053083 0.185200
H104  H     H_    0.205973 0.296628 0.063212 0.178287
H105  H     H_    0.143771 0.234016 0.053083 0.185200
H106  H     H_    0.296630 0.794025 0.063212 0.178288
H107  H     H_    0.180774 0.726338 0.948604 0.191307
H108  H     H_    0.234018 0.856228 0.053083 0.185200
H109  H     H_    0.705994 0.203388 0.563221 0.179026
H110  H     H_    0.643769 0.265971 0.553087 0.185347
H111  H     H_    0.796611 0.705994 0.563221 0.179046
H112  H     H_    0.734029 0.643768 0.553086 0.185354
H113  H     H_    0.294006 0.796612 0.563221 0.179026
H114  H     H_    0.356231 0.734029 0.553087 0.185347
H115  H     H_    0.203388 0.294006 0.563221 0.179046
H116  H     H_    0.265970 0.356232 0.553086 0.185354
H117  H     H_    0.294027 0.203372 0.563212 0.178292
H118  H     H_    0.773404 0.319068 0.448592 0.194070
H119  H     H_    0.356229 0.265984 0.553083 0.185203
H120  H     H_    0.203372 0.705973 0.563212 0.178269
H121  H     H_    0.265983 0.643771 0.553083 0.185198
H122  H     H_    0.705973 0.796628 0.563212 0.178292
H123  H     H_    0.643771 0.734016 0.553083 0.185203
H124  H     H_    0.796628 0.294027 0.563212 0.178269
H125  H     H_    0.734016 0.356229 0.553083 0.185198
H126  H     H_    0.959106 0.335169 0.148505 0.199165
H127  H     H_    0.051179 0.338143 0.148390 0.188986
H128  H     H_    0.335174 0.040918 0.148505 0.199177
N1    N     N_R   0.500000 0.000000 0.817568 -0.345847
N2    N     N_3   0.281918 0.171138 0.047999 -0.422889
N3    N     N_3   0.828860 0.281920 0.047999 -0.422888
N4    N     N_3   0.718082 0.828862 0.047999 -0.422889
N5    N     N_3   0.828872 0.718092 0.047990 -0.423596
N6    N     N_3   0.718090 0.171129 0.047990 -0.423596
N7    N     N_3   0.171128 0.281908 0.047990 -0.423596
N8    N     N_3   0.281909 0.828870 0.047990 -0.423596
N9    N     N_3   0.671138 0.218082 0.547999 -0.422889
N10   N     N_3   0.781918 0.671138 0.547999 -0.422874
N11   N     N_3   0.328861 0.781918 0.547999 -0.422889
N12   N     N_R   1.000000 0.500000 0.817570 -0.345880
N13   N     N_3   0.218082 0.328862 0.547999 -0.422874
N14   N     N_3   0.328872 0.218092 0.547990 -0.423595
N15   N     N_3   0.218092 0.671128 0.547990 -0.423610
N16   N     N_3   0.671128 0.781908 0.547990 -0.423596
N17   N     N_3   0.781908 0.328872 0.547990 -0.423610
N18   N     N_3   0.004243 0.366221 0.154121 -0.446090
N19   N     N_3   0.366219 0.995776 0.154121 -0.446083
N20   N     N_3   0.995757 0.633779 0.154121 -0.446090
N21   N     N_3   0.633780 0.004224 0.154121 -0.446082
N22   N     N_3   0.504241 0.866221 0.654121 -0.446089
N23   N     N_R   1.000000 0.500000 0.317568 -0.345848
N24   N     N_3   0.866223 0.495562 0.654122 -0.446047
N25   N     N_3   0.495759 0.133779 0.654121 -0.446089
N26   N     N_3   0.133777 0.504438 0.654122 -0.446047
N27   N     N_3   0.578669 0.890061 0.900212 -0.420629
N28   N     N_3   0.109828 0.578823 0.900215 -0.420679
N29   N     N_3   0.421331 0.109939 0.900212 -0.420629
N30   N     N_3   0.890172 0.421177 0.900215 -0.420679
N31   N     N_3   0.078670 0.390062 0.400212 -0.420631
N32   N     N_3   0.609929 0.078683 0.400212 -0.420635
N33   N     N_3   0.921330 0.609938 0.400212 -0.420631
N34   N     N_R   0.500000 1.000000 0.317568 -0.345854
N35   N     N_3   0.390071 0.921317 0.400212 -0.420635
N36   N     N_R   1.000000 0.500000 0.181796 -0.334677
N37   N     N_R   0.500000 0.000000 0.181796 -0.334683
N38   N     N_R   0.500000 1.000000 0.681796 -0.334676
N39   N     N_R   0.000000 0.500000 0.681798 -0.334694
N40   N     N_3   0.171140 0.718080 0.047999 -0.422888
O1    O     O_3   0.000000 0.500000 0.999730 -0.492581
O2    O     O_R   0.000000 0.561010 0.441690 -0.623878
O3    O     O_R   0.438990 0.000000 0.441690 -0.623879
O4    O     O_R   1.000000 0.438990 0.441690 -0.623878
O5    O     O_R   1.000000 0.560620 0.057780 -0.640699
O6    O     O_R   0.439380 0.000000 0.057780 -0.640699
O7    O     O_R   0.000000 0.439380 0.057780 -0.640699
O8    O     O_R   0.560620 0.000000 0.057780 -0.640699
O9    O     O_R   0.500000 0.060620 0.557780 -0.640699
O10   O     O_R   0.939380 0.500000 0.557780 -0.640695
O11   O     O_R   0.500000 0.939380 0.557780 -0.640699
O12   O     O_3   0.500000 0.000000 0.999730 -0.492578
O13   O     O_R   0.060620 0.500000 0.557780 -0.640695
O14   O     O_R   0.854100 0.585380 0.984510 -0.644648
O15   O     O_R   0.414620 0.854100 0.984510 -0.644644
O16   O     O_R   0.145900 0.414620 0.984510 -0.644649
O17   O     O_R   0.585380 0.145900 0.984510 -0.644644
O18   O     O_R   0.145900 0.585380 0.984510 -0.643656
O19   O     O_R   0.585380 0.854100 0.984510 -0.643664
O20   O     O_R   0.854100 0.414620 0.984510 -0.643656
O21   O     O_R   0.414620 0.145900 0.984510 -0.643664
O22   O     O_R   0.354100 0.085380 0.484510 -0.644645
O23   O     O_3   0.500000 0.000000 0.499730 -0.492578
O24   O     O_R   0.914620 0.354100 0.484510 -0.644645
O25   O     O_R   0.645900 0.914620 0.484510 -0.644645
O26   O     O_R   0.085380 0.645900 0.484510 -0.644644
O27   O     O_R   0.645900 0.085380 0.484510 -0.643664
O28   O     O_R   0.085380 0.354100 0.484510 -0.643666
O29   O     O_R   0.354100 0.914620 0.484510 -0.643664
O30   O     O_R   0.914620 0.645900 0.484510 -0.643666
O31   O     O_R   0.085710 0.353760 0.014950 -0.621286
O32   O     O_R   0.646240 0.085710 0.014950 -0.621286
O33   O     O_R   0.914290 0.646240 0.014950 -0.621286
O34   O     O_3   0.000000 0.500000 0.499730 -0.492577
O35   O     O_R   0.353760 0.914290 0.014950 -0.621286
O36   O     O_R   0.914290 0.353760 0.014950 -0.621213
O37   O     O_R   0.353760 0.085710 0.014950 -0.621212
O38   O     O_R   0.085710 0.646240 0.014950 -0.621213
O39   O     O_R   0.646240 0.914290 0.014950 -0.621212
O40   O     O_R   0.585710 0.853760 0.514950 -0.621285
O41   O     O_R   0.146240 0.585710 0.514950 -0.621288
O42   O     O_R   0.414290 0.146240 0.514950 -0.621285
O43   O     O_R   0.853760 0.414290 0.514950 -0.621288
O44   O     O_R   0.414290 0.853760 0.514950 -0.621212
O45   O     O_R   0.061010 0.500000 0.941690 -0.623881
O46   O     O_R   0.853760 0.585710 0.514950 -0.621208
O47   O     O_R   0.585710 0.146240 0.514950 -0.621212
O48   O     O_R   0.146240 0.414290 0.514950 -0.621208
O49   O     O_2   0.374203 0.974350 0.817915 -0.560226
O50   O     O_2   0.026051 0.374278 0.817919 -0.560169
O51   O     O_2   0.625797 0.025650 0.817915 -0.560225
O52   O     O_2   0.973948 0.625722 0.817919 -0.560170
O53   O     O_2   0.874204 0.474346 0.317915 -0.560220
O54   O     O_2   0.525676 0.874205 0.317915 -0.560214
O55   O     O_2   0.125796 0.525654 0.317915 -0.560220
O56   O     O_R   0.500000 0.061010 0.941690 -0.623878
O57   O     O_2   0.474324 0.125795 0.317915 -0.560214
O58   O     O_2   0.126032 0.523860 0.181326 -0.559867
O59   O     O_2   0.476118 0.126032 0.181326 -0.559861
O60   O     O_2   0.873968 0.476140 0.181326 -0.559867
O61   O     O_2   0.523882 0.873968 0.181326 -0.559862
O62   O     O_2   0.626032 0.023856 0.681326 -0.559871
O63   O     O_2   0.975728 0.625965 0.681329 -0.559858
O64   O     O_2   0.373967 0.976144 0.681326 -0.559871
O65   O     O_2   0.024272 0.374036 0.681329 -0.559858
O66   O     O_R   0.938990 0.500000 0.941690 -0.623880
O67   O     O_R   0.500000 0.938990 0.941690 -0.623878
O68   O     O_R   0.561010 0.000000 0.441690 -0.623879
Zn1   Zn    Zn3+2 0.000000 0.586670 0.021480 0.980114
Zn2   Zn    Zn3+2 0.500000 0.913520 0.977990 0.969144
Zn3   Zn    Zn3+2 0.086480 0.500000 0.977990 0.969152
Zn4   Zn    Zn3+2 0.500000 0.086480 0.977990 0.969144
Zn5   Zn    Zn3+2 0.413520 0.000000 0.477990 0.969143
Zn6   Zn    Zn3+2 0.000000 0.413520 0.477990 0.969142
Zn7   Zn    Zn3+2 0.586480 0.000000 0.477990 0.969143
Zn8   Zn    Zn3+2 0.000000 0.586480 0.477990 0.969142
Zn9   Zn    Zn3+2 0.413330 0.000000 0.021480 0.980115
Zn10  Zn    Zn3+2 1.000000 0.413330 0.021480 0.980114
Zn11  Zn    Zn3+2 0.586670 0.000000 0.021480 0.980115
Zn12  Zn    Zn3+2 0.500000 0.086670 0.521480 0.980116
Zn13  Zn    Zn3+2 0.913330 0.500000 0.521480 0.980116
Zn14  Zn    Zn3+2 0.500000 0.913330 0.521480 0.980116
Zn15  Zn    Zn3+2 0.086670 0.500000 0.521480 0.980116
Zn16  Zn    Zn3+2 0.913520 0.500000 0.977990 0.969152

loop_
_geom_bond_atom_site_label_1
_geom_bond_atom_site_label_2
_ccdc_geom_bond_type
H31   N33   S    
H19   N28   S    
C101  C113  A    
H121  N15   S    
C142  H73   S    
O40   Zn14  S    
C133  N18   S    
C99   C149  A    
C87   N1    A    
C165  C187  A    
C98   C138  A    
C157  N38   S    
C144  C151  A    
C164  C186  A    
O48   Zn15  S    
C33   C78   S    
O17   Zn4   S    
C132  O65   S    
O18   Zn3   S    
C11   O26   A    
H11   N24   S    
C7    O37   A    
C82   H50   S    
C73   C74   S    
C57   H62   S    
C148  H80   S    
C52   N40   S    
C36   C53   A    
C19   C37   A    
C134  C143  A    
C38   C55   A    
C179  N33   S    
C108  H70   S    
C48   C65   A    
C16   C44   S    
C189  N34   S    
C95   C102  A    
H122  N16   S    
C91   O52   S    
O56   Zn4   S    
H123  N16   S    
C176  N30   S    
C109  C118  A    
C40   C58   A    
O12   Zn4   S    
O23   Zn5   S    
C137  C146  A    
C146  H78   S    
C170  H89   S    
C24   C110  A    
C56   N5    S    
C14   O48   A    
C47   C64   A    
C127  O2    A    
H21   N29   S    
C76   H45   S    
C142  C151  A    
C30   C82   S    
H115  N13   S    
C11   C49   S    
C32   C80   S    
C113  C120  A    
C114  C128  A    
C39   C56   A    
O12   Zn9   S    
C55   N4    S    
C95   N34   A    
C164  C173  A    
C107  H69   S    
C85   H36   S    
C165  H83   S    
C166  H84   S    
C73   H42   S    
H94   N2    S    
C104  C171  A    
C75   H85   S    
C77   H46   S    
C17   C34   A    
C90   H66   S    
C116  O68   A    
C164  H82   S    
O27   Zn7   S    
C111  C124  A    
C166  C186  A    
C86   H37   S    
C24   H59   S    
H18   N27   S    
H22   N29   S    
C119  C123  A    
C177  C184  A    
C191  O15   A    
C116  C185  S    
C153  C162  S    
C23   C41   A    
C17   C25   A    
C89   C96   A    
C175  N29   S    
H114  N11   S    
C88   N12   A    
C43   C61   A    
C125  O59   S    
C70   H1    S    
C126  O60   S    
C93   N34   A    
C2    C108  A    
C35   H60   S    
H103  N6    S    
C124  O58   S    
H9    N22   S    
C88   C99   A    
H93   N2    S    
C20   C21   A    
C120  C160  A    
C71   H39   S    
C11   O41   A    
C134  N19   S    
C51   C69   A    
O31   Zn10  S    
O44   Zn14  S    
C9    O43   A    
C101  H67   S    
C86   H55   S    
H104  N7    S    
H101  N5    S    
C192  O16   A    
C169  C189  A    
O34   Zn8   S    
O46   Zn13  S    
C1    C183  S    
O47   Zn12  S    
H5    N20   S    
O43   Zn13  S    
H95   N3    S    
C53   N2    S    
C178  N32   S    
C133  C142  A    
C29   C30   A    
H120  N15   S    
C29   C47   A    
C30   C48   A    
C124  N36   A    
C131  O64   S    
C96   C138  A    
O9    Zn12  S    
O12   Zn11  S    
C21   C73   S    
O23   Zn14  S    
O22   Zn5   S    
H109  N9    S    
C118  C122  A    
C68   H64   S    
C13   C109  A    
C65   N14   S    
C52   C60   A    
H6    N21   S    
C27   C44   A    
H3    N19   S    
C118  C131  A    
C6    O20   A    
C141  N26   S    
C50   C67   A    
C46   H61   S    
C152  C161  S    
C175  C181  A    
C22   C40   A    
C70   C77   S    
C127  C184  S    
C72   C75   S    
C187  N12   S    
C22   C72   S    
C141  C150  A    
C135  N20   S    
C6    O36   A    
C174  N28   S    
C49   C66   A    
C67   N16   S    
C79   H65   S    
H112  N10   S    
H28   N32   S    
O13   Zn15  S    
C2    H57   S    
O11   Zn14  S    
O14   Zn16  S    
C62   N10   S    
C113  C126  A    
C165  C174  A    
C191  O35   A    
C156  N37   S    
C59   N7    S    
C151  C159  S    
C158  N39   S    
O33   Zn1   S    
C94   O55   S    
C12   O27   A    
C182  H56   S    
C26   C33   A    
C94   C100  A    
H12   N25   S    
C107  C115  A    
C75   H44   S    
C41   C192  S    
C84   H53   S    
C190  O33   A    
C155  N36   S    
O25   Zn7   S    
O24   Zn6   S    
C60   N8    S    
C35   C100  A    
O29   Zn5   S    
O19   Zn2   S    
H100  N5    S    
H97   N3    S    
C179  C184  A    
C72   H40   S    
C162  O11   A    
C130  O63   S    
H111  N10   S    
C110  C119  A    
C57   C101  A    
C186  N1    S    
C137  C157  A    
C170  C179  A    
O34   Zn15  S    
C112  C121  A    
C177  N31   S    
C12   O47   A    
C85   H54   S    
H99   N4    S    
O32   Zn11  S    
C35   C79   A    
C71   H41   S    
C63   C66   A    
C145  C152  A    
H26   N31   S    
C170  C188  A    
C97   C149  A    
C58   N6    S    
C54   N3    S    
C105  C181  S    
C74   H43   S    
C84   H35   S    
C126  N36   A    
C83   H34   S    
O34   Zn6   S    
H8    N22   S    
C55   C56   A    
C78   H47   S    
C168  C188  A    
C28   C84   S    
C7    C36   S    
C72   H52   S    
C9    C51   S    
H102  N6    S    
C192  O31   A    
C166  C175  A    
O10   Zn13  S    
C63   N11   S    
C130  N39   A    
C8    O22   A    
C115  C129  A    
C71   C76   S    
C173  N27   S    
O5    Zn1   S    
C103  C160  A    
C190  O14   A    
H27   N31   S    
C168  C177  A    
H17   N27   S    
C83   H51   S    
C81   H49   S    
C27   C85   S    
C159  O7    A    
C147  H79   S    
C161  O6    A    
H20   N28   S    
C114  C121  A    
C42   C191  S    
C134  C156  A    
C2    C97   A    
C78   H118  S    
H113  N11   S    
C15   O29   A    
H32   N35   S    
C5    O19   A    
O35   Zn9   S    
H105  N7    S    
C87   C98   A    
C172  C180  A    
C10   O25   A    
C173  C181  A    
O1    Zn1   S    
C5    C38   S    
O3    Zn5   S    
C162  O9    A    
C144  H76   S    
C31   C49   A    
C108  C117  A    
O2    Zn8   S    
O38   Zn1   S    
C57   C103  A    
C107  C182  A    
C132  N39   A    
C23   C71   S    
O34   Zn13  S    
C69   N17   S    
C122  C138  A    
C163  O10   A    
H98   N4    S    
O20   Zn16  S    
H119  N14   S    
H127  N18   S    
H7    N21   S    
O7    Zn10  S    
C7    O21   A    
C3    O17   A    
O45   Zn3   S    
C8    C48   S    
C80   C85   S    
C64   N13   S    
H92   N40   S    
O16   Zn3   S    
C16   O30   A    
H106  N8    S    
C20   C74   S    
C169  H88   S    
C14   O28   A    
C91   C97   A    
C66   N15   S    
C82   H24   S    
O68   Zn7   S    
C143  C152  A    
H33   N35   S    
C188  N23   S    
C106  C114  A    
C3    C40   S    
C95   O57   S    
C4    O38   A    
C5    O39   A    
H116  N13   S    
H4    N20   S    
C140  N25   S    
C3    O32   A    
C102  C171  A    
C18   C76   S    
C27   C32   A    
C28   C31   A    
C68   C104  A    
C96   C182  A    
C25   C42   A    
C87   O49   S    
C128  N37   A    
C46   C90   A    
O12   Zn2   S    
C172  C189  A    
C33   C51   A    
C34   C52   A    
O42   Zn12  S    
C139  N24   S    
C64   C65   A    
H117  N14   S    
C159  O5    A    
O23   Zn7   S    
C161  O8    A    
C94   N23   A    
C146  C153  A    
C131  N38   A    
H108  N8    S    
O37   Zn9   S    
C163  O13   A    
C141  C158  A    
C82   C83   S    
O1    Zn3   S    
O66   Zn16  S    
C25   C70   S    
O30   Zn8   S    
C174  C183  A    
C18   C36   A    
H110  N9    S    
C168  H87   S    
O28   Zn6   S    
C176  C183  A    
C123  C149  A    
C24   C99   A    
C180  N35   S    
C91   N12   A    
C150  H81   S    
C90   C112  A    
C140  C148  A    
C53   C59   A    
C4    O18   A    
C10   C50   S    
C10   O40   A    
C13   H58   S    
C46   C102  A    
C139  C147  A    
C62   C67   A    
O41   Zn15  S    
O1    Zn16  S    
C29   C83   S    
C12   C43   S    
O15   Zn2   S    
H16   N26   S    
C128  O61   S    
C136  C156  A    
H91   N40   S    
C135  C155  A    
C145  H77   S    
C13   C98   A    
C147  C154  A    
C105  O67   A    
C92   C103  A    
H10   N24   S    
C73   H63   S    
C178  C185  A    
C129  N38   A    
C8    O42   A    
O6    Zn9   S    
C109  H71   S    
C110  H72   S    
C136  C145  A    
C172  H90   S    
C78   C86   S    
H126  N18   S    
C115  C122  A    
C106  H68   S    
O23   Zn12  S    
C68   C106  A    
C93   C104  A    
C17   C77   S    
C26   C43   A    
O8    Zn11  S    
C125  N37   A    
C93   O54   S    
O67   Zn2   S    
C4    C34   S    
C28   C45   A    
C18   C23   A    
C9    O24   A    
H23   N30   S    
C154  C163  S    
C19   C22   A    
C41   C59   A    
C92   N23   A    
C136  N21   S    
C180  C185  A    
C42   C60   A    
H25   N30   S    
C39   C190  S    
H15   N26   S    
C16   O46   A    
C44   C62   A    
C45   C63   A    
O36   Zn10  S    
C111  C120  A    
O39   Zn11  S    
C70   H38   S    
H128  N19   S    
C140  C157  A    
C20   C38   A    
H124  N17   S    
C100  C160  A    
C21   C39   A    
C26   C86   S    
C167  C187  A    
C119  C132  A    
C112  C125  A    
C6    C37   S    
O4    Zn6   S    
C117  C130  A    
C167  H86   S    
C32   C50   A    
O26   Zn8   S    
C129  O62   S    
C37   C54   A    
C135  C144  A    
C121  C171  A    
H14   N25   S    
C150  C154  A    
C15   O44   A    
O1    Zn10  S    
C105  O56   A    
C15   C45   S    
C1    O66   A    
C81   C84   S    
C116  O3    A    
C81   H13   S    
C54   C58   A    
C61   C69   A    
H30   N33   S    
C133  C155  A    
C139  C158  A    
C76   H96   S    
C79   C111  A    
C1    O45   A    
C14   C47   S    
C137  N22   S    
C80   H2    S    
C31   C81   S    
C77   H107  S    
C89   N1    A    
C80   H48   S    
C19   C75   S    
C117  C123  A    
H125  N17   S    
C74   H74   S    
C127  O4    A    
H29   N32   S    
C143  H75   S    
C89   O51   S    
C169  C178  A    
C148  C153  A    
C167  C176  A    
C61   N9    S    
O21   Zn4   S    
C92   O53   S    
C88   O50   S    
