data_mof_unit_pretest_1756.cif
_audit_creation_date              2013-03-05T16:20:22-0500
_audit_creation_method            fapswitch 2.2
_symmetry_space_group_name_H-M    P1
_symmetry_Int_Tables_number       1
_space_group_crystal_system       triclinic
_cell_length_a                    30.880648
_cell_length_b                    29.368796
_cell_length_c                    30.667786
_cell_angle_alpha                 89.882839
_cell_angle_beta                  89.999761
_cell_angle_gamma                 90.07113
_cell_volume                      27813.3774157

loop_
_atom_site_label
_atom_site_type_symbol
_atom_site_description
_atom_site_fract_x
_atom_site_fract_y
_atom_site_fract_z
_atom_type_partial_charge
O1    O     O_R   0.321180 1.000000 0.731010 -0.581279
O2    O     O_R   0.678820 1.000000 0.731010 -0.581204
O3    O     O_R   0.821180 0.500000 0.731010 -0.581059
O4    O     O_R   0.178820 0.500000 0.731010 -0.581185
O5    O     O_R   0.821180 1.000000 0.231010 -0.581751
O6    O     O_R   0.178820 1.000000 0.231010 -0.581688
O7    O     O_R   0.321180 0.500000 0.231010 -0.581744
O8    O     O_R   0.678820 0.500000 0.231010 -0.581639
O9    O     O_R   0.268980 1.000000 0.678820 -0.577340
O10   O     O_R   0.731020 1.000000 0.678820 -0.577340
O11   O     O_R   0.768980 0.500000 0.678820 -0.577398
O12   O     O_R   0.231020 0.500000 0.678820 -0.577350
O13   O     O_R   0.768980 1.000000 0.178820 -0.577699
O14   O     O_R   0.231020 1.000000 0.178820 -0.577801
O15   O     O_R   0.268980 0.500000 0.178820 -0.577703
O16   O     O_R   0.731020 0.500000 0.178820 -0.577786
C1    C     C_R   0.309078 0.999954 0.690633 0.815656
C2    C     C_R   0.690923 0.999967 0.690634 0.815544
C3    C     C_R   0.809076 0.500015 0.690635 0.815281
C4    C     C_R   0.190923 0.499963 0.690634 0.815509
C5    C     C_R   0.809090 0.999744 0.190622 0.815413
C6    C     C_R   0.190910 0.999779 0.190621 0.815272
C7    C     C_R   0.309091 0.500190 0.190619 0.815450
C8    C     C_R   0.690910 0.500191 0.190621 0.815295
O17   O     O_R   0.276100 0.938030 0.776090 -0.563339
O18   O     O_R   0.723900 0.061970 0.776090 -0.563598
O19   O     O_R   0.723900 0.938030 0.776090 -0.566841
O20   O     O_R   0.276100 0.061970 0.776090 -0.567034
O21   O     O_R   0.776100 0.438030 0.776090 -0.565510
O22   O     O_R   0.223900 0.561970 0.776090 -0.563505
O23   O     O_R   0.223900 0.438030 0.776090 -0.566653
O24   O     O_R   0.776100 0.561970 0.776090 -0.565057
O25   O     O_R   0.776100 0.938030 0.276090 -0.564823
O26   O     O_R   0.223900 0.061970 0.276090 -0.565265
O27   O     O_R   0.223900 0.938030 0.276090 -0.564683
O28   O     O_R   0.776100 0.061970 0.276090 -0.565142
O29   O     O_R   0.276100 0.438030 0.276090 -0.566810
O30   O     O_R   0.723900 0.561970 0.276090 -0.565302
O31   O     O_R   0.723900 0.438030 0.276090 -0.564949
O32   O     O_R   0.276100 0.561970 0.276090 -0.563431
O33   O     O_R   0.223900 0.938040 0.723900 -0.564417
O34   O     O_R   0.776100 0.061960 0.723900 -0.564251
O35   O     O_R   0.776100 0.938040 0.723900 -0.565385
O36   O     O_R   0.223900 0.061960 0.723900 -0.565248
O37   O     O_R   0.723900 0.438040 0.723900 -0.566186
O38   O     O_R   0.276100 0.561960 0.723900 -0.564123
O39   O     O_R   0.276100 0.438040 0.723900 -0.565746
O40   O     O_R   0.723900 0.561960 0.723900 -0.563320
O41   O     O_R   0.723900 0.938040 0.223900 -0.566970
O42   O     O_R   0.276100 0.061960 0.223900 -0.562836
O43   O     O_R   0.276100 0.938040 0.223900 -0.566927
O44   O     O_R   0.723900 0.061960 0.223900 -0.562752
O45   O     O_R   0.223900 0.438040 0.223900 -0.565175
O46   O     O_R   0.776100 0.561960 0.223900 -0.566420
O47   O     O_R   0.776100 0.438040 0.223900 -0.563090
O48   O     O_R   0.223900 0.561960 0.223900 -0.564307
C9    C     C_R   0.250007 0.915399 0.749998 0.794525
C10   C     C_R   0.750030 0.084602 0.749965 0.794533
C11   C     C_R   0.750008 0.915399 0.750064 0.783487
C12   C     C_R   0.249955 0.084602 0.750030 0.783516
C13   C     C_R   0.749987 0.415400 0.750019 0.782972
C14   C     C_R   0.250031 0.584601 0.749962 0.794555
C15   C     C_R   0.250005 0.415398 0.750063 0.783500
C16   C     C_R   0.749975 0.584603 0.750010 0.794879
C17   C     C_R   0.749987 0.915399 0.250021 0.782794
C18   C     C_R   0.250048 0.084603 0.249989 0.795641
C19   C     C_R   0.249993 0.915400 0.250042 0.782805
C20   C     C_R   0.749970 0.084601 0.250011 0.795705
C21   C     C_R   0.249968 0.415399 0.250043 0.784229
C22   C     C_R   0.750052 0.584601 0.249987 0.782724
C23   C     C_R   0.749990 0.415398 0.250046 0.795654
C24   C     C_R   0.249989 0.584602 0.249991 0.794299
Cu1   Cu    Cu3+1 0.280900 1.000000 0.780900 0.949821
Cu2   Cu    Cu3+1 0.719100 1.000000 0.780900 0.949767
Cu3   Cu    Cu3+1 0.780900 0.500000 0.780900 0.949633
Cu4   Cu    Cu3+1 0.219100 0.500000 0.780900 0.949973
Cu5   Cu    Cu3+1 0.780900 1.000000 0.280900 0.949773
Cu6   Cu    Cu3+1 0.219100 1.000000 0.280900 0.949784
Cu7   Cu    Cu3+1 0.280900 0.500000 0.280900 0.949596
Cu8   Cu    Cu3+1 0.719100 0.500000 0.280900 0.949634
Cu9   Cu    Cu3+1 0.219090 1.000000 0.719100 0.952626
Cu10  Cu    Cu3+1 0.780910 1.000000 0.719100 0.952664
Cu11  Cu    Cu3+1 0.719090 0.500000 0.719100 0.952876
Cu12  Cu    Cu3+1 0.280910 0.500000 0.719100 0.952561
Cu13  Cu    Cu3+1 0.719090 1.000000 0.219100 0.951630
Cu14  Cu    Cu3+1 0.280910 1.000000 0.219100 0.951534
Cu15  Cu    Cu3+1 0.219090 0.500000 0.219100 0.951771
Cu16  Cu    Cu3+1 0.780910 0.500000 0.219100 0.951762
O49   O     O_R   0.231010 1.000000 0.821180 -0.579678
O50   O     O_R   0.768990 1.000000 0.821180 -0.579716
O51   O     O_R   0.731010 0.500000 0.821180 -0.579904
O52   O     O_R   0.268990 0.500000 0.821180 -0.579485
O53   O     O_R   0.731010 1.000000 0.321180 -0.579457
O54   O     O_R   0.268990 1.000000 0.321180 -0.579450
O55   O     O_R   0.231010 0.500000 0.321180 -0.579698
O56   O     O_R   0.768990 0.500000 0.321180 -0.579706
O57   O     O_R   0.178810 1.000000 0.768990 -0.579913
O58   O     O_R   0.821190 1.000000 0.768990 -0.579893
O59   O     O_R   0.678810 0.500000 0.768990 -0.579666
O60   O     O_R   0.321190 0.500000 0.768990 -0.580096
O61   O     O_R   0.678810 1.000000 0.268990 -0.580115
O62   O     O_R   0.321190 1.000000 0.268990 -0.580102
O63   O     O_R   0.178810 0.500000 0.268990 -0.579881
O64   O     O_R   0.821190 0.500000 0.268990 -0.579838
C25   C     C_R   0.190971 0.000247 0.809211 0.819145
C26   C     C_R   0.809029 0.999808 0.809212 0.819162
C27   C     C_R   0.690968 0.499835 0.809210 0.819188
C28   C     C_R   0.309028 0.499803 0.809214 0.819155
C29   C     C_R   0.690971 0.999835 0.309215 0.819238
C30   C     C_R   0.309029 0.999800 0.309215 0.819256
C31   C     C_R   0.190970 0.499845 0.309212 0.819226
C32   C     C_R   0.809030 0.500213 0.309211 0.819240
C33   C     C_1   0.250035 0.864124 0.749985 -0.191673
C34   C     C_1   0.750078 0.135879 0.749926 -0.191899
C35   C     C_1   0.750028 0.864126 0.750202 -0.196157
C36   C     C_1   0.249859 0.135877 0.750142 -0.196434
C37   C     C_1   0.749961 0.364128 0.750062 -0.194810
C38   C     C_1   0.250093 0.635876 0.749909 -0.191580
C39   C     C_1   0.250010 0.364122 0.750213 -0.196437
C40   C     C_1   0.749934 0.635881 0.750068 -0.193236
C41   C     C_1   0.749970 0.864124 0.250077 -0.195325
C42   C     C_1   0.250116 0.135882 0.249997 -0.193242
C43   C     C_1   0.250000 0.864128 0.250139 -0.195089
C44   C     C_1   0.749913 0.135878 0.250060 -0.192856
C45   C     C_1   0.249919 0.364126 0.250132 -0.196077
C46   C     C_1   0.750158 0.635875 0.250005 -0.195328
C47   C     C_1   0.749958 0.364122 0.250135 -0.192967
C48   C     C_1   0.249963 0.635879 0.250010 -0.192060
C49   C     C_1   0.250056 0.821641 0.749964 0.001605
C50   C     C_1   0.750063 0.178364 0.749950 0.001257
C51   C     C_1   0.750042 0.821645 0.750263 -0.000510
C52   C     C_1   0.249839 0.178359 0.750246 -0.000715
C53   C     C_1   0.749953 0.321647 0.750073 0.002660
C54   C     C_1   0.250106 0.678359 0.749903 0.001727
C55   C     C_1   0.249995 0.321640 0.750304 -0.000904
C56   C     C_1   0.749946 0.678366 0.750141 -0.001873
C57   C     C_1   0.749990 0.821642 0.250118 0.002213
C58   C     C_1   0.250094 0.178366 0.250054 -0.001844
C59   C     C_1   0.250019 0.821647 0.250172 0.002685
C60   C     C_1   0.749896 0.178361 0.250109 -0.001303
C61   C     C_1   0.249913 0.321645 0.250176 -0.000491
C62   C     C_1   0.750173 0.678357 0.250060 0.002324
C63   C     C_1   0.749941 0.321638 0.250169 -0.001502
C64   C     C_1   0.249971 0.678364 0.250055 0.001286
C65   C     C_1   0.250080 0.771244 0.749938 0.001381
C66   C     C_1   0.750016 0.228763 0.750004 0.000411
C67   C     C_1   0.750023 0.771250 0.750262 -0.000977
C68   C     C_1   0.249880 0.228755 0.750324 -0.001917
C69   C     C_1   0.749977 0.271251 0.750046 -0.000096
C70   C     C_1   0.250097 0.728756 0.749918 0.001424
C71   C     C_1   0.249937 0.271243 0.750343 -0.001941
C72   C     C_1   0.749988 0.728763 0.750220 -0.000453
C73   C     C_1   0.750057 0.771244 0.250132 -0.000734
C74   C     C_1   0.250023 0.228763 0.250126 -0.000558
C75   C     C_1   0.250016 0.771251 0.250157 0.000258
C76   C     C_1   0.749902 0.228756 0.250151 0.000464
C77   C     C_1   0.249960 0.271250 0.250167 -0.001080
C78   C     C_1   0.750122 0.728755 0.250113 -0.000731
C79   C     C_1   0.749918 0.271243 0.250171 0.000396
C80   C     C_1   0.249997 0.728763 0.250117 0.000751
C81   C     C_R   0.358503 0.039648 0.641630 0.059190
C82   C     C_R   0.641926 0.960233 0.641359 0.058890
C83   C     C_R   0.857635 0.539692 0.640754 0.058895
C84   C     C_R   0.141983 0.460230 0.641301 0.059131
C85   C     C_R   0.861756 0.039144 0.144864 0.057146
C86   C     C_R   0.138373 0.039214 0.144832 0.056833
C87   C     C_R   0.361708 0.460724 0.145074 0.057281
C88   C     C_R   0.638510 0.460700 0.144757 0.056781
C89   C     C_R   0.341299 0.998741 0.656735 -0.077680
C90   C     C_R   0.658703 0.001167 0.656733 -0.077364
C91   C     C_R   0.841298 0.498760 0.656748 -0.076973
C92   C     C_R   0.158704 0.501166 0.656733 -0.077326
C93   C     C_R   0.841334 0.998691 0.156693 -0.079935
C94   C     C_R   0.158666 0.998748 0.156690 -0.079802
C95   C     C_R   0.341330 0.501181 0.156674 -0.080103
C96   C     C_R   0.658671 0.501220 0.156685 -0.079638
C97   C     C_R   0.351634 0.957785 0.635026 0.152111
C98   C     C_R   0.647969 0.042236 0.635277 0.151744
C99   C     C_R   0.852490 0.457555 0.635937 0.151410
C100  C     C_R   0.147917 0.542251 0.635334 0.151715
C101  C     C_R   0.848654 0.958968 0.131811 0.151780
C102  C     C_R   0.151241 0.959022 0.131821 0.151115
C103  C     C_R   0.348644 0.540840 0.131525 0.151403
C104  C     C_R   0.651137 0.541043 0.131872 0.151231
C105  C     C_R   0.383552 0.958531 0.602344 -0.205280
C106  C     C_R   0.616083 0.041491 0.602577 -0.203846
C107  C     C_R   0.884379 0.458270 0.603228 -0.203950
C108  C     C_R   0.116033 0.541508 0.602631 -0.203722
C109  C     C_R   0.880707 0.959804 0.099261 -0.204126
C110  C     C_R   0.119206 0.959869 0.099260 -0.202548
C111  C     C_R   0.380660 0.539970 0.098958 -0.202410
C112  C     C_R   0.619118 0.540196 0.099301 -0.202522
H1    H     H_    0.393024 0.927016 0.586724 0.163871
H2    H     H_    0.606311 0.073079 0.587159 0.164712
H3    H     H_    0.894497 0.426614 0.588296 0.164747
H4    H     H_    0.106220 0.573105 0.587256 0.164725
H5    H     H_    0.887884 0.929057 0.081187 0.162729
H6    H     H_    0.111945 0.929113 0.081205 0.163817
H7    H     H_    0.387841 0.570691 0.080695 0.163766
H8    H     H_    0.611773 0.571017 0.081291 0.163897
C113  C     C_R   0.404556 0.999534 0.591290 -0.155869
C114  C     C_R   0.595469 0.000387 0.591269 -0.156026
C115  C     C_R   0.904562 0.499472 0.591311 -0.156252
C116  C     C_R   0.095472 0.500390 0.591267 -0.156068
C117  C     C_R   0.904651 0.999756 0.091305 -0.153510
C118  C     C_R   0.095375 0.999831 0.091278 -0.153830
C119  C     C_R   0.404586 0.500047 0.091233 -0.153629
C120  C     C_R   0.595398 0.500143 0.091259 -0.153951
C121  C     C_R   0.389682 0.040071 0.609495 0.135379
C122  C     C_R   0.610742 0.959815 0.609221 0.133356
C123  C     C_R   0.888847 0.540076 0.608649 0.133406
C124  C     C_R   0.110798 0.459814 0.609164 0.133262
C125  C     C_R   0.892858 0.039721 0.112655 0.137535
C126  C     C_R   0.107281 0.039801 0.112610 0.135633
C127  C     C_R   0.392784 0.460110 0.112830 0.135311
C128  C     C_R   0.607419 0.460118 0.112531 0.135399
C129  C     C_3   0.414304 0.077670 0.630928 -0.439859
C130  C     C_3   0.586501 0.921713 0.630421 -0.439229
C131  C     C_3   0.912653 0.578730 0.629279 -0.437944
C132  C     C_3   0.086610 0.421642 0.630311 -0.439267
C133  C     C_3   0.920317 0.073083 0.136852 -0.448872
C134  C     C_3   0.079917 0.073195 0.136783 -0.448631
C135  C     C_3   0.420237 0.426860 0.137211 -0.449447
C136  C     C_3   0.580156 0.426420 0.136653 -0.448188
C137  C     C_3   0.379877 0.077200 0.666326 -0.485860
C138  C     C_3   0.620928 0.922173 0.665818 -0.485741
C139  C     C_3   0.878189 0.578307 0.664641 -0.487898
C140  C     C_3   0.121039 0.422100 0.665707 -0.486182
C141  C     C_3   0.885994 0.072425 0.172350 -0.476905
C142  C     C_3   0.114227 0.072528 0.172293 -0.476817
C143  C     C_3   0.385950 0.427557 0.172742 -0.475432
C144  C     C_3   0.614463 0.427080 0.172165 -0.476852
H9    H     H_    0.446749 0.066689 0.642641 0.194079
H10   H     H_    0.553949 0.932205 0.642206 0.194460
H11   H     H_    0.586984 0.890220 0.610387 0.199026
H12   H     H_    0.414135 0.109388 0.611090 0.199706
H13   H     H_    0.945300 0.568775 0.641263 0.194668
H14   H     H_    0.054045 0.432067 0.642113 0.194482
H15   H     H_    0.087136 0.390181 0.610232 0.198977
H16   H     H_    0.911855 0.609958 0.608757 0.198762
H17   H     H_    0.951825 0.058403 0.147390 0.187915
H18   H     H_    0.077756 0.106444 0.119543 0.199471
H19   H     H_    0.048360 0.058545 0.147317 0.188121
H20   H     H_    0.922585 0.106338 0.119630 0.200039
H21   H     H_    0.422459 0.393563 0.120197 0.199613
H22   H     H_    0.548555 0.440821 0.147207 0.188193
H23   H     H_    0.578094 0.393261 0.119364 0.199505
H24   H     H_    0.451769 0.441620 0.147621 0.188147
H25   H     H_    0.392294 0.065973 0.698644 0.210229
H26   H     H_    0.608407 0.932903 0.698207 0.210136
H27   H     H_    0.641280 0.890981 0.666148 0.199845
H28   H     H_    0.359840 0.108612 0.666854 0.199885
H29   H     H_    0.890785 0.568141 0.697208 0.209911
H30   H     H_    0.108505 0.432760 0.698112 0.210036
H31   H     H_    0.141433 0.390937 0.665991 0.199774
H32   H     H_    0.857502 0.609256 0.664463 0.199583
H33   H     H_    0.897534 0.057360 0.203550 0.211218
H34   H     H_    0.131851 0.105377 0.175498 0.198194
H35   H     H_    0.102630 0.057489 0.203496 0.211203
H36   H     H_    0.868469 0.105285 0.175566 0.198573
H37   H     H_    0.368402 0.394676 0.176186 0.198603
H38   H     H_    0.602822 0.441865 0.203391 0.211134
H39   H     H_    0.632184 0.394318 0.175322 0.198449
H40   H     H_    0.397536 0.442723 0.203834 0.211193
C145  C     C_R   0.141462 0.038458 0.858752 0.060925
C146  C     C_R   0.858429 0.961638 0.859020 0.060999
C147  C     C_R   0.641972 0.461691 0.859524 0.060917
C148  C     C_R   0.359630 0.461666 0.857811 0.061162
C149  C     C_R   0.640270 0.961724 0.357805 0.061218
C150  C     C_R   0.359681 0.961667 0.357761 0.061258
C151  C     C_R   0.141367 0.461700 0.358906 0.060956
C152  C     C_R   0.858394 0.538397 0.358992 0.060993
C153  C     C_R   0.158366 0.998497 0.842251 -0.095636
C154  C     C_R   0.841638 0.001592 0.842242 -0.095698
C155  C     C_R   0.658350 0.501644 0.842227 -0.095941
C156  C     C_R   0.341622 0.501574 0.842264 -0.095951
C157  C     C_R   0.658380 0.001626 0.342263 -0.096011
C158  C     C_R   0.341622 0.001571 0.342264 -0.096007
C159  C     C_R   0.158367 0.501647 0.342244 -0.095697
C160  C     C_R   0.841634 0.498440 0.342248 -0.095664
C161  C     C_R   0.142346 0.956681 0.858751 0.153902
C162  C     C_R   0.857789 0.043416 0.858443 0.153903
C163  C     C_R   0.641736 0.543481 0.857853 0.153769
C164  C     C_R   0.356481 0.543348 0.859775 0.153672
C165  C     C_R   0.643624 0.043407 0.359776 0.153647
C166  C     C_R   0.356431 0.043343 0.359826 0.153589
C167  C     C_R   0.142440 0.543475 0.358571 0.154029
C168  C     C_R   0.857808 0.456619 0.358491 0.153931
C169  C     C_R   0.109806 0.957354 0.891179 -0.200555
C170  C     C_R   0.890333 0.042753 0.890878 -0.200066
C171  C     C_R   0.609196 0.542824 0.890300 -0.199381
C172  C     C_R   0.389048 0.542691 0.892188 -0.199348
C173  C     C_R   0.611049 0.042756 0.392189 -0.199025
C174  C     C_R   0.389001 0.042686 0.392236 -0.198698
C175  C     C_R   0.109889 0.542817 0.391008 -0.200516
C176  C     C_R   0.890348 0.457287 0.390925 -0.200339
H41   H     H_    0.097402 0.925450 0.903876 0.163795
H42   H     H_    0.902840 0.074654 0.903355 0.163879
H43   H     H_    0.596343 0.574728 0.902353 0.164063
H44   H     H_    0.400584 0.574555 0.905652 0.164068
H45   H     H_    0.599587 0.074619 0.405657 0.164054
H46   H     H_    0.400499 0.074549 0.405737 0.164312
H47   H     H_    0.097548 0.574715 0.403582 0.163604
H48   H     H_    0.902871 0.425385 0.403432 0.163711
C177  C     C_R   0.093370 0.999119 0.907017 -0.143037
C178  C     C_R   0.906646 0.000989 0.907000 -0.143185
C179  C     C_R   0.593316 0.501054 0.906960 -0.143437
C180  C     C_R   0.406585 0.500979 0.907068 -0.143202
C181  C     C_R   0.593412 0.001044 0.407063 -0.143458
C182  C     C_R   0.406586 0.000978 0.407067 -0.143481
C183  C     C_R   0.093364 0.501055 0.407009 -0.143260
C184  C     C_R   0.906641 0.499053 0.407006 -0.143218
C185  C     C_R   0.110442 0.038845 0.889682 0.033672
C186  C     C_R   0.889456 0.961261 0.889937 0.033537
C187  C     C_R   0.610918 0.461322 0.890410 0.033562
C188  C     C_R   0.390593 0.461292 0.888794 0.033600
C189  C     C_R   0.609308 0.961356 0.388785 0.033494
C190  C     C_R   0.390642 0.961293 0.388745 0.033281
C191  C     C_R   0.110349 0.461328 0.389829 0.033941
C192  C     C_R   0.889426 0.538779 0.389907 0.033687
C193  C     C_3   0.107980 0.089584 0.891224 -0.425149
C194  C     C_3   0.891760 0.910518 0.891846 -0.425151
C195  C     C_3   0.609149 0.410565 0.892994 -0.425423
C196  C     C_3   0.394399 0.410618 0.889198 -0.426015
C197  C     C_3   0.605366 0.910680 0.389178 -0.425903
C198  C     C_3   0.394511 0.910624 0.389089 -0.426172
C199  C     C_3   0.107772 0.410585 0.391585 -0.424864
C200  C     C_3   0.891724 0.589524 0.391739 -0.424973
C201  C     C_3   0.143663 0.089154 0.855635 0.289656
C202  C     C_3   0.856073 0.910941 0.856260 0.289598
C203  C     C_3   0.644849 0.410983 0.857421 0.290381
C204  C     C_3   0.358734 0.411031 0.853590 0.290712
C205  C     C_3   0.641031 0.911088 0.353570 0.290700
C206  C     C_3   0.358847 0.911035 0.353481 0.290585
C207  C     C_3   0.143457 0.411005 0.355997 0.289445
C208  C     C_3   0.856036 0.589096 0.356154 0.289461
H49   H     H_    0.075965 0.102318 0.879977 0.183880
H50   H     H_    0.923733 0.897632 0.880687 0.184161
H51   H     H_    0.881101 0.897123 0.924051 0.183625
H52   H     H_    0.118601 0.103133 0.923329 0.184474
H53   H     H_    0.619938 0.397793 0.925383 0.184443
H54   H     H_    0.426748 0.399159 0.877707 0.181947
H55   H     H_    0.384125 0.395841 0.920975 0.184942
H56   H     H_    0.577315 0.397055 0.881993 0.182477
H57   H     H_    0.615600 0.895891 0.420951 0.184893
H58   H     H_    0.426875 0.899225 0.377584 0.181839
H59   H     H_    0.384255 0.895790 0.420848 0.184527
H60   H     H_    0.572985 0.899236 0.377684 0.181777
H61   H     H_    0.118362 0.397047 0.423748 0.184406
H62   H     H_    0.881065 0.602806 0.423924 0.184276
H63   H     H_    0.923695 0.602526 0.380558 0.184050
H64   H     H_    0.075729 0.397842 0.380390 0.183883
O65   O     O_R   0.954900 0.964110 0.954900 -0.587280
O66   O     O_R   0.045100 0.035890 0.954900 -0.586570
O67   O     O_R   0.045100 0.964110 0.954900 -0.597605
O68   O     O_R   0.954900 0.035890 0.954900 -0.596782
O69   O     O_R   0.454900 0.464110 0.954900 -0.587592
O70   O     O_R   0.545100 0.535890 0.954900 -0.596196
O71   O     O_R   0.545100 0.464110 0.954900 -0.587714
O72   O     O_R   0.454900 0.535890 0.954900 -0.596438
O73   O     O_R   0.454900 0.964110 0.454900 -0.588081
O74   O     O_R   0.545100 0.035890 0.454900 -0.595881
O75   O     O_R   0.545100 0.964110 0.454900 -0.587606
O76   O     O_R   0.454900 0.035890 0.454900 -0.595432
O77   O     O_R   0.954900 0.464110 0.454900 -0.597207
O78   O     O_R   0.045100 0.535890 0.454900 -0.597136
O79   O     O_R   0.045100 0.464110 0.454900 -0.586584
O80   O     O_R   0.954900 0.535890 0.454900 -0.586493
C209  C     C_R   0.939965 0.000119 0.940022 0.852054
C210  C     C_R   0.060038 0.999932 0.940025 0.851971
C211  C     C_R   0.439949 0.500117 0.940039 0.852027
C212  C     C_R   0.560024 0.500149 0.940010 0.852114
C213  C     C_R   0.439951 0.000117 0.440038 0.852743
C214  C     C_R   0.560047 0.000148 0.440036 0.852755
C215  C     C_R   0.939966 0.499901 0.440021 0.852721
C216  C     C_R   0.060036 0.500150 0.440023 0.852660
O81   O     O_R   0.454900 0.964130 0.545070 -0.595170
O82   O     O_R   0.545100 0.035870 0.545070 -0.594340
O83   O     O_R   0.545100 0.964130 0.545070 -0.585704
O84   O     O_R   0.454900 0.035870 0.545070 -0.584710
O85   O     O_R   0.954900 0.464130 0.545070 -0.594228
O86   O     O_R   0.045100 0.535870 0.545070 -0.594331
O87   O     O_R   0.045100 0.464130 0.545070 -0.585681
O88   O     O_R   0.954900 0.535870 0.545070 -0.585806
O89   O     O_R   0.954900 0.964130 0.045070 -0.592391
O90   O     O_R   0.045100 0.035870 0.045070 -0.587001
O91   O     O_R   0.045100 0.964130 0.045070 -0.591554
O92   O     O_R   0.954900 0.035870 0.045070 -0.586010
O93   O     O_R   0.454900 0.464130 0.045070 -0.586976
O94   O     O_R   0.545100 0.535870 0.045070 -0.591400
O95   O     O_R   0.545100 0.464130 0.045070 -0.587129
O96   O     O_R   0.454900 0.535870 0.045070 -0.591601
C217  C     C_R   0.439930 0.999902 0.560100 0.838476
C218  C     C_R   0.560078 0.000048 0.560095 0.838391
C219  C     C_R   0.939933 0.499897 0.560109 0.838605
C220  C     C_R   0.060079 0.500048 0.560094 0.838606
C221  C     C_R   0.939960 0.999925 0.060101 0.838560
C222  C     C_R   0.060047 0.999957 0.060094 0.838477
C223  C     C_R   0.439942 0.499989 0.060083 0.838474
C224  C     C_R   0.560055 0.500023 0.060088 0.838488
Cu17  Cu    Cu3+1 1.000000 0.957530 0.999990 0.935561
Cu18  Cu    Cu3+1 0.000000 0.042470 0.999990 0.935631
Cu19  Cu    Cu3+1 0.500000 0.457530 0.999990 0.934043
Cu20  Cu    Cu3+1 0.500000 0.542470 0.999990 0.937371
Cu21  Cu    Cu3+1 0.500000 0.957530 0.499990 0.932803
Cu22  Cu    Cu3+1 0.500000 0.042470 0.499990 0.936225
Cu23  Cu    Cu3+1 1.000000 0.457530 0.499990 0.934192
Cu24  Cu    Cu3+1 1.000000 0.542470 0.499990 0.934142
C225  C     C_3   0.330661 0.913359 0.647772 -0.858095
H65   H     H_    0.343217 0.884524 0.628120 0.229264
H66   H     H_    0.337195 0.906030 0.682694 0.226625
H67   H     H_    0.295137 0.915490 0.642620 0.239203
C226  C     C_3   0.668506 0.086747 0.648294 -0.857760
H68   H     H_    0.661865 0.093647 0.683248 0.226677
H69   H     H_    0.704056 0.085039 0.643175 0.238977
H70   H     H_    0.655701 0.115652 0.628787 0.229630
C227  C     C_3   0.832405 0.412980 0.649623 -0.856558
H71   H     H_    0.845486 0.383991 0.630534 0.229526
H72   H     H_    0.839133 0.406568 0.684671 0.227737
H73   H     H_    0.796835 0.414241 0.644507 0.238581
C228  C     C_3   0.168397 0.586772 0.648411 -0.857735
H74   H     H_    0.161742 0.593614 0.683372 0.226892
H75   H     H_    0.203950 0.585118 0.643294 0.238816
H76   H     H_    0.155560 0.615686 0.628939 0.229623
C229  C     C_3   0.824503 0.915414 0.141164 -0.852401
H77   H     H_    0.835287 0.887297 0.119585 0.228024
H78   H     H_    0.830071 0.904888 0.175509 0.224078
H79   H     H_    0.789296 0.920640 0.135886 0.242711
C230  C     C_3   0.175255 0.915452 0.141202 -0.850933
H80   H     H_    0.210479 0.920647 0.135932 0.242813
H81   H     H_    0.169643 0.904948 0.175549 0.223871
H82   H     H_    0.164391 0.887333 0.119632 0.228568
C231  C     C_3   0.324542 0.584385 0.140619 -0.852206
H83   H     H_    0.335350 0.612466 0.118866 0.228700
H84   H     H_    0.289329 0.579099 0.135380 0.242852
H85   H     H_    0.330132 0.595002 0.174897 0.223163
C232  C     C_3   0.675031 0.584694 0.141316 -0.851722
H86   H     H_    0.710273 0.579716 0.136077 0.242612
H87   H     H_    0.664116 0.612868 0.119763 0.228545
H88   H     H_    0.669362 0.594984 0.175668 0.223987
C233  C     C_3   0.159354 0.911881 0.842224 -0.855709
H89   H     H_    0.194706 0.909630 0.848459 0.233228
H90   H     H_    0.143342 0.882579 0.858568 0.229014
H91   H     H_    0.153412 0.909162 0.806615 0.232255
C234  C     C_3   0.840904 0.088210 0.841601 -0.855861
H92   H     H_    0.846854 0.090791 0.805974 0.232413
H93   H     H_    0.805557 0.090587 0.847819 0.232961
H94   H     H_    0.856996 0.117518 0.857742 0.229053
C235  C     C_3   0.658156 0.588275 0.840422 -0.854627
H95   H     H_    0.652170 0.590263 0.804762 0.233397
H96   H     H_    0.641763 0.617591 0.856180 0.229242
H97   H     H_    0.693482 0.591236 0.846602 0.231893
C236  C     C_3   0.338278 0.588094 0.844272 -0.854402
H98   H     H_    0.353548 0.617370 0.861247 0.229295
H99   H     H_    0.344086 0.591995 0.808727 0.231003
H100  H     H_    0.302891 0.589145 0.850594 0.234372
C237  C     C_3   0.661940 0.088148 0.344273 -0.854373
H101  H     H_    0.656143 0.092051 0.308729 0.230910
H102  H     H_    0.646745 0.117428 0.361249 0.229303
H103  H     H_    0.697330 0.089192 0.350596 0.234397
C238  C     C_3   0.338176 0.088085 0.344376 -0.854651
H104  H     H_    0.353413 0.117360 0.361383 0.229223
H105  H     H_    0.343976 0.092039 0.308835 0.230928
H106  H     H_    0.302788 0.089084 0.350702 0.234380
C239  C     C_3   0.159560 0.588264 0.341854 -0.855672
H107  H     H_    0.153628 0.590968 0.306233 0.232335
H108  H     H_    0.143619 0.617574 0.358072 0.229079
H109  H     H_    0.194918 0.590511 0.348081 0.233069
C240  C     C_3   0.840949 0.411822 0.341698 -0.855778
H110  H     H_    0.857050 0.382516 0.357877 0.228991
H111  H     H_    0.805602 0.409315 0.347910 0.232958
H112  H     H_    0.846909 0.409365 0.306076 0.232486
C241  C     C_3   0.128863 0.107324 0.811143 -0.805020
H113  H     H_    0.153613 0.099625 0.785945 0.230876
H114  H     H_    0.097722 0.091465 0.801119 0.221581
H115  H     H_    0.124375 0.144786 0.812836 0.232233
C242  C     C_3   0.870813 0.892570 0.811895 -0.805114
H116  H     H_    0.902001 0.908289 0.801755 0.221614
H117  H     H_    0.875188 0.855099 0.813851 0.232305
H118  H     H_    0.846084 0.900265 0.786646 0.230629
C243  C     C_3   0.812298 0.891860 0.871362 -0.805796
H119  H     H_    0.786926 0.899609 0.846782 0.230144
H120  H     H_    0.814554 0.854355 0.875394 0.232540
H121  H     H_    0.802426 0.907033 0.903010 0.221616
C244  C     C_3   0.187384 0.108431 0.870594 -0.806251
H122  H     H_    0.197295 0.093417 0.902359 0.221753
H123  H     H_    0.212780 0.100658 0.846078 0.229858
H124  H     H_    0.185024 0.145944 0.874340 0.232443
C245  C     C_3   0.688816 0.392723 0.872786 -0.805100
H125  H     H_    0.698557 0.408542 0.904206 0.221695
H126  H     H_    0.686922 0.355250 0.877378 0.232204
H127  H     H_    0.714103 0.400409 0.848078 0.230772
C246  C     C_3   0.374012 0.394526 0.808738 -0.805717
H128  H     H_    0.404694 0.411601 0.799050 0.220808
H129  H     H_    0.379547 0.357186 0.809661 0.231470
H130  H     H_    0.349039 0.402120 0.783704 0.232792
C247  C     C_3   0.315516 0.390114 0.868088 -0.807169
H131  H     H_    0.289922 0.397912 0.843762 0.228324
H132  H     H_    0.318812 0.352582 0.870960 0.232731
H133  H     H_    0.305247 0.403902 0.900189 0.221804
C248  C     C_3   0.630312 0.391777 0.813286 -0.807055
H134  H     H_    0.654943 0.399523 0.787935 0.230094
H135  H     H_    0.626382 0.354260 0.815709 0.232275
H136  H     H_    0.598933 0.406870 0.802959 0.220851
C249  C     C_3   0.684194 0.890151 0.368063 -0.807155
H137  H     H_    0.709808 0.897942 0.343734 0.228293
H138  H     H_    0.694504 0.903932 0.400164 0.221812
H139  H     H_    0.680797 0.852620 0.370930 0.232713
C250  C     C_3   0.374145 0.894608 0.308608 -0.805523
H140  H     H_    0.404803 0.911742 0.298938 0.220727
H141  H     H_    0.379731 0.857275 0.309488 0.231663
H142  H     H_    0.349160 0.902196 0.283583 0.232832
C251  C     C_3   0.315653 0.890042 0.367954 -0.806544
H143  H     H_    0.290048 0.897842 0.343639 0.228219
H144  H     H_    0.318991 0.852510 0.370777 0.232939
H145  H     H_    0.305368 0.903772 0.400073 0.221834
C252  C     C_3   0.625708 0.894601 0.308713 -0.805636
H146  H     H_    0.595076 0.911698 0.299025 0.220716
H147  H     H_    0.650705 0.902185 0.283681 0.232808
H148  H     H_    0.620064 0.857264 0.309628 0.231623
C253  C     C_3   0.187133 0.391737 0.371039 -0.805754
H149  H     H_    0.197087 0.406776 0.402732 0.221769
H150  H     H_    0.184683 0.354227 0.374960 0.232544
H151  H     H_    0.212544 0.399487 0.346481 0.229872
C254  C     C_3   0.812260 0.608021 0.371225 -0.806074
H152  H     H_    0.786889 0.600269 0.346657 0.230212
H153  H     H_    0.802387 0.592739 0.402897 0.221749
H154  H     H_    0.814514 0.645521 0.375201 0.232333
C255  C     C_3   0.870774 0.607620 0.311759 -0.804898
H155  H     H_    0.901966 0.592015 0.301648 0.221662
H156  H     H_    0.846048 0.599915 0.286521 0.230495
H157  H     H_    0.875139 0.645098 0.313654 0.232488
C256  C     C_3   0.128618 0.392821 0.311580 -0.805412
H158  H     H_    0.153394 0.400499 0.286354 0.230859
H159  H     H_    0.124028 0.355362 0.313433 0.232117
H160  H     H_    0.097521 0.408686 0.301481 0.221593

loop_
_geom_bond_atom_site_label_1
_geom_bond_atom_site_label_2
_geom_bond_distance
_ccdc_geom_bond_type
C227  H72   1.110484 S    
C143  H40   1.112178 S    
O83   Cu21  1.972053 S    
C144  H39   1.111587 S    
O29   C21   1.316019 A    
C50   C66   1.480162 S    
C229  H77   1.110702 S    
C154  C162  1.416115 A    
C68   C71   1.247813 T    
C101  C229  1.506922 S    
C37   C53   1.247618 T    
O1    Cu1   1.971837 S    
O34   C10   1.316350 A    
O24   Cu3   1.831839 S    
Cu7   Cu15  2.689856 S    
C134  H18   1.111538 S    
C139  H29   1.112217 S    
O37   Cu11  1.831554 S    
C240  H110  1.110621 S    
C241  H115  1.110400 S    
C147  C155  1.382015 A    
C195  H56   1.112312 S    
O73   C213  1.240310 A    
O17   C9    1.316120 A    
O38   C14   1.316252 A    
C95   C103  1.413576 A    
C240  H112  1.110367 S    
C169  C177  1.414931 A    
C239  H109  1.110357 S    
C193  C201  1.551043 S    
O12   Cu12  1.974724 S    
C208  C254  1.533928 S    
C237  H101  1.110401 S    
C113  C121  1.394325 A    
O47   Cu16  1.831188 S    
C243  H120  1.110400 S    
C126  C134  1.493497 S    
C82   C138  1.492410 S    
C200  H63   1.112051 S    
C110  C118  1.407081 A    
O48   C24   1.316188 A    
C18   C42   1.505999 S    
O3    C3    1.293384 A    
C64   C80   1.480156 S    
C27   C155  1.429331 S    
C49   C65   1.480108 S    
O57   C25   1.289419 A    
C118  C126  1.393967 A    
C151  C159  1.381724 A    
O45   C21   1.316082 A    
C226  H69   1.110197 S    
C85   C141  1.492529 S    
Cu10  O58   1.971845 S    
C132  H14   1.112310 S    
O59   C27   1.289347 A    
C62   C78   1.480127 S    
C83   C139  1.492419 S    
O20   Cu1   1.831839 S    
Cu1   Cu9   2.689856 S    
C56   C72   1.480117 S    
C2    C90   1.439461 S    
C16   C40   1.505995 S    
C149  C205  1.493242 S    
C86   C94   1.391914 A    
O60   C28   1.289496 A    
C178  C186  1.384873 A    
O51   C27   1.289862 A    
O36   Cu9   1.831783 S    
C129  H9    1.112315 S    
C250  H141  1.110399 S    
C233  H91   1.110373 S    
C82   C122  1.378014 A    
C232  H86   1.109998 S    
O10   Cu10  1.974724 S    
C31   C159  1.429332 S    
C236  H100  1.110319 S    
C128  C136  1.493465 S    
C88   C144  1.492522 S    
O22   Cu4   1.831473 S    
C136  H23   1.111526 S    
O46   C22   1.316326 A    
C231  H85   1.110537 S    
O12   C4    1.290134 A    
C170  C178  1.414828 A    
O13   C5    1.290440 A    
C47   C63   1.247687 T    
C48   C64   1.247722 T    
O14   Cu14  1.974724 S    
C172  C180  1.414767 A    
C60   C76   1.480058 S    
Cu15  O63   1.971837 S    
C168  C240  1.506070 S    
C61   C77   1.480032 S    
O95   C224  1.239909 A    
C4    C92   1.439457 S    
C90   C98   1.412582 A    
C99   C227  1.506775 S    
C5    C93   1.440595 S    
C246  H129  1.110385 S    
C237  H103  1.110332 S    
C205  C249  1.533999 S    
O5    Cu5   1.971837 S    
C8    C96   1.440537 S    
O73   Cu21  1.971997 S    
O77   C215  1.234922 A    
O7    Cu7   1.971837 S    
C232  H88   1.110525 S    
C109  H5    1.083664 S    
C96   C104  1.413535 A    
C111  C119  1.407114 A    
C179  C212  1.443885 S    
C19   C43   1.505791 S    
O28   C20   1.315922 A    
Cu6   O54   1.974724 S    
O96   C223  1.237974 A    
O94   Cu20  1.971837 S    
O27   Cu6   1.832441 S    
O58   C26   1.289403 A    
C178  C209  1.443898 S    
C169  H41   1.083480 S    
O31   Cu8   1.832441 S    
Cu2   O50   1.974724 S    
C121  C129  1.493453 S    
Cu8   Cu16  2.689845 S    
Cu21  Cu22  2.494583 S    
O46   Cu16  1.832149 S    
C114  C218  1.452101 S    
C131  H13   1.112302 S    
O23   Cu4   1.832441 S    
C250  H140  1.111620 S    
O10   C2    1.290139 A    
C229  H79   1.109995 S    
C167  C175  1.414289 A    
C204  C247  1.533969 S    
C112  H8    1.083648 S    
C234  H92   1.110368 S    
C233  H90   1.110619 S    
C104  C232  1.506952 S    
O33   C9    1.315992 A    
C148  C188  1.348008 A    
C149  C189  1.347915 A    
C142  H35   1.112186 S    
C188  C196  1.493040 S    
C242  H117  1.110399 S    
O13   Cu13  1.974716 S    
C151  C191  1.347915 A    
C102  C110  1.405807 A    
C251  H144  1.110405 S    
C225  H65   1.110693 S    
C237  H102  1.110627 S    
O52   C28   1.289739 A    
O61   C29   1.289498 A    
C130  C138  1.519510 S    
O47   C23   1.315942 A    
C194  C202  1.551004 S    
C228  H74   1.110492 S    
C198  C206  1.551005 S    
C196  H54   1.112065 S    
C87   C127  1.378092 A    
C94   C102  1.413649 A    
C187  C195  1.493526 S    
Cu17  Cu18  2.494583 S    
C177  C185  1.384808 A    
C133  H17   1.112434 S    
C238  H104  1.110621 S    
O85   C219  1.238104 A    
C150  C206  1.493242 S    
O83   C218  1.240879 A    
C106  C114  1.408050 A    
C22   C46   1.505859 S    
C144  H38   1.112172 S    
O63   C31   1.289416 A    
C84   C124  1.378015 A    
C130  H11   1.111549 S    
C202  C243  1.533937 S    
C116  C220  1.452119 S    
C98   C226  1.506811 S    
C88   C128  1.378000 A    
O6    Cu6   1.971845 S    
O81   C217  1.238185 A    
C43   C59   1.247618 T    
C190  C198  1.493060 S    
C41   C57   1.247656 T    
C73   C78   1.247847 T    
O70   Cu20  1.972540 S    
C186  C194  1.493099 S    
C45   C61   1.247619 T    
C167  C239  1.506031 S    
C51   C67   1.480034 S    
C163  C235  1.506337 S    
C59   C75   1.480071 S    
O3    Cu3   1.971837 S    
O89   Cu17  1.972386 S    
C65   C70   1.247815 T    
C203  C248  1.534321 S    
O35   C11   1.315920 A    
C81   C89   1.391498 A    
C168  C176  1.414071 A    
Cu5   Cu13  2.689856 S    
C152  C160  1.381893 A    
C254  H152  1.110688 S    
O74   C214  1.235258 A    
C115  C123  1.394362 A    
C198  H58   1.112077 S    
C145  C201  1.493192 S    
C89   C97   1.412836 A    
Cu16  O64   1.971845 S    
C255  H155  1.111616 S    
O20   C12   1.315866 A    
O21   C13   1.316089 A    
O93   C223  1.240009 A    
C174  H46   1.083480 S    
O23   C15   1.316146 A    
O84   C217  1.240478 A    
O24   C16   1.315879 A    
O78   C216  1.235243 A    
O64   C32   1.289402 A    
C9    C33   1.505875 S    
C156  C164  1.416146 A    
C235  H96   1.110783 S    
C157  C165  1.416275 A    
C108  C116  1.408066 A    
O79   C216  1.240170 A    
C247  H132  1.110392 S    
C159  C167  1.416218 A    
C234  H94   1.110621 S    
C32   C160  1.429287 S    
C244  H122  1.111608 S    
C98   C106  1.405631 A    
C194  H50   1.112047 S    
C15   C39   1.505909 S    
C36   C52   1.247657 T    
O27   C19   1.316304 A    
C150  C158  1.381901 A    
C148  C156  1.381880 A    
C184  C192  1.384860 A    
C243  H119  1.110698 S    
O32   Cu7   1.831839 S    
C149  C157  1.381801 A    
O45   Cu15  1.831554 S    
O43   C19   1.315777 A    
O36   C12   1.316276 A    
C225  H67   1.110175 S    
C245  H126  1.110689 S    
C164  C172  1.414167 A    
O91   C222  1.238250 A    
C113  C217  1.451971 S    
C85   C125  1.377803 A    
C191  C199  1.493147 S    
C228  H76   1.110689 S    
C84   C92   1.391680 A    
C179  C187  1.385179 A    
C173  H45   1.083490 S    
Cu14  O62   1.971845 S    
C175  H47   1.083476 S    
C230  H82   1.110704 S    
C145  C153  1.382005 A    
C176  H48   1.083481 S    
O31   C23   1.316181 A    
O32   C24   1.315966 A    
O65   Cu17  1.971997 S    
C106  H2    1.083582 S    
O68   C209  1.235044 A    
O79   Cu23  1.971647 S    
C29   C157  1.429403 S    
C134  H19   1.112440 S    
C139  H32   1.111610 S    
C199  H61   1.112045 S    
C241  H114  1.111612 S    
C123  C131  1.493418 S    
O1    C1    1.293446 A    
O40   Cu11  1.831783 S    
C25   C153  1.429261 S    
O14   C6    1.290429 A    
C248  H135  1.110697 S    
C146  C202  1.493174 S    
O25   Cu5   1.832076 S    
O7    C7    1.293744 A    
C171  H43   1.083701 S    
O8    C8    1.293687 A    
O81   Cu21  1.972386 S    
C203  C245  1.534234 S    
O17   Cu1   1.832076 S    
O67   Cu17  1.971647 S    
C201  C244  1.533938 S    
C12   C36   1.505908 S    
C93   C101  1.413753 A    
C141  H36   1.111593 S    
C195  C203  1.550993 S    
C134  C142  1.519491 S    
C235  H95   1.110543 S    
C254  H154  1.110404 S    
O49   C25   1.289779 A    
C10   C34   1.505947 S    
C201  C241  1.533971 S    
C152  C192  1.348078 A    
C58   C74   1.480113 S    
C246  H128  1.111608 S    
C119  C223  1.450769 S    
O53   C29   1.289750 A    
C120  C224  1.450879 S    
O30   C22   1.315793 A    
C226  H68   1.110496 S    
O74   Cu22  1.972540 S    
O90   Cu18  1.971837 S    
C34   C50   1.247724 T    
C170  H42   1.083478 S    
Cu4   Cu12  2.689845 S    
O67   C210  1.234712 A    
C199  C207  1.550981 S    
C101  C109  1.405931 A    
C135  H21   1.111535 S    
C202  C242  1.533984 S    
O11   C3    1.290127 A    
C87   C95   1.392078 A    
O77   Cu23  1.971997 S    
O88   C219  1.240680 A    
C244  H124  1.110403 S    
O78   Cu24  1.972540 S    
O28   Cu5   1.831839 S    
O39   C15   1.315992 A    
C252  H146  1.111631 S    
C147  C187  1.347929 A    
C238  H106  1.110324 S    
C99   C107  1.405792 A    
C189  C197  1.493120 S    
C150  C190  1.348010 A    
C107  C115  1.408061 A    
C255  H157  1.110402 S    
C97   C105  1.405845 A    
C155  C163  1.416514 A    
C132  C140  1.519513 S    
C88   C96   1.391953 A    
O82   C218  1.237850 A    
C105  C113  1.407881 A    
C236  H99   1.110388 S    
C11   C35   1.505836 S    
O18   Cu2   1.831473 S    
C100  C108  1.405630 A    
C125  C133  1.493520 S    
C86   C126  1.377919 A    
C151  C207  1.493164 S    
C198  H59   1.112035 S    
C109  C117  1.407014 A    
C231  H84   1.109983 S    
C183  C191  1.384920 A    
C136  H22   1.112425 S    
C104  C112  1.405750 A    
C17   C41   1.505864 S    
C197  H60   1.112091 S    
C83   C91   1.391512 A    
O75   C214  1.240110 A    
C173  C181  1.414725 A    
C92   C100  1.412573 A    
O6    C6    1.293700 A    
C232  H87   1.110697 S    
C143  H37   1.111594 S    
C117  C125  1.393981 A    
C86   C142  1.492539 S    
Cu11  O59   1.971837 S    
C256  H158  1.110665 S    
C229  H78   1.110534 S    
C23   C47   1.505928 S    
C245  H127  1.110747 S    
C138  H27   1.111608 S    
Cu2   Cu10  2.689845 S    
O43   Cu14  1.831188 S    
C135  C143  1.519522 S    
C240  H111  1.110370 S    
C147  C203  1.493535 S    
C195  H53   1.112288 S    
C13   C37   1.505782 S    
O50   C26   1.289795 A    
C74   C77   1.247793 T    
C105  H1    1.083592 S    
C53   C69   1.480079 S    
C193  H52   1.112035 S    
C163  C171  1.414272 A    
C230  H80   1.109999 S    
C166  C238  1.506066 S    
C81   C121  1.377809 A    
C46   C62   1.247652 T    
C39   C55   1.247657 T    
C127  C135  1.493460 S    
C204  C246  1.533920 S    
C152  C208  1.493174 S    
O5    C5    1.293704 A    
Cu12  O60   1.971845 S    
C131  H16   1.111552 S    
C160  C168  1.416058 A    
Cu7   O55   1.974716 S    
C242  H116  1.111615 S    
C140  H31   1.111616 S    
O29   Cu7   1.832076 S    
C124  C132  1.493392 S    
C82   C90   1.391670 A    
C148  C204  1.493215 S    
C235  H97   1.110569 S    
O86   C220  1.237846 A    
C119  C127  1.393912 A    
O39   Cu12  1.831188 S    
O18   C10   1.315794 A    
C42   C58   1.247727 T    
O2    Cu2   1.971845 S    
O96   Cu20  1.971491 S    
C205  C252  1.533962 S    
O76   Cu22  1.972212 S    
C137  H28   1.111610 S    
O95   Cu19  1.972053 S    
O22   C14   1.315854 A    
C171  C179  1.415031 A    
O69   C211  1.240319 A    
C184  C215  1.443909 S    
C117  C221  1.450740 S    
C172  H44   1.083468 S    
C196  C204  1.550996 S    
C110  H6    1.083656 S    
C252  H147  1.110704 S    
C180  C211  1.443826 S    
C138  H26   1.112216 S    
C158  C166  1.416170 A    
C250  H142  1.110694 S    
O76   C213  1.235057 A    
C44   C60   1.247685 T    
C3    C91   1.439353 S    
C28   C156  1.429380 S    
C252  H148  1.110409 S    
C63   C79   1.480057 S    
O66   Cu18  1.972540 S    
C238  H105  1.110395 S    
C164  C236  1.506049 S    
C153  C161  1.415956 A    
C91   C99   1.412610 A    
O71   C212  1.240155 A    
Cu1   O49   1.974716 S    
C200  C208  1.551024 S    
C255  H156  1.110649 S    
Cu3   Cu11  2.689856 S    
C182  C213  1.443819 S    
C146  C154  1.381836 A    
C55   C71   1.480087 S    
O37   C13   1.315995 A    
O56   C32   1.289791 A    
O54   C30   1.289744 A    
C14   C38   1.505876 S    
O66   C210  1.240701 A    
O94   C224  1.238137 A    
O75   Cu21  1.971647 S    
O11   Cu11  1.974716 S    
O30   Cu8   1.831473 S    
C246  H130  1.110689 S    
C133  C141  1.519469 S    
O16   Cu16  1.974724 S    
O19   C11   1.316180 A    
C40   C56   1.247722 T    
C30   C158  1.429391 S    
C141  H33   1.112182 S    
O2    C2    1.293422 A    
O72   Cu20  1.972212 S    
C197  C205  1.550981 S    
Cu19  Cu20  2.494583 S    
O34   Cu10  1.832149 S    
C20   C44   1.505930 S    
C227  H71   1.110685 S    
O25   C17   1.316084 A    
C35   C51   1.247614 T    
C7    C95   1.440652 S    
C103  C231  1.506992 S    
C166  C174  1.414168 A    
C249  H137  1.110641 S    
O41   C17   1.316042 A    
C24   C48   1.505949 S    
O82   Cu22  1.971837 S    
O44   Cu13  1.831783 S    
C146  C186  1.348013 A    
C111  H7    1.083663 S    
C251  H143  1.110632 S    
C242  H118  1.110649 S    
C136  C144  1.519498 S    
C1    C89   1.439550 S    
O89   C221  1.238415 A    
C85   C93   1.391805 A    
C66   C69   1.247833 T    
C247  H131  1.110630 S    
C234  H93   1.110364 S    
O85   Cu23  1.972386 S    
O40   C16   1.316292 A    
C239  H108  1.110620 S    
C194  H51   1.112048 S    
C181  C189  1.384886 A    
C33   C49   1.247686 T    
C131  C139  1.519482 S    
C142  H34   1.111598 S    
O21   Cu3   1.832076 S    
C176  C184  1.414862 A    
Cu23  Cu24  2.494583 S    
O80   Cu24  1.972212 S    
C132  H15   1.111553 S    
O93   Cu19  1.972386 S    
C100  C228  1.506821 S    
Cu8   O56   1.974724 S    
O19   Cu2   1.832441 S    
C180  C188  1.384818 A    
C253  H149  1.111611 S    
O71   Cu19  1.971647 S    
C145  C185  1.348163 A    
O44   C20   1.316205 A    
O87   Cu23  1.972053 S    
Cu6   Cu14  2.689845 S    
O15   C7    1.290429 A    
C177  C210  1.443909 S    
O33   Cu9   1.831554 S    
C228  H75   1.110197 S    
C112  C120  1.407149 A    
C116  C124  1.394295 A    
O86   Cu24  1.971837 S    
C114  C122  1.394286 A    
C197  H57   1.112042 S    
C129  H12   1.111551 S    
O26   C18   1.315693 A    
C6    C94   1.440581 S    
C162  C234  1.506061 S    
O88   Cu24  1.971491 S    
C81   C137  1.492398 S    
C183  C216  1.443887 S    
C230  H81   1.110539 S    
C175  C183  1.414764 A    
C165  C237  1.506054 S    
C57   C73   1.480129 S    
C52   C68   1.480084 S    
O41   Cu13  1.831554 S    
O70   C212  1.235254 A    
C130  H10   1.112309 S    
C249  H138  1.111619 S    
O68   Cu18  1.972212 S    
C83   C123  1.377845 A    
C181  C214  1.443810 S    
O48   Cu15  1.831783 S    
C199  H64   1.112048 S    
C182  C190  1.384829 A    
C241  H113  1.110644 S    
C243  H121  1.111613 S    
O72   C211  1.235055 A    
C162  C170  1.414159 A    
C193  H49   1.112047 S    
C174  C182  1.414777 A    
C207  C256  1.533985 S    
C239  H107  1.110370 S    
C84   C140  1.492421 S    
C115  C219  1.452178 S    
O42   C18   1.316467 A    
C108  H4    1.083584 S    
C161  C233  1.506102 S    
Cu4   O52   1.974724 S    
C140  H30   1.112220 S    
O9    C1    1.290158 A    
C253  H150  1.110401 S    
C21   C45   1.505837 S    
C254  H153  1.111609 S    
O38   Cu12  1.832149 S    
C248  H136  1.111873 S    
C225  H66   1.110496 S    
O87   C220  1.240890 A    
C165  C173  1.414294 A    
C227  H73   1.110216 S    
Cu13  O61   1.971837 S    
Cu5   O53   1.974716 S    
O15   Cu15  1.974716 S    
C245  H125  1.111868 S    
O92   C221  1.239566 A    
C196  H55   1.112022 S    
O84   Cu22  1.971491 S    
O69   Cu19  1.971997 S    
C249  H139  1.110414 S    
C137  H25   1.112215 S    
C54   C70   1.480109 S    
C107  H3    1.083572 S    
C75   C80   1.247830 T    
C206  C250  1.533945 S    
C76   C79   1.247778 T    
C185  C193  1.493042 S    
C38   C54   1.247683 T    
O80   C215  1.240496 A    
C87   C143  1.492532 S    
C103  C111  1.405645 A    
O4    C4    1.293421 A    
Cu3   O51   1.974716 S    
C135  H24   1.112431 S    
C226  H70   1.110690 S    
C251  H145  1.111615 S    
C122  C130  1.493383 S    
C247  H133  1.111598 S    
C256  H159  1.110400 S    
C67   C72   1.247794 T    
C200  H62   1.112043 S    
C244  H123  1.110672 S    
O55   C31   1.289789 A    
O26   Cu6   1.831473 S    
C26   C154  1.429312 S    
C233  H89   1.110360 S    
C256  H160  1.111612 S    
Cu9   O57   1.971837 S    
C102  C230  1.506956 S    
C208  C255  1.533987 S    
C207  C253  1.533945 S    
C206  C251  1.533985 S    
O91   Cu17  1.972053 S    
C118  C222  1.450798 S    
C236  H98   1.110611 S    
O90   C222  1.239758 A    
C253  H151  1.110701 S    
O16   C8    1.290419 A    
O4    Cu4   1.971845 S    
O62   C30   1.289500 A    
O42   Cu14  1.832149 S    
C97   C225  1.506786 S    
C120  C128  1.393958 A    
C231  H83   1.110701 S    
C129  C137  1.519480 S    
O9    Cu9   1.974716 S    
O8    Cu8   1.971845 S    
O35   Cu10  1.831188 S    
C192  C200  1.493089 S    
C248  H134  1.110660 S    
O65   C209  1.240370 A    
C161  C169  1.413942 A    
O92   Cu18  1.971491 S    
C133  H20   1.111533 S    
