data_mof_unit_pretest_1737.cif
_audit_creation_date              2012-12-10T18:24:05-0500
_audit_creation_method            fapswitch 2.2
_symmetry_space_group_name_H-M    P1
_symmetry_Int_Tables_number       1
_space_group_crystal_system       triclinic
_cell_length_a                    16.091746
_cell_length_b                    16.090225
_cell_length_c                    16.089917
_cell_angle_alpha                 95.870609
_cell_angle_beta                  84.396885
_cell_angle_gamma                 90.125571
_cell_volume                      4124.22118027

loop_
_atom_site_label
_atom_site_type_symbol
_atom_type_description
_atom_site_fract_x
_atom_site_fract_y
_atom_site_fract_z
_atom_type_partial_charge
C1    C     C_R   0.510730 0.724329 0.510768 0.508084
C2    C     C_1   0.484551 0.186358 0.484996 -0.024068
C3    C     C_1   0.515052 0.483458 0.184664 0.015893
C4    C     C_R   0.489299 0.275695 0.489256 0.509680
C5    C     C_2   0.523159 0.474554 0.018862 -0.119334
C6    C     C_2   0.476873 0.525463 0.981142 -0.120056
C7    C     C_1   0.481324 0.520564 0.890861 -0.042311
C8    C     C_1   0.518702 0.479451 0.109143 -0.042824
C9    C     C_1   0.484963 0.516558 0.815340 0.016529
C10   C     C_R   0.510732 0.488189 0.274541 0.506909
C11   C     C_R   0.489259 0.511828 0.725465 0.507738
C12   C     C_1   0.111207 0.522405 0.522020 -0.075375
C13   C     C_R   0.724321 0.488068 0.488102 0.506872
C14   C     C_R   0.275687 0.511892 0.511860 0.511497
C15   C     C_1   0.813719 0.483955 0.484021 0.029579
C16   C     C_2   0.978738 0.477809 0.478109 -0.073135
C17   C     C_2   0.020453 0.530044 0.529377 0.287565
C18   C     C_3   0.026250 0.639444 0.636443 -0.100195
C19   C     C_3   0.372832 0.024480 0.375192 0.021509
C20   C     C_3   0.293733 0.064021 0.424316 -0.264787
C21   C     C_3   0.247588 0.117480 0.370327 -0.475676
C22   C     C_1   0.888827 0.480901 0.481055 0.011198
C23   C     C_1   0.186309 0.517029 0.516837 -0.021077
C24   C     C_1   0.514399 0.813720 0.514294 0.028659
C25   C     C_2   0.520671 0.978655 0.518783 -0.074515
C26   C     C_2   0.471914 0.020669 0.474108 0.278809
C27   C     C_1   0.479437 0.111289 0.480544 -0.080035
C28   C     C_1   0.517347 0.888801 0.516647 0.009576
H1    H     H_    0.012080 0.431702 0.432948 0.075779
H2    H     H_    0.251673 0.013777 0.445394 0.174518
H3    H     H_    0.309888 0.103798 0.480895 0.170658
H4    H     H_    0.287976 0.169325 0.350251 0.164311
H5    H     H_    0.190389 0.144641 0.407250 0.153774
H6    H     H_    0.229093 0.078866 0.313952 0.148495
H7    H     H_    0.564418 0.011665 0.557480 0.080726
H8    H     H_    0.435179 0.571321 0.017949 0.137515
H9    H     H_    0.564852 0.428695 0.982054 0.139164
H10   H     H_    0.069300 0.677007 0.597047 0.126693
H11   H     H_    0.061506 0.601524 0.675463 0.126023
H12   H     H_    0.985870 0.683799 0.679830 0.143403
H13   H     H_    0.353431 0.981790 0.321943 0.153558
H14   H     H_    0.413477 0.071779 0.345876 0.131979
O1    O     O_3   0.500000 0.500000 0.500000 -0.437259
O2    O     O_R   0.689040 0.536050 0.444000 -0.533885
O3    O     O_R   0.315570 0.560650 0.560630 -0.536475
O4    O     O_R   0.679800 0.444450 0.536560 -0.534568
O5    O     O_R   0.315590 0.458850 0.458810 -0.536232
O6    O     O_3   0.974958 0.588428 0.586574 -0.549736
O7    O     O_3   0.415662 0.975590 0.425985 -0.556852
O8    O     O_R   0.458170 0.444480 0.314880 -0.537620
O9    O     O_R   0.445130 0.560630 0.690220 -0.536761
O10   O     O_R   0.559450 0.679320 0.457680 -0.532215
O11   O     O_R   0.537250 0.315570 0.537220 -0.533660
O12   O     O_R   0.458120 0.689530 0.559970 -0.535175
O13   O     O_R   0.445170 0.315580 0.445130 -0.541096
O14   O     O_R   0.559480 0.536070 0.314410 -0.533180
O15   O     O_R   0.537220 0.458810 0.680490 -0.533941
Zn1   Zn    Zn3+2 0.430930 0.430930 0.430910 0.942390
Zn2   Zn    Zn3+2 0.575680 0.561790 0.430230 0.958643
Zn3   Zn    Zn3+2 0.562480 0.430910 0.562480 0.953070
Zn4   Zn    Zn3+2 0.430910 0.576380 0.576380 0.951247

loop_
_geom_bond_atom_site_label_1
_geom_bond_atom_site_label_2
_ccdc_geom_bond_type
C12   C17   S    
C14   C23   S    
C5    C8    S    
C2    C4    S    
C1    O12   A    
C19   H14   S    
C2    C27   T    
O12   Zn4   S    
C5    H9    S    
C4    O11   A    
C10   O14   A    
C19   O7    S    
C19   C20   S    
O9    Zn4   S    
C17   O6    S    
O1    Zn2   S    
C18   H11   S    
C25   C26   D    
C1    O10   A    
C18   H10   S    
O8    Zn1   S    
C3    C10   S    
C20   H2    S    
C13   O2    A    
C25   C28   S    
C9    C11   S    
C12   C23   T    
C26   C27   S    
C6    C7    S    
O1    Zn3   S    
C25   H7    S    
O3    Zn4   S    
O10   Zn2   S    
O11   Zn3   S    
C6    H8    S    
C14   O3    A    
C13   C15   S    
C4    O13   A    
C5    C6    D    
C21   H4    S    
O13   Zn1   S    
C21   H5    S    
O2    Zn2   S    
C10   O8    A    
C19   H13   S    
C11   O9    A    
C20   C21   S    
O1    Zn4   S    
C1    C24   S    
C3    C8    T    
C26   O7    S    
C7    C9    T    
O14   Zn2   S    
C18   H12   S    
C13   O4    A    
O15   Zn3   S    
C16   C22   S    
C21   H6    S    
O1    Zn1   S    
O4    Zn3   S    
C16   H1    S    
C11   O15   A    
C14   O5    A    
C15   C22   T    
C24   C28   T    
C16   C17   D    
O5    Zn1   S    
C20   H3    S    
C18   O6    S    
