data_mof_unit_pretest_1512.cif
_audit_creation_date              2012-12-10T18:33:20-0500
_audit_creation_method            fapswitch 2.2
_symmetry_space_group_name_H-M    P1
_symmetry_Int_Tables_number       1
_space_group_crystal_system       triclinic
_cell_length_a                    21.752314
_cell_length_b                    21.786662
_cell_length_c                    24.651456
_cell_angle_alpha                 116.041326
_cell_angle_beta                  116.287616
_cell_angle_gamma                 88.355565
_cell_volume                      9209.67660056

loop_
_atom_site_label
_atom_site_type_symbol
_atom_type_description
_atom_site_fract_x
_atom_site_fract_y
_atom_site_fract_z
_atom_type_partial_charge
C1    C     C_R   0.068929 0.565502 0.632465 0.819623
C2    C     C_R   0.031021 0.251912 0.307797 -0.147238
C3    C     C_R   0.589757 0.213241 0.311365 -0.055854
C4    C     C_R   0.521960 0.196937 0.463093 -0.223021
C5    C     C_R   0.499134 0.187318 0.503760 -0.043977
C6    C     C_R   0.474679 0.240855 0.542551 0.031489
C7    C     C_R   0.476641 0.305171 0.541911 0.082235
C8    C     C_R   0.500771 0.314459 0.500998 0.013284
C9    C     C_R   0.521595 0.258859 0.459763 0.028619
C10   C     C_R   0.376813 0.210855 0.561787 0.028034
C11   C     C_R   0.355382 0.207641 0.607223 0.020324
C12   C     C_R   0.405618 0.227050 0.676420 -0.010456
C13   C     C_R   0.263476 0.434597 0.456934 0.212348
C14   C     C_R   0.477044 0.248165 0.698820 0.142360
C15   C     C_R   0.498025 0.249036 0.653135 -0.273394
C16   C     C_R   0.448997 0.231397 0.585509 -0.031584
C17   C     C_R   0.315351 0.496312 0.502899 -0.038149
C18   C     C_R   0.304141 0.553911 0.551832 0.018326
C19   C     C_R   0.237857 0.553489 0.546462 -0.126755
C20   C     C_R   0.184281 0.494860 0.497354 -0.081452
C21   C     C_R   0.197080 0.433782 0.453502 0.033575
C22   C     C_R   0.383181 0.630124 0.679974 0.002724
C23   C     C_R   0.433835 0.691047 0.733754 -0.193161
C24   C     C_R   0.463472 0.734297 0.719651 -0.187637
C25   C     C_R   0.117344 0.497629 0.497211 0.796656
C26   C     C_R   0.442570 0.717645 0.651527 0.212561
C27   C     C_R   0.390872 0.658601 0.597682 -0.052390
C28   C     C_R   0.360656 0.614575 0.610883 -0.022754
C29   C     C_R   0.109652 0.670968 0.745953 -0.188341
C30   C     C_R   0.146400 0.705754 0.817541 -0.187903
C31   C     C_R   0.187417 0.672331 0.854009 0.048364
C32   C     C_R   0.192418 0.602812 0.817383 0.109266
C33   C     C_R   0.156250 0.567601 0.744395 -0.056408
C34   C     C_R   0.112661 0.601580 0.708497 -0.130997
C35   C     C_R   0.292265 0.779861 0.070273 0.448426
C36   C     C_R   0.931979 0.434362 0.367094 0.818269
C37   C     C_R   0.224813 0.710912 0.930263 0.441768
C38   C     C_R   0.311060 0.880116 0.181055 -0.216489
C39   C     C_R   0.344853 0.918318 0.253088 0.109043
C40   C     C_R   0.397724 0.893528 0.292114 -0.046126
C41   C     C_R   0.415773 0.830319 0.258993 0.057093
C42   C     C_R   0.381075 0.791775 0.186308 0.130582
C43   C     C_R   0.328878 0.817387 0.146882 0.008445
C44   C     C_R   0.970549 0.508541 0.710778 -0.053147
C45   C     C_R   0.912252 0.486662 0.644706 0.119982
C46   C     C_R   0.878300 0.536547 0.627405 -0.043740
C47   C     C_R   0.882314 0.501388 0.501326 0.859793
C48   C     C_R   0.901519 0.608549 0.676062 -0.121327
C49   C     C_R   0.958086 0.630016 0.742709 -0.057061
C50   C     C_R   0.991578 0.579828 0.758896 -0.237455
C51   C     C_R   0.747843 0.507819 0.557802 0.139626
C52   C     C_R   0.686342 0.499323 0.498488 -0.068258
C53   C     C_R   0.690666 0.493069 0.440292 -0.022830
C54   C     C_R   0.755960 0.493099 0.441780 0.108721
C55   C     C_R   0.816087 0.502902 0.501394 -0.013745
C56   C     C_R   0.813086 0.512983 0.560289 -0.000968
C57   C     C_R   0.587452 0.420753 0.323603 0.135889
C58   C     C_R   0.073882 0.262386 0.374181 -0.162056
C59   C     C_R   0.531058 0.413336 0.261804 -0.000652
C60   C     C_R   0.516249 0.473062 0.254671 -0.254546
C61   C     C_R   0.555533 0.539671 0.307272 -0.056535
C62   C     C_R   0.613459 0.547443 0.368806 -0.103586
C63   C     C_R   0.628304 0.487582 0.377491 -0.017225
C64   C     C_R   0.882085 0.433833 0.251571 0.029128
C65   C     C_R   0.845972 0.397615 0.179173 -0.038552
C66   C     C_R   0.814019 0.326608 0.144740 -0.077065
C67   C     C_R   0.818040 0.291646 0.181866 0.107439
C68   C     C_R   0.855496 0.327034 0.254407 0.102667
C69   C     C_R   0.129774 0.320087 0.422148 0.029612
C70   C     C_R   0.889648 0.398120 0.290216 -0.123545
C71   C     C_R   0.709205 0.219282 0.930301 0.485901
C72   C     C_R   0.776988 0.287781 0.069394 0.495693
C73   C     C_R   0.700314 0.191558 0.817380 0.163155
C74   C     C_R   0.665844 0.154066 0.744829 0.060680
C75   C     C_R   0.601855 0.106194 0.709013 -0.082237
C76   C     C_R   0.571272 0.097815 0.746160 0.053760
C77   C     C_R   0.606892 0.133496 0.818843 -0.088481
C78   C     C_R   0.671713 0.180358 0.854357 -0.067859
C79   C     C_R   0.498723 0.618795 0.499151 0.836279
C80   C     C_R   0.141138 0.369457 0.402587 -0.102275
C81   C     C_R   0.381368 0.498703 0.500779 0.810128
C82   C     C_R   0.501555 0.381143 0.500315 0.885938
C83   C     C_R   0.619094 0.499838 0.499435 0.865914
C84   C     C_R   0.500348 0.119862 0.502683 0.798762
C85   C     C_R   0.434289 0.933397 0.367752 0.855113
C86   C     C_R   0.501737 0.881857 0.501214 0.891744
C87   C     C_R   0.565718 0.066529 0.632643 0.860938
C88   C     C_R   0.316118 0.545371 0.276841 -0.063787
C89   C     C_R   0.376745 0.592370 0.334325 -0.162030
C90   C     C_R   0.376173 0.641035 0.394390 0.005823
C91   C     C_R   0.097262 0.358615 0.334555 -0.144258
C92   C     C_R   0.312255 0.643130 0.397453 -0.102539
C93   C     C_R   0.251490 0.591176 0.341311 -0.117637
C94   C     C_R   0.252680 0.544484 0.279629 -0.106281
C95   C     C_R   0.444291 0.760490 0.448358 0.149229
C96   C     C_R   0.503529 0.814072 0.498782 0.007730
C97   C     C_R   0.564248 0.801900 0.544096 -0.024264
C98   C     C_R   0.561682 0.737324 0.543695 0.108088
C99   C     C_R   0.499890 0.684988 0.496946 -0.059585
C100  C     C_R   0.441113 0.696005 0.447917 0.004042
C101  C     C_R   0.683140 0.857583 0.573696 -0.026289
C102  C     C_R   0.042470 0.298877 0.287000 0.136897
C103  C     C_R   0.749305 0.900544 0.623601 -0.233487
C104  C     C_R   0.764932 0.944086 0.691647 -0.032468
C105  C     C_R   0.711899 0.947974 0.710965 -0.109124
C106  C     C_R   0.645566 0.901527 0.661991 -0.178933
C107  C     C_R   0.630968 0.856220 0.593154 -0.030761
C108  C     C_R   0.518213 0.203227 0.291458 -0.166008
C109  C     C_R   0.493976 0.225920 0.339665 -0.025487
C110  C     C_R   0.543167 0.260250 0.410868 -0.047750
C111  C     C_R   0.615912 0.273738 0.432209 -0.099534
C112  C     C_R   0.639279 0.249404 0.382290 -0.133903
Cu1   Cu    Cu3+1 0.000000 0.438230 0.500020 1.035035
Cu2   Cu    Cu3+1 0.000000 0.561770 0.499980 1.021768
Cu3   Cu    Cu3+1 0.465780 0.465820 0.431560 1.025156
Cu4   Cu    Cu3+1 0.534220 0.534230 0.568440 1.040774
Cu5   Cu    Cu3+1 0.561810 0.999860 0.500000 1.032613
Cu6   Cu    Cu3+1 0.438190 0.999810 0.500000 1.050598
H1    H     H_    0.989250 0.205979 0.271923 0.137640
H2    H     H_    0.503478 0.780216 0.761669 0.176603
H3    H     H_    0.375254 0.645443 0.545086 0.145731
H4    H     H_    0.077274 0.698177 0.719777 0.196455
H5    H     H_    0.142393 0.759226 0.844623 0.181575
H6    H     H_    0.271280 0.900281 0.151512 0.175146
H7    H     H_    0.063662 0.224133 0.387637 0.191929
H8    H     H_    0.036039 0.596989 0.809538 0.212922
H9    H     H_    0.473128 0.467840 0.207492 0.230578
H10   H     H_    0.425117 0.592420 0.331783 0.185961
H11   H     H_    0.789974 0.899753 0.609354 0.216040
H12   H     H_    0.480665 0.177203 0.237095 0.228152
H13   H     H_    0.538712 0.154740 0.431825 0.163834
H14   H     H_    0.553072 0.266038 0.671338 0.152469
H15   H     H_    0.228640 0.598581 0.582633 0.149235
H16   H     H_    0.452052 0.704214 0.786917 0.188523
N1    N     N_R   0.286945 0.697886 0.966719 -0.171806
N2    N     N_R   0.319930 0.731648 0.035143 -0.169812
N3    N     N_R   0.230619 0.793808 0.033723 -0.224665
N4    N     N_R   0.197601 0.760101 0.965176 -0.205607
N5    N     N_R   0.707720 0.285527 0.033997 -0.162876
N6    N     N_R   0.674417 0.251919 0.965576 -0.195026
N7    N     N_R   0.778633 0.221751 0.965953 -0.163664
N8    N     N_R   0.812050 0.255630 0.034414 -0.210383
O1    O     O_R   0.049920 0.497760 0.599870 -0.566892
O2    O     O_R   0.528910 0.619050 0.557800 -0.565673
O3    O     O_R   0.380930 0.471140 0.442200 -0.547679
O4    O     O_R   0.438710 0.528900 0.557790 -0.589496
O5    O     O_R   0.471090 0.380990 0.442200 -0.570029
O6    O     O_R   0.528880 0.438760 0.557790 -0.551575
O7    O     O_R   0.561290 0.471140 0.442210 -0.616282
O8    O     O_R   0.619070 0.528910 0.557800 -0.534761
O9    O     O_R   0.552160 0.089990 0.499980 -0.590249
O10   O     O_R   0.447770 0.089950 0.499980 -0.563831
O11   O     O_R   0.502270 0.949920 0.400150 -0.570109
O12   O     O_R   0.049920 0.602100 0.599840 -0.577532
O13   O     O_R   0.397880 0.949890 0.400140 -0.554998
O14   O     O_R   0.552230 0.909720 0.500030 -0.572322
O15   O     O_R   0.447840 0.909680 0.500020 -0.551150
O16   O     O_R   0.602120 0.049780 0.599860 -0.562696
O17   O     O_R   0.497730 0.049740 0.599850 -0.564774
O18   O     O_R   0.090180 0.447830 0.500020 -0.568370
O19   O     O_R   0.090180 0.552170 0.499990 -0.590346
O20   O     O_R   0.950080 0.397900 0.400160 -0.540366
O21   O     O_R   0.950080 0.502240 0.400130 -0.611151
O22   O     O_R   0.909820 0.447830 0.500010 -0.598088
O23   O     O_R   0.909820 0.552170 0.499980 -0.544779
O24   O     O_R   0.471120 0.561280 0.442210 -0.601800
N9    N     N_3   0.474477 0.759811 0.636409 -0.517691
H17   H     H_    0.527823 0.759018 0.657553 0.239758
H18   H     H_    0.468398 0.810894 0.660806 0.288421
N10   N     N_3   0.234454 0.568585 0.854827 -0.533603
H19   H     H_    0.202119 0.525757 0.844104 0.282579
H20   H     H_    0.271991 0.551334 0.839101 0.253459
C113  C     C_2   0.168462 0.497820 0.706433 0.869652
O25   O     O_2   0.160467 0.450329 0.717975 -0.576967
O26   O     O_R   0.189178 0.486668 0.657210 -0.740604
H21   H     H_    0.195326 0.437079 0.634359 0.348764
N11   N     N_3   0.326815 0.983162 0.286967 -0.539600
H22   H     H_    0.284755 0.992645 0.251143 0.233319
H23   H     H_    0.369633 0.023270 0.310202 0.219094
N12   N     N_3   0.468329 0.804888 0.299897 -0.560834
H24   H     H_    0.446080 0.756159 0.288716 0.231984
H25   H     H_    0.508796 0.799175 0.287201 0.232664
N13   N     N_3   0.397428 0.725947 0.152634 -0.544629
H26   H     H_    0.387098 0.692151 0.168656 0.236873
H27   H     H_    0.450659 0.733660 0.166834 0.232548
C114  C     C_2   0.009927 0.458850 0.732121 0.869972
O27   O     O_2   0.046909 0.476875 0.793261 -0.567135
O28   O     O_R   0.006575 0.392267 0.683321 -0.754016
H28   H     H_    0.036338 0.364393 0.704941 0.368209
N14   N     N_3   0.883776 0.414150 0.595718 -0.544157
H29   H     H_    0.873154 0.388531 0.618820 0.246576
H30   H     H_    0.920178 0.392636 0.579914 0.283961
C115  C     C_2   0.863129 0.660110 0.658215 0.909882
O29   O     O_2   0.854069 0.662732 0.606723 -0.574429
O30   O     O_R   0.836648 0.704988 0.699935 -0.731859
H31   H     H_    0.810960 0.737182 0.682094 0.339105
C116  C     C_2   0.985076 0.704647 0.796340 0.891208
O31   O     O_2   0.011554 0.720073 0.857165 -0.559025
O32   O     O_R   0.982736 0.757242 0.777900 -0.747463
H32   H     H_    0.003712 0.805538 0.819225 0.349886
N15   N     N_3   0.743904 0.510545 0.615509 -0.518522
H33   H     H_    0.767628 0.471889 0.626118 0.253729
H34   H     H_    0.771219 0.559234 0.658438 0.237443
N16   N     N_3   0.762341 0.483525 0.383047 -0.588761
H35   H     H_    0.745024 0.523584 0.371418 0.246136
H36   H     H_    0.730798 0.435800 0.340973 0.227578
N17   N     N_3   0.603381 0.360207 0.331626 -0.540239
H37   H     H_    0.654715 0.357134 0.340593 0.252414
H38   H     H_    0.600026 0.366019 0.374487 0.235454
C117  C     C_2   0.486185 0.344106 0.203693 0.891239
O33   O     O_2   0.502388 0.289850 0.203547 -0.562851
O34   O     O_R   0.424842 0.340909 0.148270 -0.745540
H39   H     H_    0.398783 0.291240 0.112048 0.358053
C118  C     C_2   0.173998 0.327135 0.492095 0.897583
O35   O     O_2   0.232574 0.364385 0.529969 -0.594744
O36   O     O_R   0.148629 0.289805 0.514435 -0.741965
H40   H     H_    0.183152 0.298665 0.562588 0.343765
C119  C     C_2   0.532639 0.600050 0.296646 0.899524
O37   O     O_2   0.534690 0.653467 0.344255 -0.610932
O38   O     O_R   0.505786 0.594761 0.231326 -0.723297
H41   H     H_    0.491011 0.639010 0.230427 0.328478
C120  C     C_2   0.662423 0.616125 0.420529 0.890797
O39   O     O_2   0.679751 0.652491 0.401401 -0.537240
O40   O     O_R   0.690864 0.638076 0.490761 -0.766265
H42   H     H_    0.726029 0.683995 0.520224 0.356750
N18   N     N_3   0.909841 0.507233 0.284144 -0.509597
H43   H     H_    0.964097 0.518033 0.315167 0.266256
H44   H     H_    0.885275 0.535410 0.312677 0.255755
C121  C     C_2   0.843073 0.434811 0.139994 0.912420
O41   O     O_2   0.788418 0.426604 0.089676 -0.576364
O42   O     O_R   0.903160 0.479557 0.161038 -0.682400
H45   H     H_    0.894728 0.501801 0.130507 0.351953
N19   N     N_3   0.784078 0.219436 0.144917 -0.556943
H46   H     H_    0.821666 0.190118 0.157500 0.222599
H47   H     H_    0.747293 0.213916 0.159749 0.233168
N20   N     N_3   0.857095 0.291290 0.291868 -0.541278
H48   H     H_    0.878934 0.247450 0.277269 0.219829
H49   H     H_    0.805869 0.275158 0.279862 0.241915
N21   N     N_3   0.764323 0.241972 0.854190 -0.545630
H50   H     H_    0.801716 0.217015 0.842154 0.260546
H51   H     H_    0.755008 0.280438 0.838702 0.216315
N22   N     N_3   0.694504 0.166053 0.707056 -0.560911
H52   H     H_    0.744593 0.154767 0.721840 0.254724
H53   H     H_    0.698182 0.218537 0.718789 0.209366
N23   N     N_3   0.504595 0.051403 0.709484 -0.503998
H54   H     H_    0.467733 0.081030 0.717016 0.281548
H55   H     H_    0.508123 0.016790 0.729074 0.272425
C122  C     C_2   0.109284 0.408741 0.312326 0.894624
O43   O     O_2   0.168443 0.429794 0.326400 -0.530340
O44   O     O_R   0.054180 0.432146 0.274872 -0.674917
H56   H     H_    0.008017 0.415274 0.269231 0.309989
C123  C     C_2   0.577993 0.118318 0.857262 0.892287
O45   O     O_2   0.615041 0.102500 0.901566 -0.566894
O46   O     O_R   0.508612 0.121965 0.842793 -0.737084
H57   H     H_    0.495292 0.110461 0.872319 0.349917
C124  C     C_2   0.187180 0.498142 0.216584 0.953651
O47   O     O_2   0.168643 0.502166 0.163817 -0.545543
O48   O     O_R   0.147122 0.449833 0.217227 -0.668961
H58   H     H_    0.103825 0.421509 0.171174 0.362162
C125  C     C_2   0.320991 0.498001 0.214230 0.878769
O49   O     O_2   0.291205 0.436627 0.180664 -0.541005
O50   O     O_R   0.359953 0.523946 0.193707 -0.756104
H59   H     H_    0.357530 0.487526 0.149066 0.361293
C126  C     C_2   0.306418 0.703797 0.454426 0.827429
O51   O     O_2   0.357987 0.737795 0.510375 -0.589344
O52   O     O_R   0.242430 0.724943 0.442774 -0.735235
H60   H     H_    0.245570 0.767114 0.484828 0.351550
C127  C     C_2   0.187058 0.585925 0.347474 1.019904
O53   O     O_2   0.130076 0.582754 0.302316 -0.524022
O54   O     O_R   0.192213 0.585719 0.406008 -0.747125
H61   H     H_    0.145135 0.581768 0.404587 0.341747
N24   N     N_3   0.389010 0.771442 0.395419 -0.572560
H62   H     H_    0.342653 0.767401 0.397726 0.244649
H63   H     H_    0.381565 0.733159 0.347441 0.234233
N25   N     N_3   0.622082 0.724044 0.590439 -0.544524
H64   H     H_    0.664792 0.732481 0.583998 0.238367
H65   H     H_    0.633717 0.759487 0.640737 0.213058
C128  C     C_2   0.671471 0.815042 0.502051 0.878010
O55   O     O_2   0.721555 0.800946 0.491943 -0.553244
O56   O     O_R   0.604515 0.794346 0.445844 -0.714146
H66   H     H_    0.605403 0.773364 0.400540 0.373373
N26   N     N_3   0.999900 0.284978 0.217008 -0.587862
H67   H     H_    0.031603 0.272417 0.193431 0.248657
H68   H     H_    0.959446 0.241358 0.189898 0.228157
C129  C     C_2   0.838524 0.983033 0.741587 0.905703
O57   O     O_2   0.865097 0.993032 0.800860 -0.545000
O58   O     O_R   0.878395 0.006066 0.719984 -0.748626
H69   H     H_    0.927832 0.031168 0.758282 0.351224
C130  C     C_2   0.724565 0.005073 0.779495 0.871358
O59   O     O_2   0.758046 0.062739 0.802349 -0.580100
O60   O     O_R   0.699750 0.993896 0.818492 -0.723543
H70   H     H_    0.712983 0.037046 0.863972 0.366094
C131  C     C_2   0.590657 0.899342 0.681677 0.865550
O61   O     O_2   0.533710 0.910804 0.651035 -0.572976
O62   O     O_R   0.601506 0.880551 0.732133 -0.721360
H71   H     H_    0.647211 0.864302 0.748636 0.320623
C132  C     C_2   0.610221 0.188496 0.256116 0.952913
O63   O     O_2   0.574303 0.136482 0.201099 -0.559766
O64   O     O_R   0.668778 0.225469 0.265590 -0.765205
H72   H     H_    0.676230 0.203576 0.223784 0.332066
C133  C     C_2   0.416851 0.208790 0.313339 0.863509
O65   O     O_2   0.390857 0.238846 0.350400 -0.573429
O66   O     O_R   0.373410 0.158292 0.245147 -0.760166
H73   H     H_    0.322276 0.151210 0.233252 0.343102
C134  C     C_2   0.667544 0.308486 0.506988 0.865074
O67   O     O_2   0.656694 0.359132 0.547396 -0.619785
O68   O     O_R   0.727981 0.282792 0.531299 -0.730382
H74   H     H_    0.758537 0.310758 0.582980 0.334079
C135  C     C_2   0.715151 0.262633 0.404336 0.956561
O69   O     O_2   0.743284 0.213859 0.385874 -0.543163
O70   O     O_R   0.754207 0.331004 0.446062 -0.768311
H75   H     H_    0.804669 0.333512 0.455608 0.355001
N27   N     N_3   0.452208 0.360730 0.580916 -0.559938
H76   H     H_    0.399598 0.343200 0.564045 0.244943
H77   H     H_    0.481359 0.373579 0.632772 0.239782
N28   N     N_3   0.280295 0.372050 0.417078 -0.541277
H78   H     H_    0.274424 0.334209 0.430612 0.243092
H79   H     H_    0.245469 0.353192 0.364867 0.262342
C136  C     C_2   0.323565 0.193601 0.490109 0.880124
O71   O     O_2   0.265459 0.207068 0.478122 -0.565714
O72   O     O_R   0.339620 0.162149 0.436200 -0.748493
H80   H     H_    0.299332 0.153714 0.390379 0.343836
N29   N     N_3   0.282824 0.181512 0.581278 -0.518703
H81   H     H_    0.278791 0.140490 0.591540 0.237233
H82   H     H_    0.261973 0.221680 0.605707 0.276699
C137  C     C_2   0.384482 0.225305 0.725651 0.869550
O73   O     O_2   0.329546 0.241297 0.723853 -0.588973
O74   O     O_R   0.428157 0.206248 0.775054 -0.703403
H83   H     H_    0.408388 0.207413 0.805730 0.364020
N30   N     N_3   0.528413 0.272199 0.769230 -0.516264
H84   H     H_    0.566929 0.242378 0.770329 0.224609
H85   H     H_    0.552212 0.323860 0.789665 0.228699
C138  C     C_2   0.357599 0.582508 0.697474 0.855601
O75   O     O_2   0.355902 0.606034 0.751783 -0.580916
O76   O     O_R   0.337747 0.510520 0.653229 -0.720063
H86   H     H_    0.323611 0.483635 0.672022 0.362388

loop_
_geom_bond_atom_site_label_1
_geom_bond_atom_site_label_2
_ccdc_geom_bond_type
C101  C107  A    
N15   H34   S    
C41   N12   S    
O60   H70   S    
C82   O5    A    
C27   H3    S    
C138  O75   D    
C122  O43   D    
C72   N8    A    
N26   H67   S    
C79   C99   S    
C73   N21   S    
C5    C6    A    
C47   O23   A    
C57   C59   A    
C106  C107  A    
C108  C109  A    
C73   C74   A    
C116  O32   S    
C12   C137  S    
C110  C111  A    
C72   N5    A    
C66   C72   S    
C15   H14   S    
C19   C20   A    
N24   H62   S    
N22   H53   S    
C37   N1    A    
C137  O73   D    
C59   C117  S    
C113  O26   S    
C59   C60   A    
C101  C103  A    
N23   H54   S    
C104  C105  A    
C122  O44   S    
C46   C48   A    
C24   H2    S    
N30   H84   S    
C51   C52   A    
C101  C128  S    
Cu2   O19   S    
C45   C46   A    
C31   C37   S    
N28   H78   S    
N13   H26   S    
C121  O41   D    
C90   C92   A    
O66   H73   S    
C3    C112  A    
C29   H4    S    
C13   C21   A    
C76   C77   A    
C92   C126  S    
C47   O22   A    
C127  O54   S    
Cu5   O11   S    
C44   C50   A    
C9    C110  S    
C91   C122  S    
C69   C118  S    
C4    C5    A    
N5    N6    A    
C6    C7    A    
C38   C43   A    
C129  O58   S    
C10   C16   A    
C64   C65   A    
C80   C91   A    
C87   O17   A    
C1    O12   A    
C105  C130  S    
C6    C16   S    
O76   H86   S    
C97   C107  S    
C20   C21   A    
C115  O29   D    
C22   C23   A    
C114  O27   D    
Cu2   O12   S    
C35   N3    A    
C123  O45   D    
C136  O72   S    
C112  C135  S    
C48   C115  S    
C111  C112  A    
C97   C98   A    
C7    C8    A    
N9    H18   S    
C93   C127  S    
C49   C116  S    
C53   C54   A    
C29   C30   A    
C24   C26   A    
C85   O13   A    
C38   C39   A    
C118  O36   S    
N27   H77   S    
N10   H19   S    
C2    C102  A    
Cu3   Cu4   S    
N20   H48   S    
C3    C132  S    
C86   O14   A    
Cu4   O2    S    
C31   C32   A    
C22   C138  S    
C25   O19   A    
C126  O51   D    
N11   H23   S    
C124  O48   S    
C36   O21   A    
C23   C24   A    
C35   C43   S    
N19   H46   S    
C108  H12   S    
C71   N7    A    
C83   O8    A    
C66   C67   A    
N29   H81   S    
C96   C97   A    
C132  O64   S    
O38   H41   S    
C36   C70   S    
C1    C34   S    
C57   C63   A    
C135  O70   S    
C88   C94   A    
C26   N9    S    
C18   C28   S    
O56   H66   S    
Cu5   O9    S    
C39   C40   A    
C5    C84   S    
O30   H31   S    
N29   H82   S    
C74   N22   S    
Cu6   O10   S    
C131  O61   D    
C119  O38   S    
C10   C136  S    
Cu3   O7    S    
C17   C18   A    
N21   H51   S    
C77   C123  S    
C88   C89   A    
C120  O40   S    
C75   C87   S    
C76   N23   S    
N11   H22   S    
C117  O34   S    
O68   H74   S    
C106  C131  S    
C84   O10   A    
C52   C53   A    
Cu2   O23   S    
C111  C134  S    
C54   C55   A    
C23   H16   S    
Cu5   O16   S    
N16   H36   S    
O74   H83   S    
C82   O6    A    
O50   H59   S    
C3    C108  A    
N18   H44   S    
C99   C100  A    
C13   C17   A    
C37   N4    A    
O48   H58   S    
Cu5   Cu6   S    
Cu4   O4    S    
C53   C63   S    
C62   C120  S    
C116  O31   D    
C86   O15   A    
C10   C11   A    
C84   O9    A    
C45   N14   S    
O32   H32   S    
N16   H35   S    
N24   H63   S    
C81   O4    A    
C46   C56   S    
N17   H38   S    
C14   C15   A    
C137  O74   S    
C4    C9    A    
C38   H6    S    
C55   C56   A    
C41   C42   A    
N21   H50   S    
O40   H42   S    
N1    N2    A    
C77   C78   A    
C26   C27   A    
N14   H29   S    
N30   H85   S    
C8    C82   S    
C47   C55   S    
C30   C31   A    
C20   C25   S    
C98   C99   A    
Cu3   O5    S    
O34   H39   S    
N28   H79   S    
C18   C19   A    
N15   H33   S    
N12   H25   S    
C138  O76   S    
C22   C28   A    
C36   O20   A    
Cu6   O17   S    
Cu4   O8    S    
C39   N11   S    
C133  O66   S    
C109  C133  S    
C67   C68   A    
C95   N24   S    
C61   C119  S    
N9    H17   S    
Cu4   O6    S    
C95   C100  A    
C125  O49   D    
O44   H56   S    
C113  O25   D    
C29   C34   A    
N17   H37   S    
C60   C61   A    
C40   C85   S    
C52   C83   S    
O64   H72   S    
C129  O57   D    
O58   H69   S    
C2    H1    S    
C25   O18   A    
N22   H52   S    
C13   N28   S    
Cu3   O24   S    
C103  H11   S    
C71   N6    A    
C86   C96   S    
C48   C49   A    
N23   H55   S    
C42   C43   A    
C114  O28   S    
O62   H71   S    
C44   C45   A    
C123  O46   S    
Cu1   Cu2   S    
N14   H30   S    
N26   H68   S    
C60   H9    S    
C133  O65   D    
C2    C58   A    
C58   C69   A    
C65   C121  S    
C19   H15   S    
C105  C106  A    
Cu3   O3    S    
O72   H80   S    
C32   C33   A    
O46   H57   S    
C121  O42   S    
C109  C110  A    
N27   H76   S    
N10   H20   S    
C54   N16   S    
C21   C80   S    
C92   C93   A    
N20   H49   S    
C17   C81   S    
C98   N25   S    
C88   C125  S    
C136  O71   D    
Cu1   O1    S    
C127  O53   D    
C126  O52   S    
C134  O67   D    
C103  C104  A    
O54   H61   S    
Cu6   O15   S    
C89   C90   A    
N12   H24   S    
C51   N15   S    
C44   C114  S    
C83   O7    A    
C89   H10   S    
O70   H75   S    
C93   C94   A    
C132  O63   D    
C102  N26   S    
C95   C96   A    
C75   C76   A    
C64   N18   S    
C119  O37   D    
C135  O69   D    
C62   C63   A    
N25   H65   S    
N13   H27   S    
C15   C16   A    
C51   C56   A    
C68   N20   S    
Cu1   O20   S    
O26   H21   S    
C8    C9    A    
C115  O30   S    
C73   C78   A    
C50   H8    S    
C64   C70   A    
C33   C113  S    
C104  C129  S    
C79   O24   A    
C61   C62   A    
C90   C100  S    
C4    H13   S    
C74   C75   A    
O36   H40   S    
C125  O50   S    
C118  O35   D    
C134  O68   S    
C7    N27   S    
O28   H28   S    
C1    O1    A    
C94   C124  S    
C79   O2    A    
C124  O47   D    
Cu5   O14   S    
C33   C34   A    
Cu6   O13   S    
N18   H43   S    
C85   O11   A    
C30   H5    S    
N19   H47   S    
C14   N30   S    
C40   C41   A    
N25   H64   S    
C12   C14   A    
C49   C50   A    
C81   O3    A    
C128  O56   S    
C91   C102  A    
O42   H45   S    
C130  O59   D    
C32   N10   S    
C67   N19   S    
C128  O55   D    
C11   N29   S    
C35   N2    A    
C11   C12   A    
C42   N13   S    
N3    N4    A    
C57   N17   S    
C87   O16   A    
C131  O62   S    
N7    N8    A    
Cu1   O22   S    
Cu2   O21   S    
C130  O60   S    
C117  O33   D    
Cu1   O18   S    
C120  O39   D    
O52   H60   S    
C58   H7    S    
C68   C70   A    
C65   C66   A    
C27   C28   A    
C69   C80   A    
C71   C78   S    
