data_mof_unit_pretest_67.cif
_audit_creation_date              2012-12-10T17:21:40-0500
_audit_creation_method            fapswitch 2.2
_symmetry_space_group_name_H-M    P1
_symmetry_Int_Tables_number       1
_space_group_crystal_system       triclinic
_cell_length_a                    10.732277
_cell_length_b                    10.861201
_cell_length_c                    9.57664
_cell_angle_alpha                 90.487378
_cell_angle_beta                  90.005265
_cell_angle_gamma                 92.707101
_cell_volume                      1115.01880003

loop_
_atom_site_label
_atom_site_type_symbol
_atom_type_description
_atom_site_fract_x
_atom_site_fract_y
_atom_site_fract_z
_atom_type_partial_charge
C1    C     C_R   0.510217 0.263199 0.500148 0.798826
C2    C     C_3   0.878153 0.500366 0.499119 0.172828
C3    C     C_3   0.933836 0.616163 0.576748 -0.395781
C4    C     C_3   0.928746 0.501210 0.347019 -0.368403
C5    C     C_R   0.587440 0.124211 0.752249 -0.165075
C6    C     C_R   0.575607 0.066996 0.881459 -0.159354
C7    C     C_R   0.514161 0.952055 0.890691 -0.141161
C8    C     C_R   0.476305 0.889058 0.769350 -0.169672
C9    C     C_R   0.500557 0.940286 0.635551 0.093945
C10   C     C_R   0.537853 0.066216 0.629776 0.097564
C11   C     C_R   0.522071 0.129545 0.502397 -0.127069
C12   C     C_R   0.259883 0.499708 0.499788 0.758671
C13   C     C_R   0.500342 0.062822 0.378504 -0.220471
C14   C     C_R   0.489756 0.935589 0.380409 -0.221102
C15   C     C_R   0.489399 0.872474 0.507410 -0.121114
C16   C     C_R   0.666319 0.664077 0.145643 -0.166321
C17   C     C_R   0.747744 0.743921 0.073931 -0.231925
C18   C     C_R   0.747872 0.743618 0.930069 -0.201936
C19   C     C_R   0.666348 0.663686 0.857123 -0.153525
C20   C     C_R   0.581754 0.580584 0.925855 0.194999
C21   C     C_R   0.581721 0.580644 0.075564 0.211505
C22   C     C_R   0.422449 0.423080 0.073216 -0.078186
C23   C     C_R   0.493559 0.737672 0.501704 0.779602
C24   C     C_R   0.422489 0.423112 0.925155 -0.071901
C25   C     C_R   0.740127 0.500436 0.499817 0.730601
C26   C     C_3   0.066139 0.383629 0.573427 -0.381775
C27   C     C_3   0.922272 0.383541 0.572812 -0.377171
C28   C     C_3   0.077697 0.616388 0.575834 -0.374559
C29   C     C_3   0.071331 0.500169 0.346961 -0.372438
C30   C     C_3   0.121846 0.499959 0.499055 0.159175
Cu1   Cu    Cu3+1 0.499990 0.499990 0.640660 0.910289
Cu2   Cu    Cu3+1 0.500010 0.500010 0.359340 0.917185
H1    H     H_    0.099977 0.381274 0.683210 0.167424
H2    H     H_    0.899452 0.584852 0.291789 0.167053
H3    H     H_    0.116168 0.700897 0.523194 0.147958
H4    H     H_    0.902531 0.701170 0.525935 0.142177
H5    H     H_    0.491141 0.108900 0.279384 0.161544
H6    H     H_    0.637577 0.212833 0.749524 0.157070
H7    H     H_    0.610711 0.113545 0.974880 0.134114
H8    H     H_    0.498051 0.910331 0.991783 0.138268
H9    H     H_    0.424032 0.802940 0.783896 0.166806
H10   H     H_    0.479434 0.886699 0.281686 0.164194
H11   H     H_    0.358932 0.360089 0.128014 0.132144
H12   H     H_    0.097116 0.299031 0.519835 0.148650
H13   H     H_    0.674399 0.671970 0.255738 0.200028
H14   H     H_    0.811236 0.806546 0.130751 0.145436
H15   H     H_    0.673275 0.672008 0.747147 0.200869
H16   H     H_    0.359037 0.360091 0.869079 0.139851
H17   H     H_    0.883595 0.299331 0.518112 0.145990
H18   H     H_    0.112676 0.619182 0.685299 0.170501
H19   H     H_    0.109923 0.582711 0.290539 0.170602
H20   H     H_    0.100875 0.417031 0.289203 0.163342
H21   H     H_    0.890095 0.419191 0.288135 0.172018
N1    N     N_R   0.501200 0.501210 0.147910 -0.197040
N2    N     N_R   0.501250 0.501290 0.852040 -0.202953
O1    O     O_R   0.499990 0.319640 0.618810 -0.584171
O2    O     O_R   0.500000 0.319660 0.381240 -0.579600
O3    O     O_R   0.317680 0.499970 0.618790 -0.585811
O4    O     O_R   0.317700 0.499990 0.381210 -0.584867
O5    O     O_R   0.500000 0.680340 0.618760 -0.610261
O6    O     O_R   0.500010 0.680360 0.381190 -0.596745
O7    O     O_R   0.682300 0.500010 0.618790 -0.606272
O8    O     O_R   0.682320 0.500030 0.381210 -0.603119
H22   H     H_    0.811147 0.806275 0.874214 0.147677
H23   H     H_    0.887439 0.380272 0.682263 0.169373
H24   H     H_    0.900480 0.617402 0.686706 0.171495

loop_
_geom_bond_atom_site_label_1
_geom_bond_atom_site_label_2
_ccdc_geom_bond_type
C16   H13   S    
Cu1   O5    S    
C2    C4    S    
C7    H8    S    
C16   C21   A    
C6    C7    A    
C27   H23   S    
C1    O2    A    
Cu1   O1    S    
C9    C10   A    
C26   H1    S    
C13   H5    S    
C4    C29   S    
C1    C11   S    
C21   N1    A    
C14   H10   S    
C2    C27   S    
C12   O3    A    
C20   C21   A    
C19   C20   A    
C15   C23   S    
C17   C18   A    
C9    C15   A    
C26   H12   S    
C5    C10   A    
C22   N1    A    
C5    H6    S    
C8    H9    S    
C24   N2    A    
C11   C13   A    
Cu1   O7    S    
C18   H22   S    
C26   C27   S    
C29   C30   S    
C28   H18   S    
C3    H4    S    
C20   N2    A    
C5    C6    A    
Cu2   O2    S    
Cu1   O3    S    
C28   C30   S    
C3    C28   S    
C1    O1    A    
Cu2   O6    S    
C26   C30   S    
C2    C25   S    
C19   H15   S    
C25   O7    A    
C4    H2    S    
C29   H19   S    
C23   O5    A    
C4    H21   S    
C22   C24   A    
C3    H24   S    
C7    C8    A    
C10   C11   A    
C24   H16   S    
C22   H11   S    
C23   O6    A    
C17   H14   S    
C28   H3    S    
C18   C19   A    
C25   O8    A    
Cu2   N1    S    
C6    H7    S    
C16   C17   A    
C2    C3    S    
C14   C15   A    
Cu2   O4    S    
Cu1   N2    S    
C13   C14   A    
C12   O4    A    
C12   C30   S    
Cu1   Cu2   S    
C27   H17   S    
Cu2   O8    S    
C8    C9    A    
C29   H20   S    
