data_mof_unit_pretest_136.cif
_audit_creation_date              2013-03-05T15:56:47-0500
_audit_creation_method            fapswitch 2.2
_symmetry_space_group_name_H-M    P1
_symmetry_Int_Tables_number       1
_space_group_crystal_system       triclinic
_cell_length_a                    6.930352
_cell_length_b                    14.515616
_cell_length_c                    16.09354
_cell_angle_alpha                 89.974225
_cell_angle_beta                  90.160062
_cell_angle_gamma                 89.817672
_cell_volume                      1618.96853652

loop_
_atom_site_label
_atom_site_type_symbol
_atom_site_description
_atom_site_fract_x
_atom_site_fract_y
_atom_site_fract_z
_atom_type_partial_charge
O1    O     O_R   0.638180 0.333920 0.163320 -0.582015
O2    O     O_R   0.361820 0.666080 0.836680 -0.582020
O3    O     O_R   0.308470 0.344960 0.336080 -0.605065
O4    O     O_R   0.691530 0.655040 0.663920 -0.605065
O5    O     O_R   0.138140 0.166110 0.336680 -0.601880
O6    O     O_R   0.861860 0.833890 0.663320 -0.601878
C1    C     C_R   0.477512 0.367132 0.365099 0.911405
C2    C     C_R   0.522488 0.632868 0.634900 0.911408
O7    O     O_R   0.308460 0.344950 0.163930 -0.541090
O8    O     O_R   0.691540 0.655050 0.836070 -0.541067
O9    O     O_R   0.138140 0.166100 0.163310 -0.577154
O10   O     O_R   0.861860 0.833900 0.836690 -0.577159
C3    C     C_R   0.476601 0.367868 0.135583 1.065477
C4    C     C_R   0.523399 0.632131 0.864416 1.065459
O11   O     O_R   0.638180 0.333930 0.336700 -0.609345
O12   O     O_R   0.361820 0.666070 0.663300 -0.609343
O13   O     O_3   0.471670 0.191340 0.250000 -0.278672
O14   O     O_3   0.528330 0.808660 0.750000 -0.278692
V1    V     V_3+5 0.196830 0.260900 0.250000 1.248483
V2    V     V_3+5 0.803170 0.739100 0.750000 1.248475
O15   O     O_R   0.808420 0.155070 0.163920 -0.588643
O16   O     O_R   0.191580 0.844930 0.836080 -0.588685
C5    C     C_R   0.977259 0.134906 0.133453 1.026852
C6    C     C_R   0.022741 0.865091 0.866550 1.026900
O17   O     O_R   0.808420 0.155080 0.336070 -0.601057
O18   O     O_R   0.191580 0.844920 0.663930 -0.601054
C7    C     C_R   0.977573 0.133104 0.364636 0.920185
C8    C     C_R   0.022427 0.866896 0.635364 0.920193
V3    V     V_3+5 0.696830 0.239130 0.250000 1.218938
V4    V     V_3+5 0.303170 0.760870 0.750000 1.218906
O19   O     O_3   0.971850 0.308690 0.250010 -0.251860
O20   O     O_3   0.028150 0.691310 0.749990 -0.251849
H1    H     H_    0.272679 0.845298 0.266276 0.152941
H2    H     H_    0.727321 0.154702 0.733724 0.152921
C9    C     C_R   0.835857 0.176101 0.529279 -0.184435
C10   C     C_R   0.164143 0.823899 0.470720 -0.184435
C11   C     C_R   0.767510 0.199280 0.607885 -0.097071
C12   C     C_R   0.232489 0.800720 0.392115 -0.097073
C13   C     C_R   0.779338 0.136106 0.672598 -0.069271
C14   C     C_R   0.220661 0.863894 0.327402 -0.069254
C15   C     C_R   0.859496 0.049237 0.659199 -0.168178
C16   C     C_R   0.140504 0.950763 0.340801 -0.168178
C17   C     C_R   0.928382 0.023245 0.579816 0.112877
C18   C     C_R   0.071617 0.976755 0.420184 0.112874
C19   C     C_R   0.916421 0.088063 0.513440 0.120316
C20   C     C_R   0.083579 0.911937 0.486560 0.120317
C21   C     C_R   0.011877 0.935125 0.566416 -0.300718
C22   C     C_R   0.988123 0.064875 0.433583 -0.300715
H3    H     H_    0.868190 0.003269 0.712001 0.109889
H4    H     H_    0.131810 0.996731 0.287999 0.109892
C23   C     C_R   0.150355 0.001977 0.942526 -0.210678
C24   C     C_R   0.849654 0.998010 0.057486 -0.210547
H5    H     H_    0.264225 0.005762 0.896648 0.178932
H6    H     H_    0.735792 0.994227 0.103367 0.178983
C25   C     C_R   0.139191 0.070575 0.003973 0.405586
C26   C     C_R   0.860823 0.929408 0.996041 0.405524
C27   C     C_R   0.988236 0.068093 0.063300 -0.344424
C28   C     C_R   0.011767 0.931897 0.936707 -0.344400
C29   C     C_R   0.321318 0.478559 0.464452 -0.125191
C30   C     C_R   0.678682 0.521441 0.535547 -0.125195
H7    H     H_    0.181218 0.463265 0.437983 0.126713
H8    H     H_    0.818782 0.536735 0.562017 0.126712
C31   C     C_R   0.332472 0.542326 0.529528 -0.139746
C32   C     C_R   0.667528 0.457674 0.470471 -0.139744
H9    H     H_    0.200440 0.574388 0.551020 0.123392
H10   H     H_    0.799560 0.425612 0.448979 0.123392
C33   C     C_R   0.511292 0.564593 0.566039 -0.115049
C34   C     C_R   0.488708 0.435407 0.433961 -0.115046
C35   C     C_R   0.346661 0.507106 0.056792 0.386109
C36   C     C_R   0.653341 0.492893 0.943208 0.386111
C37   C     C_R   0.363591 0.570166 0.991163 -0.111947
C38   C     C_R   0.636409 0.429833 0.008837 -0.111954
H11   H     H_    0.257377 0.624816 0.985586 0.191163
H12   H     H_    0.742623 0.375183 0.014414 0.191160
C39   C     C_R   0.515032 0.564126 0.933570 -0.357508
C40   C     C_R   0.484969 0.435873 0.066430 -0.357520
H13   H     H_    0.825985 0.228353 0.481519 0.115930
H14   H     H_    0.174015 0.771647 0.518481 0.115931
H15   H     H_    0.706269 0.266919 0.618738 0.140389
H16   H     H_    0.293731 0.733080 0.381262 0.140395
N1    N     N_R   0.276005 0.144694 0.002073 0.231390
O21   O     O_R   0.216158 0.229670 0.005591 -0.393328
O22   O     O_R   0.455228 0.128355 0.982934 -0.404662
N2    N     N_R   0.724042 0.855273 0.997958 0.231396
O23   O     O_R   0.783916 0.770305 0.994367 -0.393317
O24   O     O_R   0.544880 0.871574 0.017217 -0.404649
N3    N     N_R   0.191596 0.518735 0.114386 0.232151
O25   O     O_R   0.182470 0.593419 0.158849 -0.395774
O26   O     O_R   0.039302 0.467100 0.107878 -0.364419
N4    N     N_R   0.808411 0.481266 0.885616 0.232147
O27   O     O_R   0.817562 0.406574 0.841164 -0.395786
O28   O     O_R   0.960691 0.532910 0.892119 -0.364407

loop_
_geom_bond_atom_site_label_1
_geom_bond_atom_site_label_2
_geom_bond_distance
_ccdc_geom_bond_type
C7    C22   1.488473 S    
C12   C14   1.389411 A    
N3    O25   1.300691 A    
C31   H9    1.082913 S    
C8    C21   1.488473 S    
O13   V3    1.709702 S    
O4    C2    1.301394 A    
V1    O19   1.704528 S    
N1    O21   1.301411 A    
C13   C15   1.393397 A    
C11   H15   1.082839 S    
O9    V1    2.001897 S    
C32   C34   1.408618 A    
C9    C11   1.393064 A    
N2    O24   1.301574 A    
O3    C1    1.301395 A    
C26   N2    1.436731 S    
O12   V4    2.001759 S    
C35   C40   1.415864 A    
C30   H8    1.082877 S    
C35   C37   1.402752 A    
O7    C3    1.296901 A    
C1    C34   1.489084 S    
O5    C7    1.294696 A    
O7    V1    2.004041 S    
O6    C8    1.294696 A    
C30   C33   1.406317 A    
O8    V2    2.004039 S    
O3    V1    2.002036 S    
O14   V4    1.709702 S    
C25   N1    1.436703 S    
C23   C25   1.405783 A    
C35   N3    1.430762 S    
C38   C40   1.404719 A    
C14   C16   1.393396 A    
C2    O12   1.296399 A    
C15   C17   1.416022 A    
C36   N4    1.430764 S    
C16   C18   1.416024 A    
C15   H3    1.081622 S    
N1    O22   1.301610 A    
C24   H6    1.083708 S    
O11   V3    2.001757 S    
O17   V3    1.997939 S    
C31   C33   1.408618 A    
C29   H7    1.082877 S    
H1    C14   1.082669 S    
H2    C13   1.082667 S    
V4    O20   2.159752 S    
N2    O23   1.301394 A    
C38   H12   1.083996 S    
O8    C4    1.296901 A    
C37   H11   1.083997 S    
C1    O11   1.296400 A    
C18   C20   1.425248 A    
O15   V3    2.001893 S    
C9    H13   1.081484 S    
C23   H5    1.083711 S    
C32   H10   1.082913 S    
C29   C34   1.406317 A    
N4    O28   1.300461 A    
C3    C40   1.488666 S    
V3    O19   2.159754 S    
O10   V2    2.001899 S    
O1    V3    1.998988 S    
C23   C28   1.404234 A    
C10   C20   1.416454 A    
C17   C19   1.425247 A    
C16   H4    1.081621 S    
O18   V4    1.997940 S    
C25   C27   1.418863 A    
O16   C6    1.302465 A    
O1    C3    1.299821 A    
C10   C12   1.393064 A    
C9    C19   1.416454 A    
V2    O20   1.704526 S    
C19   C22   1.419429 A    
C5    C27   1.490634 S    
C20   C21   1.419429 A    
O16   V4    2.001893 S    
C29   C31   1.400172 A    
O5    V1    2.002406 S    
O17   C7    1.296859 A    
O6    V2    2.002408 S    
O10   C6    1.295945 A    
O18   C8    1.296858 A    
C30   C32   1.400171 A    
O2    V4    1.998985 S    
C4    C39   1.488669 S    
O15   C5    1.302467 A    
C11   C13   1.389411 A    
C10   H14   1.081484 S    
C37   C39   1.404720 A    
N4    O27   1.300687 A    
C12   H16   1.082838 S    
O9    C5    1.295944 A    
O13   V1    2.152973 S    
C26   C28   1.418885 A    
O14   V2    2.152973 S    
O2    C4    1.299824 A    
C24   C27   1.404230 A    
O4    V2    2.002037 S    
C18   C22   1.419057 A    
C2    C33   1.489086 S    
C6    C28   1.490638 S    
C36   C39   1.415868 A    
N3    O26   1.300463 A    
C36   C38   1.402752 A    
C17   C21   1.419059 A    
C24   C26   1.405803 A    
