data_mof_unit_pretest_480.cif
_audit_creation_date              2012-10-26T18:34:22-0400
_audit_creation_method            fapswitch 2.2
_symmetry_space_group_name_H-M    P1
_symmetry_Int_Tables_number       1
_space_group_crystal_system       triclinic
_cell_length_a                    10.889803
_cell_length_b                    9.664484
_cell_length_c                    9.055482
_cell_angle_alpha                 89.662083
_cell_angle_beta                  93.699013
_cell_angle_gamma                 88.237295
_cell_volume                      950.572946029

loop_
_atom_site_label
_atom_site_type_symbol
_atom_type_description
_atom_site_fract_x
_atom_site_fract_y
_atom_site_fract_z
_atom_type_partial_charge
C1    C     C_R   0.262515 0.502618 0.508786 0.568280
C2    C     C_R   0.055764 0.629973 0.475777 0.007639
C3    C     C_R   0.870770 0.494952 0.469385 -0.047372
C4    C     C_R   0.126998 0.508123 0.517102 -0.055998
C5    C     C_R   0.438342 0.077041 0.388240 0.125373
C6    C     C_R   0.561406 0.923237 0.612021 0.127765
C7    C     C_R   0.561045 0.071209 0.612252 0.121613
C8    C     C_R   0.441117 0.929064 0.385989 0.114752
C9    C     C_2   0.133161 0.270327 0.631655 0.665006
C10   C     C_2   0.857023 0.737166 0.369122 0.667909
C11   C     C_2   0.891526 0.236869 0.458497 0.665541
C12   C     C_R   0.736583 0.498018 0.486968 0.573572
C13   C     C_2   0.107928 0.770480 0.479944 0.684416
C14   C     C_2   0.362974 0.152832 0.270549 0.636946
C15   C     C_2   0.633479 0.847987 0.732767 0.645230
C16   C     C_2   0.625075 0.140555 0.738721 0.638283
C17   C     C_2   0.384558 0.860759 0.253763 0.618498
C18   C     C_R   0.499639 0.500271 0.221045 0.571841
C19   C     C_R   0.500456 0.499733 0.778957 0.565374
C20   C     C_1   0.499955 0.500405 0.065668 0.012666
C21   C     C_1   0.500207 0.499656 0.934343 0.009188
C22   C     C_R   0.067391 0.383197 0.543491 0.014745
C23   C     C_R   0.929026 0.619758 0.441602 0.018791
C24   C     C_R   0.942086 0.372874 0.500658 0.008217
Cu1   Cu    Cu3+1 0.500000 0.640660 0.500000 1.109150
Cu2   Cu    Cu3+1 0.500000 0.359340 0.500000 1.101676
H1    H     H_    0.205010 0.075991 0.639532 0.367956
H2    H     H_    0.772803 0.921860 0.394922 0.327804
H3    H     H_    0.795449 0.129849 0.300519 0.342722
H4    H     H_    0.123309 0.954307 0.376253 0.388921
H5    H     H_    0.347265 0.219304 0.058345 0.366328
H6    H     H_    0.645565 0.788907 0.947283 0.367147
H7    H     H_    0.629641 0.183620 0.956681 0.361460
H8    H     H_    0.382753 0.834200 0.033083 0.370209
N1    N     N_R   0.500000 0.852070 0.500000 -0.303788
N2    N     N_R   0.500000 0.147930 0.500000 -0.310421
O1    O     O_R   0.319640 0.618740 0.499990 -0.453697
O2    O     O_R   0.154219 0.140708 0.569575 -0.625329
O3    O     O_2   0.807844 0.722942 0.245090 -0.490617
O4    O     O_R   0.838808 0.859632 0.446431 -0.586852
O5    O     O_2   0.907726 0.135894 0.539975 -0.394341
O6    O     O_R   0.825617 0.226002 0.321410 -0.660649
O7    O     O_2   0.166546 0.808633 0.591254 -0.470287
O8    O     O_R   0.083918 0.861656 0.360231 -0.603636
O9    O     O_2   0.258655 0.193821 0.292813 -0.474399
O10   O     O_R   0.408292 0.168961 0.130725 -0.622097
O11   O     O_2   0.736041 0.799995 0.712882 -0.442689
O12   O     O_R   0.680360 0.381260 0.500010 -0.462919
O13   O     O_R   0.587043 0.840052 0.872662 -0.633668
O14   O     O_2   0.720225 0.200634 0.722719 -0.457509
O15   O     O_R   0.577597 0.133613 0.878247 -0.615530
O16   O     O_2   0.299844 0.782703 0.264505 -0.469251
O17   O     O_R   0.429172 0.885742 0.115230 -0.614685
O18   O     O_R   0.680360 0.618740 0.500010 -0.475609
O19   O     O_R   0.319640 0.381260 0.499990 -0.469515
O20   O     O_R   0.500000 0.618760 0.288390 -0.479536
O21   O     O_R   0.500000 0.381240 0.711610 -0.483537
O22   O     O_R   0.500000 0.618760 0.711610 -0.487737
O23   O     O_R   0.500000 0.381240 0.288390 -0.484977
O24   O     O_2   0.173827 0.293933 0.757733 -0.488376

loop_
_geom_bond_atom_site_label_1
_geom_bond_atom_site_label_2
_ccdc_geom_bond_type
C5    C8    A    
C2    C4    A    
C16   O15   S    
C6    C7    A    
C3    C12   S    
Cu2   O12   S    
C10   C23   S    
H7    O15   S    
C4    C22   A    
C7    N2    A    
C18   O23   A    
C3    C23   A    
C8    C17   S    
Cu1   O20   S    
C18   O20   A    
C8    N1    A    
C12   O12   A    
C9    O24   D    
Cu2   O19   S    
C1    C4    S    
C5    C14   S    
C14   O10   S    
Cu1   Cu2   S    
C12   O18   A    
C19   O21   A    
H4    O8    S    
C3    C24   A    
Cu1   N1    S    
C17   O16   D    
Cu2   N2    S    
C7    C16   S    
C19   C21   S    
C16   O14   D    
C11   O5    D    
C14   O9    D    
C18   C20   S    
C15   O13   S    
C19   O22   A    
C1    O19   A    
H3    O6    S    
Cu2   O21   S    
C22   C24   A    
C9    C22   S    
H6    O13   S    
Cu1   O22   S    
H2    O4    S    
H1    O2    S    
C5    N2    A    
C17   O17   S    
C11   C24   S    
C13   O7    D    
Cu1   O18   S    
H8    O17   S    
C20   C21   T    
Cu2   O23   S    
C2    C23   A    
C2    C13   S    
C15   O11   D    
C9    O2    S    
C10   O4    S    
C11   O6    S    
Cu1   O1    S    
C6    C15   S    
C10   O3    D    
C13   O8    S    
C6    N1    A    
C1    O1    A    
H5    O10   S    
