data_mof_unit_pretest_1844.cif
_audit_creation_date              2012-12-10T16:44:37-0500
_audit_creation_method            fapswitch 2.2
_symmetry_space_group_name_H-M    P1
_symmetry_Int_Tables_number       1
_space_group_crystal_system       triclinic
_cell_length_a                    18.460675
_cell_length_b                    18.461371
_cell_length_c                    18.45669
_cell_angle_alpha                 119.793637
_cell_angle_beta                  119.761405
_cell_angle_gamma                 90.388419
_cell_volume                      4462.59586252

loop_
_atom_site_label
_atom_site_type_symbol
_atom_type_description
_atom_site_fract_x
_atom_site_fract_y
_atom_site_fract_z
_atom_type_partial_charge
C1    C     C_R   0.138474 0.361407 0.999656 0.851488
C2    C     C_R   0.903743 0.305912 0.263920 0.516196
C3    C     C_R   0.958518 0.358140 0.263483 0.069282
C4    C     C_R   0.861745 0.638800 0.000354 0.853475
C5    C     C_R   0.925536 0.357488 0.176329 -0.274656
C6    C     C_2   0.723596 0.779676 0.942544 -0.158043
C7    C     C_2   0.691203 0.803402 0.998882 -0.291550
C8    C     C_2   0.777326 0.721090 0.940135 -0.161296
C9    C     C_2   0.808853 0.696570 0.004327 -0.291177
C10   C     C_2   0.721503 0.280978 0.443805 -0.171301
C11   C     C_2   0.696673 0.192242 0.387701 -0.289350
C12   C     C_R   0.574208 0.143176 0.824356 -0.162532
C13   C     C_2   0.779392 0.337152 0.556179 -0.173301
C14   C     C_2   0.803825 0.304496 0.612268 -0.289384
C15   C     C_2   0.337151 0.280948 0.057524 -0.159114
C16   C     C_R   0.138561 0.638718 0.277037 0.847308
C17   C     C_2   0.304551 0.192213 0.001050 -0.292570
C18   C     C_2   0.280979 0.337119 0.059880 -0.160948
C19   C     C_2   0.192270 0.304510 0.995739 -0.292045
C20   C     C_2   0.218176 0.775455 0.937689 -0.163006
C21   C     C_2   0.306155 0.810784 0.006245 -0.289090
C22   C     C_2   0.162195 0.723656 0.941753 -0.165180
C23   C     C_R   0.662278 0.195515 0.912080 0.029439
C24   C     C_2   0.195422 0.688894 0.995044 -0.289689
C25   C     C_2   0.219064 0.778039 0.556213 -0.155957
C26   C     C_2   0.307814 0.803307 0.612259 -0.295545
C27   C     C_2   0.162881 0.719383 0.443868 -0.161208
C28   C     C_R   0.861217 0.361412 0.722960 0.848582
C29   C     C_2   0.195407 0.696402 0.387721 -0.296705
C30   C     C_R   0.638981 0.138407 0.277030 0.851083
C31   C     C_R   0.361618 0.861139 0.722953 0.852035
C32   C     C_R   0.638311 0.861168 0.999800 0.855010
C33   C     C_R   0.361427 0.138402 0.000198 0.854922
C34   C     C_R   0.716639 0.249877 0.912194 0.069612
C35   C     C_R   0.360443 0.860995 0.000670 0.857657
C36   C     C_R   0.639876 0.139863 0.999960 0.791261
C37   C     C_R   0.139612 0.638888 0.999282 0.859627
C38   C     C_R   0.860186 0.360099 0.000097 0.785357
C39   C     C_R   0.681310 0.250317 0.824587 -0.182963
C40   C     C_R   0.594925 0.197492 0.738748 -0.174172
C41   C     C_R   0.540879 0.143417 0.738011 0.166103
C42   C     C_3   0.901648 0.353984 0.402277 0.094574
C43   C     C_3   0.942870 0.358313 0.499626 -0.784240
C44   C     C_R   0.696022 0.196040 0.000027 -0.107185
C45   C     C_R   0.783223 0.250657 0.088293 0.015363
C46   C     C_R   0.837638 0.304906 0.088410 0.051269
C47   C     C_R   0.804063 0.304026 0.000199 -0.115859
C48   C     C_R   0.818041 0.250909 0.176216 -0.315580
H1    H     H_    0.701488 0.779822 0.045257 0.151439
H2    H     H_    0.314713 0.408170 0.116193 0.176505
H3    H     H_    0.719492 0.291978 0.821443 0.141578
H4    H     H_    0.156191 0.234531 0.936865 0.152087
H5    H     H_    0.185437 0.785727 0.877471 0.178086
H6    H     H_    0.340537 0.805658 0.070145 0.149552
H7    H     H_    0.091657 0.712994 0.898226 0.177311
H8    H     H_    0.264506 0.694337 0.034992 0.150121
H9    H     H_    0.185321 0.800103 0.593573 0.176610
H10   H     H_    0.343913 0.780902 0.578322 0.149493
H11   H     H_    0.091915 0.695414 0.406598 0.177929
H12   H     H_    0.792016 0.698443 0.883763 0.175224
H13   H     H_    0.265283 0.720526 0.421581 0.150601
H14   H     H_    0.570084 0.199338 0.673002 0.133645
H15   H     H_    0.529714 0.102005 0.821730 0.140085
H16   H     H_    0.779792 0.208285 0.178322 0.159513
H17   H     H_    0.969812 0.397930 0.178045 0.153509
H18   H     H_    0.709644 0.802996 0.894833 0.177347
H19   H     H_    0.078569 0.450449 0.342506 0.173070
H20   H     H_    0.082884 0.369848 0.360901 0.208325
H21   H     H_    0.435617 0.098264 0.593742 0.180134
H22   H     H_    0.447436 0.023135 0.620970 0.182975
H23   H     H_    0.797850 0.719483 0.063305 0.151918
H24   H     H_    0.828499 0.322592 0.355946 0.141254
H25   H     H_    0.917444 0.423128 0.424119 0.146107
H26   H     H_    0.016154 0.387533 0.546678 0.258927
H27   H     H_    0.918431 0.400352 0.544629 0.203659
H28   H     H_    0.924652 0.290720 0.480521 0.259751
H29   H     H_    0.699453 0.314738 0.406490 0.171837
H30   H     H_    0.718897 0.156081 0.421534 0.151398
H31   H     H_    0.801868 0.408262 0.593528 0.172571
H32   H     H_    0.781337 0.234441 0.578422 0.150986
H33   H     H_    0.408188 0.314700 0.105384 0.176330
H34   H     H_    0.234583 0.156117 0.954476 0.150971
N1    N     N_3   0.047431 0.412322 0.352658 -0.432950
N2    N     N_3   0.451288 0.089349 0.650892 -0.461372
O1    O     O_3   0.000000 0.500000 0.000000 -0.488957
O2    O     O_R   0.325040 0.054120 0.939900 -0.645389
O3    O     O_R   0.444330 0.884140 0.060080 -0.645437
O4    O     O_R   0.054210 0.325030 0.939940 -0.641485
O5    O     O_R   0.615830 0.175840 0.060080 -0.644569
O6    O     O_R   0.324160 0.884140 0.939910 -0.645007
O7    O     O_R   0.615850 0.055700 0.939930 -0.640474
O8    O     O_R   0.614980 0.885710 0.939940 -0.640545
O9    O     O_R   0.445830 0.174930 0.060060 -0.641967
O10   O     O_R   0.614300 0.054120 0.229160 -0.642606
O11   O     O_R   0.325070 0.885060 0.770830 -0.642129
O12   O     O_R   0.054160 0.614240 0.229150 -0.642995
O13   O     O_R   0.885070 0.614240 0.060060 -0.642110
O14   O     O_R   0.174980 0.614900 0.229170 -0.645204
O15   O     O_R   0.885740 0.445830 0.770840 -0.644727
O16   O     O_R   0.175880 0.615810 0.060090 -0.645715
O17   O     O_R   0.884210 0.324110 0.939920 -0.639538
O18   O     O_R   0.055710 0.615810 0.939920 -0.645988
O19   O     O_R   0.884190 0.444260 0.060070 -0.639623
O20   O     O_3   0.936639 0.304026 0.348310 -0.606903
O21   O     O_R   0.885120 0.325030 0.770840 -0.645044
O22   O     O_R   0.175010 0.445830 0.060100 -0.642959
O23   O     O_R   0.885710 0.614900 0.939900 -0.644678
O24   O     O_3   0.500040 0.999960 0.000000 -0.488851
O25   O     O_R   0.614930 0.174930 0.229160 -0.649272
O26   O     O_R   0.445880 0.885710 0.770850 -0.647664
O27   O     O_R   0.614330 0.885060 0.060100 -0.643190
Zn1   Zn    Zn3+2 0.956610 0.542450 0.085830 0.964767
Zn2   Zn    Zn3+2 0.129220 0.543380 0.085850 0.965875
Zn3   Zn    Zn3+2 0.957530 0.543380 0.914160 0.959584
Zn4   Zn    Zn3+2 0.956640 0.370790 0.914170 0.967406
Zn5   Zn    Zn3+2 0.543440 0.957510 0.914170 0.966946
Zn6   Zn    Zn3+2 0.542510 0.956570 0.085840 0.972280
Zn7   Zn    Zn3+2 0.370820 0.956570 0.914150 0.965649
Zn8   Zn    Zn3+2 0.543410 0.129170 0.085830 0.957998

loop_
_geom_bond_atom_site_label_1
_geom_bond_atom_site_label_2
_ccdc_geom_bond_type
C36   O5    A    
C15   C18   S    
C39   H3    S    
C13   H31   S    
H19   N1    S    
C32   O27   A    
C27   C29   D    
O25   Zn8   S    
O1    Zn1   S    
O15   Zn3   S    
C15   H33   S    
C32   O8    A    
C45   C46   A    
O12   Zn1   S    
C12   C23   A    
C18   H2    S    
C38   O19   A    
C25   H9    S    
O6    Zn7   S    
O1    Zn3   S    
O3    Zn6   S    
C38   O17   A    
C37   O18   A    
O10   Zn6   S    
C48   H16   S    
C40   H14   S    
O7    Zn5   S    
C17   H34   S    
C35   O3    A    
C19   H4    S    
O5    Zn8   S    
C11   C30   S    
C8    C9    D    
C14   H32   S    
H22   N2    S    
C1    O22   A    
C43   H26   S    
C26   C31   S    
C13   C14   D    
O24   Zn8   S    
C17   C33   S    
C10   H29   S    
O11   Zn7   S    
C43   H27   S    
C4    O23   A    
C29   H13   S    
C16   O12   A    
C1    C19   S    
O22   Zn2   S    
C34   C39   A    
O24   Zn7   S    
O1    Zn4   S    
C7    H1    S    
C5    H17   S    
C39   C40   A    
O13   Zn1   S    
C18   C19   D    
O14   Zn2   S    
C6    C8    S    
C30   O25   A    
C2    C48   A    
C16   C29   S    
C41   N2    S    
C23   C44   A    
C33   O9    A    
O19   Zn1   S    
C33   O2    A    
O23   Zn3   S    
C12   C41   A    
O18   Zn3   S    
C11   H30   S    
C26   H10   S    
C2    O20   S    
C28   O21   A    
C23   C34   A    
C12   H15   S    
C42   H24   S    
C24   C37   S    
O2    Zn7   S    
O8    Zn5   S    
C38   C47   S    
C22   H7    S    
C36   O7    A    
C40   C41   A    
C20   C22   S    
C3    N1    S    
O17   Zn4   S    
C22   C24   D    
C36   C44   S    
C25   C27   S    
C42   C43   S    
O26   Zn5   S    
C44   C45   A    
C28   O15   A    
C45   C48   A    
C43   H28   S    
C15   C17   D    
C46   C47   A    
C42   H25   S    
C7    C32   S    
H20   N1    S    
O24   Zn6   S    
O21   Zn4   S    
O16   Zn2   S    
C9    H23   S    
C20   H5    S    
C3    C5    A    
C10   C13   S    
C42   O20   S    
C6    C7    D    
C21   C35   S    
C24   H8    S    
C5    C46   A    
O27   Zn6   S    
O24   Zn5   S    
O4    Zn4   S    
O1    Zn2   S    
C2    C3    A    
C25   C26   D    
C30   O10   A    
H21   N2    S    
C27   H11   S    
C8    H12   S    
C16   O14   A    
C21   H6    S    
C1    O4    A    
C31   O11   A    
C31   O26   A    
C10   C11   D    
C35   O6    A    
C6    H18   S    
C20   C21   D    
C34   C47   A    
O9    Zn8   S    
C14   C28   S    
C4    C9    S    
C4    O13   A    
C37   O16   A    
