data_mof_unit_pretest_1833.cif
_audit_creation_date              2012-12-10T17:59:46-0500
_audit_creation_method            fapswitch 2.2
_symmetry_space_group_name_H-M    P1
_symmetry_Int_Tables_number       1
_space_group_crystal_system       triclinic
_cell_length_a                    18.288288
_cell_length_b                    18.288291
_cell_length_c                    34.453632
_cell_angle_alpha                 89.999983
_cell_angle_beta                  90.0
_cell_angle_gamma                 89.999971
_cell_volume                      11523.4145705

loop_
_atom_site_label
_atom_site_type_symbol
_atom_type_description
_atom_site_fract_x
_atom_site_fract_y
_atom_site_fract_z
_atom_type_partial_charge
C1    C     C_R   0.933500 0.499999 0.418824 -0.176000
C2    C     C_R   0.566500 0.000041 0.081176 -0.176001
C3    C     C_R   0.499982 0.933037 0.540703 0.098059
C4    C     C_R   0.933037 0.499999 0.459297 0.098060
C5    C     C_R   0.066963 0.500001 0.540703 0.098059
C6    C     C_R   0.499981 0.933037 0.459297 0.098059
C7    C     C_R   0.500019 0.066962 0.540703 0.098059
C8    C     C_R   0.566963 0.000042 0.959297 0.098059
C9    C     C_R   0.433037 0.999958 0.040703 0.098059
C10   C     C_R   0.000003 0.566963 0.959297 0.098059
C11   C     C_R   0.999997 0.433037 0.040703 0.098060
C12   C     C_R   0.433037 0.999958 0.959297 0.098060
C13   C     C_R   0.999998 0.433500 0.918824 -0.176000
C14   C     C_R   0.566963 0.000042 0.040703 0.098060
C15   C     C_R   0.999998 0.433037 0.959297 0.098060
C16   C     C_R   0.000002 0.566963 0.040703 0.098059
C17   C     C_R   0.196150 0.696150 0.250000 -0.327046
C18   C     C_R   0.803850 0.303850 0.750000 -0.327043
C19   C     C_R   0.303850 0.196150 0.250000 -0.327045
C20   C     C_R   0.696150 0.803850 0.750000 -0.327045
C21   C     C_R   0.803850 0.303850 0.250000 -0.327043
C22   C     C_R   0.196150 0.696150 0.750000 -0.327046
C23   C     C_R   0.696150 0.803850 0.250000 -0.327045
C24   C     C_R   0.000002 0.566500 0.081176 -0.175999
C25   C     C_R   0.303850 0.196150 0.750000 -0.327045
C26   C     C_R   0.196150 0.303850 0.750000 -0.327043
C27   C     C_R   0.803850 0.696150 0.250000 -0.327044
C28   C     C_R   0.303850 0.803850 0.750000 -0.327044
C29   C     C_R   0.696150 0.196150 0.250000 -0.327042
C30   C     C_R   0.803850 0.696150 0.750000 -0.327044
C31   C     C_R   0.196150 0.303850 0.250000 -0.327043
C32   C     C_R   0.696150 0.196150 0.750000 -0.327041
C33   C     C_R   0.303850 0.803850 0.250000 -0.327044
C34   C     C_R   0.000000 0.500000 0.479637 0.070025
C35   C     C_R   0.566500 0.000041 0.918824 -0.176000
C36   C     C_R   1.000000 0.500000 0.520363 0.070025
C37   C     C_R   0.500000 0.000000 0.479637 0.070026
C38   C     C_R   0.500000 1.000000 0.520363 0.070026
C39   C     C_R   0.500000 1.000000 0.979637 0.070025
C40   C     C_R   0.500000 0.000000 0.020363 0.070025
C41   C     C_R   0.000000 0.500000 0.979637 0.070024
C42   C     C_R   1.000000 0.500000 0.020363 0.070024
C43   C     C_R   0.433500 0.999959 0.081176 -0.176000
C44   C     C_R   0.000003 0.566500 0.918824 -0.175999
C45   C     C_R   0.999997 0.433500 0.081176 -0.176000
C46   C     C_R   1.000000 0.500000 0.398488 -0.052312
C47   C     C_R   0.000000 0.500000 0.601512 -0.052311
C48   C     C_R   0.499999 0.000000 0.398488 -0.052313
C49   C     C_R   0.066500 0.500001 0.581176 -0.175999
C50   C     C_R   0.500001 1.000000 0.601512 -0.052312
C51   C     C_R   0.500000 1.000000 0.898488 -0.052312
C52   C     C_R   0.500000 0.000000 0.101512 -0.052312
C53   C     C_R   0.000000 0.500000 0.898488 -0.052311
C54   C     C_R   1.000000 0.500000 0.101512 -0.052311
C55   C     C_R   0.133218 0.500002 0.479759 -0.156788
C56   C     C_R   0.866782 0.499998 0.520241 -0.156788
C57   C     C_R   0.500036 0.133218 0.479759 -0.156789
C58   C     C_R   0.499964 0.866782 0.520241 -0.156789
C59   C     C_R   0.866782 0.499998 0.479759 -0.156789
C60   C     C_R   0.499981 0.933501 0.418824 -0.176000
C61   C     C_R   0.133218 0.500002 0.520241 -0.156788
C62   C     C_R   0.499963 0.866782 0.479759 -0.156789
C63   C     C_R   0.500037 0.133217 0.520241 -0.156790
C64   C     C_R   0.633218 0.000083 0.979759 -0.156789
C65   C     C_R   0.366782 0.999916 0.020241 -0.156789
C66   C     C_R   0.000006 0.633218 0.979759 -0.156788
C67   C     C_R   0.999994 0.366782 0.020241 -0.156789
C68   C     C_R   0.366782 0.999916 0.979759 -0.156789
C69   C     C_R   0.633218 0.000083 0.020241 -0.156789
C70   C     C_R   0.999995 0.366782 0.979759 -0.156789
C71   C     C_R   0.500019 0.066499 0.581176 -0.176002
C72   C     C_R   0.000005 0.633218 0.020241 -0.156788
C73   C     C_R   0.500000 0.000000 0.356013 0.873554
C74   C     C_R   0.500000 0.000000 0.643987 0.873554
C75   C     C_R   0.000000 0.500000 0.356013 0.873554
C76   C     C_R   1.000000 0.500000 0.643987 0.873554
C77   C     C_R   0.000000 0.500000 0.856013 0.873554
C78   C     C_R   1.000000 0.500000 0.143987 0.873554
C79   C     C_R   0.500000 1.000000 0.856013 0.873553
C80   C     C_R   0.500000 0.000000 0.143987 0.873553
C81   C     C_R   0.359987 0.140013 0.250000 0.966263
C82   C     C_R   0.066500 0.500001 0.418824 -0.176000
C83   C     C_R   0.640013 0.859987 0.750000 0.966262
C84   C     C_R   0.859987 0.359987 0.250000 0.966264
C85   C     C_R   0.140013 0.640013 0.750000 0.966261
C86   C     C_R   0.640013 0.859987 0.250000 0.966263
C87   C     C_R   0.359987 0.140013 0.750000 0.966263
C88   C     C_R   0.140013 0.640013 0.250000 0.966260
C89   C     C_R   0.859987 0.359987 0.750000 0.966264
C90   C     C_R   0.359987 0.859987 0.750000 0.966261
C91   C     C_R   0.640013 0.140013 0.250000 0.966264
C92   C     C_R   0.859987 0.640013 0.750000 0.966262
C93   C     C_R   0.933500 0.499999 0.581176 -0.176000
C94   C     C_R   0.140013 0.359987 0.250000 0.966263
C95   C     C_R   0.640013 0.140013 0.750000 0.966264
C96   C     C_R   0.359987 0.859987 0.250000 0.966260
C97   C     C_R   0.140013 0.359987 0.750000 0.966263
C98   C     C_R   0.859987 0.640013 0.250000 0.966263
C99   C     C_R   0.284228 0.769756 0.214899 0.312675
C100  C     C_R   0.715769 0.230247 0.785100 0.312675
C101  C     C_R   0.230248 0.284232 0.214900 0.312672
C102  C     C_R   0.769753 0.715769 0.785100 0.312673
C103  C     C_R   0.715769 0.230247 0.214900 0.312675
C104  C     C_R   0.500017 0.066500 0.418824 -0.176001
C105  C     C_R   0.284229 0.769755 0.785101 0.312676
C106  C     C_R   0.769753 0.715769 0.214900 0.312673
C107  C     C_R   0.230247 0.284231 0.785100 0.312672
C108  C     C_R   0.284231 0.230247 0.785100 0.312675
C109  C     C_R   0.715768 0.769753 0.214900 0.312674
C110  C     C_R   0.230245 0.715771 0.785101 0.312677
C111  C     C_R   0.769753 0.284231 0.214900 0.312675
C112  C     C_R   0.715769 0.769753 0.785100 0.312673
C113  C     C_R   0.284232 0.230248 0.214900 0.312674
C114  C     C_R   0.769753 0.284231 0.785100 0.312675
C115  C     C_R   0.499983 0.933500 0.581176 -0.175999
C116  C     C_R   0.230244 0.715772 0.214899 0.312676
C117  C     C_R   0.784231 0.269753 0.714900 0.312674
C118  C     C_R   0.215772 0.730244 0.285101 0.312675
C119  C     C_R   0.730247 0.784231 0.714900 0.312674
C120  C     C_R   0.269752 0.215768 0.285100 0.312674
C121  C     C_R   0.215771 0.730245 0.714899 0.312675
C122  C     C_R   0.784231 0.269753 0.285100 0.312675
C123  C     C_R   0.269753 0.215769 0.714900 0.312673
C124  C     C_R   0.730247 0.784231 0.285100 0.312675
C125  C     C_R   0.784231 0.730247 0.285100 0.312674
C126  C     C_R   0.433500 0.999959 0.918824 -0.176000
C127  C     C_R   0.215769 0.269753 0.714900 0.312675
C128  C     C_R   0.730247 0.215769 0.285100 0.312674
C129  C     C_R   0.269755 0.784229 0.714899 0.312675
C130  C     C_R   0.215768 0.269752 0.285100 0.312674
C131  C     C_R   0.784231 0.730247 0.714900 0.312673
C132  C     C_R   0.269756 0.784228 0.285101 0.312675
C133  C     C_R   0.730247 0.215769 0.714900 0.312674
C134  C     C_R   0.066963 0.500001 0.459297 0.098059
C135  C     C_R   0.933037 0.499999 0.540703 0.098059
C136  C     C_R   0.500018 0.066963 0.459297 0.098060
Cl1   Cl    Cl    0.329486 0.791969 0.171000 -0.469084
Cl2   Cl    Cl    0.670506 0.791962 0.171001 -0.469054
Cl3   Cl    Cl    0.208033 0.670511 0.829000 -0.469072
Cl4   Cl    Cl    0.791963 0.329492 0.171001 -0.469073
Cl5   Cl    Cl    0.670508 0.791964 0.828999 -0.469053
Cl6   Cl    Cl    0.329494 0.208039 0.171002 -0.469052
Cl7   Cl    Cl    0.791962 0.329493 0.828998 -0.469073
Cl8   Cl    Cl    0.208031 0.670514 0.171000 -0.469071
Cl9   Cl    Cl    0.829493 0.291963 0.671001 -0.469070
Cl10  Cl    Cl    0.170513 0.708031 0.329000 -0.469069
Cl11  Cl    Cl    0.708036 0.829492 0.671001 -0.469061
Cl12  Cl    Cl    0.670507 0.208037 0.828998 -0.469085
Cl13  Cl    Cl    0.291961 0.170505 0.328998 -0.469063
Cl14  Cl    Cl    0.170511 0.708034 0.671000 -0.469069
Cl15  Cl    Cl    0.829492 0.291963 0.328999 -0.469070
Cl16  Cl    Cl    0.291963 0.170507 0.671001 -0.469062
Cl17  Cl    Cl    0.708038 0.829493 0.328999 -0.469061
Cl18  Cl    Cl    0.829493 0.708038 0.328999 -0.469069
Cl19  Cl    Cl    0.170507 0.291963 0.671001 -0.469067
Cl20  Cl    Cl    0.708037 0.170508 0.328999 -0.469075
Cl21  Cl    Cl    0.291967 0.829489 0.671000 -0.469074
Cl22  Cl    Cl    0.170506 0.291961 0.328998 -0.469067
Cl23  Cl    Cl    0.208039 0.329494 0.171002 -0.469066
Cl24  Cl    Cl    0.829492 0.708036 0.671001 -0.469067
Cl25  Cl    Cl    0.291969 0.829486 0.329000 -0.469074
Cl26  Cl    Cl    0.708037 0.170507 0.671001 -0.469076
Cl27  Cl    Cl    0.791964 0.670508 0.828999 -0.469064
Cl28  Cl    Cl    0.670508 0.208037 0.171001 -0.469085
Cl29  Cl    Cl    0.329489 0.791967 0.829000 -0.469085
Cl30  Cl    Cl    0.791962 0.670507 0.171001 -0.469065
Cl31  Cl    Cl    0.208037 0.329493 0.828999 -0.469065
Cl32  Cl    Cl    0.329493 0.208037 0.828998 -0.469052
H1    H     H_    0.184985 0.500003 0.464455 0.172469
H2    H     H_    0.315015 0.999884 0.035545 0.172469
H3    H     H_    0.000008 0.684985 0.964455 0.172469
H4    H     H_    0.999992 0.315015 0.035545 0.172469
H5    H     H_    0.315015 0.999884 0.964455 0.172469
H6    H     H_    0.684985 0.000116 0.035545 0.172469
H7    H     H_    0.999993 0.315015 0.964455 0.172469
H8    H     H_    0.000007 0.684985 0.035545 0.172469
H9    H     H_    0.882029 0.499997 0.403203 0.190513
H10   H     H_    0.117971 0.500003 0.596796 0.190513
H11   H     H_    0.499966 0.882030 0.403203 0.190514
H12   H     H_    0.815015 0.499997 0.535545 0.172469
H13   H     H_    0.500034 0.117969 0.596796 0.190513
H14   H     H_    0.117971 0.500002 0.403203 0.190513
H15   H     H_    0.882029 0.499998 0.596796 0.190513
H16   H     H_    0.500032 0.117970 0.403203 0.190513
H17   H     H_    0.499968 0.882030 0.596796 0.190514
H18   H     H_    0.382029 0.999926 0.903203 0.190513
H19   H     H_    0.617970 0.000074 0.096796 0.190513
H20   H     H_    0.999996 0.382029 0.903204 0.190512
H21   H     H_    0.000004 0.617971 0.096796 0.190513
H22   H     H_    0.617970 0.000074 0.903204 0.190513
H23   H     H_    0.500050 0.184985 0.464455 0.172469
H24   H     H_    0.382030 0.999926 0.096796 0.190513
H25   H     H_    0.000005 0.617971 0.903204 0.190513
H26   H     H_    0.999995 0.382029 0.096796 0.190512
H27   H     H_    0.499950 0.815015 0.535545 0.172469
H28   H     H_    0.815015 0.499997 0.464455 0.172469
H29   H     H_    0.184985 0.500003 0.535545 0.172469
H30   H     H_    0.499948 0.815016 0.464455 0.172470
H31   H     H_    0.500052 0.184984 0.535545 0.172470
H32   H     H_    0.684985 0.000116 0.964455 0.172469
O1    O     O_3   0.500000 0.000000 0.250000 -0.552663
O2    O     O_R   0.500000 0.939270 0.662450 -0.622972
O3    O     O_R   0.939270 0.500000 0.337550 -0.622973
O4    O     O_R   0.060730 0.500000 0.662450 -0.622973
O5    O     O_R   0.000000 0.439270 0.837550 -0.622973
O6    O     O_R   0.000000 0.560730 0.162450 -0.622972
O7    O     O_R   0.560730 0.000000 0.837550 -0.622972
O8    O     O_R   0.439270 0.000000 0.162450 -0.622971
O9    O     O_R   0.000000 0.560730 0.837550 -0.622972
O10   O     O_R   0.000000 0.439270 0.162450 -0.622973
O11   O     O_R   0.439270 0.000000 0.837550 -0.622972
O12   O     O_3   0.500000 1.000000 0.750000 -0.552663
O13   O     O_R   0.560730 0.000000 0.162450 -0.622973
O14   O     O_R   0.414490 0.146150 0.273020 -0.608177
O15   O     O_R   0.585510 0.853850 0.726980 -0.608176
O16   O     O_R   0.853850 0.414490 0.273020 -0.608177
O17   O     O_R   0.146150 0.585510 0.726980 -0.608176
O18   O     O_R   0.585510 0.853850 0.273020 -0.608176
O19   O     O_R   0.414490 0.146150 0.726980 -0.608176
O20   O     O_R   0.146150 0.585510 0.273020 -0.608175
O21   O     O_R   0.853850 0.414490 0.726980 -0.608177
O22   O     O_R   0.414490 0.853850 0.726980 -0.608176
O23   O     O_3   0.000000 0.500000 0.250000 -0.552663
O24   O     O_R   0.585510 0.146150 0.273020 -0.608177
O25   O     O_R   0.853850 0.585510 0.726980 -0.608177
O26   O     O_R   0.146150 0.414490 0.273020 -0.608177
O27   O     O_R   0.585510 0.146150 0.726980 -0.608177
O28   O     O_R   0.414490 0.853850 0.273020 -0.608176
O29   O     O_R   0.146150 0.414490 0.726980 -0.608177
O30   O     O_R   0.853850 0.585510 0.273020 -0.608177
O31   O     O_R   0.914490 0.646150 0.773020 -0.608176
O32   O     O_R   0.085510 0.353850 0.226980 -0.608177
O33   O     O_R   0.353850 0.914490 0.773020 -0.608178
O34   O     O_3   0.000000 0.500000 0.750000 -0.552663
O35   O     O_R   0.646150 0.085510 0.226980 -0.608178
O36   O     O_R   0.085510 0.353850 0.773020 -0.608176
O37   O     O_R   0.914490 0.646150 0.226980 -0.608177
O38   O     O_R   0.646150 0.085510 0.773020 -0.608179
O39   O     O_R   0.353850 0.914490 0.226980 -0.608177
O40   O     O_R   0.914490 0.353850 0.226980 -0.608177
O41   O     O_R   0.085510 0.646150 0.773020 -0.608176
O42   O     O_R   0.353850 0.085510 0.226980 -0.608175
O43   O     O_R   0.646150 0.914490 0.773020 -0.608174
O44   O     O_R   0.085510 0.646150 0.226980 -0.608176
O45   O     O_R   0.500000 0.939270 0.337550 -0.622972
O46   O     O_R   0.914490 0.353850 0.773020 -0.608177
O47   O     O_R   0.646150 0.914490 0.226980 -0.608175
O48   O     O_R   0.353850 0.085510 0.773020 -0.608175
O49   O     O_R   0.500000 0.060730 0.662450 -0.622973
O50   O     O_R   0.060730 0.500000 0.337550 -0.622972
O51   O     O_R   0.939270 0.500000 0.662450 -0.622973
O52   O     O_R   0.500000 0.060730 0.337550 -0.622973
Zn1   Zn    Zn3+2 0.413190 0.000000 0.217350 1.077175
Zn2   Zn    Zn3+2 0.086810 0.500000 0.282650 1.077175
Zn3   Zn    Zn3+2 0.500000 0.913190 0.717350 1.077175
Zn4   Zn    Zn3+2 0.500000 0.086810 0.282650 1.077174
Zn5   Zn    Zn3+2 0.086810 0.500000 0.717350 1.077175
Zn6   Zn    Zn3+2 0.913190 0.500000 0.282650 1.077174
Zn7   Zn    Zn3+2 0.500000 0.086810 0.717350 1.077175
Zn8   Zn    Zn3+2 0.500000 0.913190 0.282650 1.077175
Zn9   Zn    Zn3+2 0.586810 0.000000 0.782650 1.077175
Zn10  Zn    Zn3+2 0.000000 0.413190 0.217350 1.077174
Zn11  Zn    Zn3+2 1.000000 0.586810 0.782650 1.077175
Zn12  Zn    Zn3+2 0.586810 0.000000 0.217350 1.077175
Zn13  Zn    Zn3+2 0.413190 0.000000 0.782650 1.077175
Zn14  Zn    Zn3+2 1.000000 0.586810 0.217350 1.077175
Zn15  Zn    Zn3+2 0.000000 0.413190 0.782650 1.077174
Zn16  Zn    Zn3+2 0.913190 0.500000 0.717350 1.077175

loop_
_geom_bond_atom_site_label_1
_geom_bond_atom_site_label_2
_ccdc_geom_bond_type
C58   C62   A    
O34   Zn5   S    
C105  C110  A    
C36   C135  A    
C27   C98   S    
O10   Zn10  S    
C86   O47   A    
C67   H4    S    
C91   O35   A    
C17   C88   S    
C101  C113  A    
C41   C42   A    
C71   H13   S    
C102  C112  A    
C16   C72   A    
O1    Zn12  S    
O16   Zn6   S    
C14   C40   A    
C117  C133  A    
C133  Cl26  S    
C18   C114  A    
C129  Cl21  S    
C94   O32   A    
C87   O48   A    
C47   C49   A    
C98   O37   A    
O22   Zn3   S    
C121  Cl14  S    
C60   H11   S    
C79   O11   A    
C74   O49   A    
C12   C68   A    
C105  Cl29  S    
C44   H25   S    
O35   Zn12  S    
O32   Zn10  S    
C120  C130  A    
C106  Cl30  S    
C103  C111  A    
C110  Cl3   S    
C132  Cl25  S    
C100  Cl12  S    
C47   C76   S    
C57   H23   S    
C31   C130  A    
C77   O5    A    
C50   C74   S    
C51   C79   S    
C7    C71   A    
C32   C133  A    
C115  H17   S    
C79   O7    A    
C43   C52   A    
C73   O45   A    
C34   C134  A    
C119  Cl11  S    
C30   C131  A    
C48   C104  A    
C5    C36   A    
C83   O43   A    
C58   H27   S    
O11   Zn13  S    
O17   Zn5   S    
C113  Cl6   S    
C29   C103  A    
C11   C42   A    
C117  Cl9   S    
C50   C115  A    
C86   O18   A    
C22   C85   S    
C21   C122  A    
O45   Zn8   S    
C85   O17   A    
C2    H19   S    
O23   Zn14  S    
C98   O30   A    
C1    H9    S    
C44   C53   A    
C7    C38   A    
C97   O29   A    
O28   Zn8   S    
O5    Zn15  S    
C3    C38   A    
C46   C82   A    
C102  Cl27  S    
C22   C110  A    
C23   C86   S    
O20   Zn2   S    
O39   Zn1   S    
O36   Zn15  S    
C119  C131  A    
C107  C108  A    
C57   C136  A    
C48   C60   A    
C24   H21   S    
C8    C39   A    
C87   O19   A    
C75   O50   A    
C70   H7    S    
C78   O10   A    
O25   Zn16  S    
O44   Zn14  S    
O47   Zn12  S    
O3    Zn6   S    
C77   O9    A    
O50   Zn2   S    
O52   Zn4   S    
C73   O52   A    
C108  Cl32  S    
C2    C14   A    
C16   C24   A    
C13   H20   S    
C20   C112  A    
C124  Cl17  S    
O23   Zn10  S    
C10   C41   A    
C18   C89   S    
C5    C49   A    
C20   C83   S    
C84   O40   A    
C94   O26   A    
O49   Zn7   S    
O7    Zn9   S    
C25   C108  A    
O15   Zn3   S    
C46   C75   S    
C21   C111  A    
C11   C67   A    
C111  Cl4   S    
C57   C63   A    
C13   C53   A    
C10   C66   A    
C23   C109  A    
C66   C72   A    
O12   Zn9   S    
C9    C43   A    
O13   Zn12  S    
C10   C44   A    
O30   Zn6   S    
C66   H3    S    
C126  H18   S    
C100  C114  A    
C62   H30   S    
C116  Cl8   S    
C30   C92   S    
C61   H29   S    
C99   C116  A    
C75   O3    A    
O48   Zn13  S    
C107  Cl31  S    
C92   O31   A    
O12   Zn13  S    
C97   O36   A    
O14   Zn4   S    
C45   C54   A    
C9    C40   A    
C88   O20   A    
C90   O33   A    
O37   Zn14  S    
C33   C99   A    
C95   O38   A    
C112  Cl5   S    
C82   C134  A    
C53   C77   S    
C50   C71   A    
C78   O6    A    
C88   O44   A    
C37   C38   A    
C6    C60   A    
C81   O42   A    
O4    Zn5   S    
O34   Zn16  S    
C81   O14   A    
C21   C84   S    
C118  Cl10  S    
C28   C105  A    
C65   C68   A    
C30   C102  A    
C9    C65   A    
C85   O41   A    
C47   C93   A    
C6    C37   A    
C5    C61   A    
O6    Zn14  S    
O12   Zn3   S    
C64   C69   A    
C25   C123  A    
C18   C117  A    
C7    C63   A    
C80   O13   A    
C2    C52   A    
C17   C118  A    
C8    C64   A    
C33   C132  A    
O34   Zn11  S    
C104  H16   S    
C89   O46   A    
C35   H22   S    
C8    C35   A    
C13   C15   A    
C31   C94   S    
C35   C51   A    
C59   H28   S    
C14   C69   A    
C11   C45   A    
O19   Zn7   S    
C69   H6    S    
C76   O51   A    
C127  Cl19  S    
O46   Zn15  S    
O1    Zn4   S    
C33   C96   S    
C96   O28   A    
C123  C127  A    
C29   C91   S    
C56   C135  A    
C125  Cl18  S    
O24   Zn4   S    
C22   C121  A    
C49   H10   S    
C56   H12   S    
C45   H26   S    
C28   C129  A    
C15   C70   A    
O31   Zn11  S    
C123  Cl16  S    
C37   C136  A    
C104  C136  A    
C80   O8    A    
C51   C126  A    
C52   C80   S    
C48   C73   S    
C99   Cl1   S    
C121  C129  A    
C25   C87   S    
C93   C135  A    
C26   C127  A    
C26   C107  A    
C19   C120  A    
O23   Zn6   S    
C83   O15   A    
C68   H5    S    
C76   O4    A    
O2    Zn3   S    
C103  Cl28  S    
C23   C124  A    
O9    Zn11  S    
O27   Zn7   S    
C120  Cl13  S    
C55   C134  A    
C74   O2    A    
C82   H14   S    
O12   Zn7   S    
C27   C106  A    
C56   C59   A    
C65   H2    S    
C130  Cl22  S    
C1    C4    A    
O18   Zn8   S    
C122  Cl15  S    
C67   C70   A    
C12   C39   A    
C64   H32   S    
O1    Zn8   S    
O8    Zn1   S    
O21   Zn16  S    
C3    C115  A    
C114  Cl7   S    
C89   O21   A    
C27   C125  A    
O23   Zn2   S    
C6    C62   A    
O34   Zn15  S    
C31   C101  A    
O1    Zn1   S    
C55   C61   A    
C4    C59   A    
C96   O39   A    
O40   Zn10  S    
C63   H31   S    
C34   C36   A    
C16   C42   A    
C72   H8    S    
C4    C34   A    
C122  C128  A    
C131  Cl24  S    
C1    C46   A    
C26   C97   S    
C95   O27   A    
C118  C132  A    
C92   O25   A    
C128  Cl20  S    
C15   C41   A    
O33   Zn13  S    
C39   C40   A    
C3    C58   A    
C32   C100  A    
O26   Zn2   S    
C32   C95   S    
C12   C126  A    
C101  Cl23  S    
C43   H24   S    
O41   Zn11  S    
C29   C128  A    
O42   Zn1   S    
C19   C113  A    
C109  Cl2   S    
O38   Zn9   S    
C28   C90   S    
O43   Zn9   S    
C91   O24   A    
C19   C81   S    
C93   H15   S    
C24   C54   A    
O51   Zn16  S    
C55   H1    S    
C20   C119  A    
C84   O16   A    
C17   C116  A    
O29   Zn5   S    
C124  C125  A    
C54   C78   S    
C106  C109  A    
C90   O22   A    
