data_mof_unit_pretest_793.cif
_audit_creation_date              2012-12-11T16:22:12-0500
_audit_creation_method            fapswitch 2.2
_symmetry_space_group_name_H-M    P1
_symmetry_Int_Tables_number       1
_space_group_crystal_system       triclinic
_cell_length_a                    19.731593
_cell_length_b                    6.981456
_cell_length_c                    17.74737
_cell_angle_alpha                 90.172872
_cell_angle_beta                  108.036841
_cell_angle_gamma                 89.489959
_cell_volume                      2324.5582102

loop_
_atom_site_label
_atom_site_type_symbol
_atom_type_description
_atom_site_fract_x
_atom_site_fract_y
_atom_site_fract_z
_atom_type_partial_charge
O1    O     O_R   0.561700 0.369960 0.440190 -0.540379
O2    O     O_R   0.061700 0.630040 0.940190 -0.541814
O3    O     O_R   0.413790 0.033680 0.407460 -0.513442
O4    O     O_R   0.913790 0.966320 0.907460 -0.511915
O5    O     O_R   0.438300 0.869760 0.559810 -0.548849
O6    O     O_R   0.938300 0.130240 0.059810 -0.545590
C1    C     C_R   0.386684 0.203010 0.385400 0.781392
C2    C     C_R   0.886375 0.797999 0.886052 0.769094
O7    O     O_R   0.559630 0.039830 0.430710 -0.535658
O8    O     O_R   0.059630 0.960170 0.930710 -0.548334
O9    O     O_R   0.585190 0.875950 0.583220 -0.560248
O10   O     O_R   0.085190 0.124050 0.083220 -0.554736
C3    C     C_R   0.581963 0.208384 0.417014 0.707800
C4    C     C_R   0.079836 0.789395 0.914323 0.725927
O11   O     O_R   0.414810 0.363770 0.416780 -0.532027
O12   O     O_R   0.914810 0.636230 0.916780 -0.535991
O13   O     O_3   0.508210 0.205480 0.550010 -0.379972
O14   O     O_3   0.008210 0.794520 0.050010 -0.376135
V1    V     V_3+5 0.498480 0.928140 0.490720 1.525435
V2    V     V_3+5 0.998480 0.071860 0.990720 1.481719
O15   O     O_R   0.586210 0.546600 0.592540 -0.516019
O16   O     O_R   0.086210 0.453400 0.092540 -0.513368
C5    C     C_R   0.613472 0.713958 0.614909 0.691380
C6    C     C_R   0.114499 0.284978 0.113408 0.698549
O17   O     O_R   0.440370 0.540460 0.569290 -0.546683
O18   O     O_R   0.940370 0.459540 0.069290 -0.545243
C7    C     C_R   0.420179 0.710566 0.585428 0.719340
C8    C     C_R   0.918335 0.291237 0.083843 0.718733
V3    V     V_3+5 0.501520 0.428910 0.509280 1.523244
V4    V     V_3+5 0.001520 0.571090 0.009280 1.502946
O19   O     O_3   0.491790 0.701440 0.449990 -0.353359
O20   O     O_3   0.991790 0.298560 0.949990 -0.371093
C9    C     C_R   0.300701 0.922706 0.696206 0.480172
C10   C     C_R   0.781704 0.094297 0.175432 0.449238
C11   C     C_R   0.342828 0.903809 0.645967 -0.182504
C12   C     C_R   0.829957 0.108917 0.131844 -0.189105
H1    H     H_    0.352901 0.030038 0.615821 0.157904
H2    H     H_    0.838095 0.985402 0.098467 0.156399
C13   C     C_R   0.374709 0.727659 0.637834 -0.138822
C14   C     C_R   0.867484 0.279384 0.131107 -0.125777
C15   C     C_R   0.368510 0.576311 0.686453 -0.109449
C16   C     C_R   0.856032 0.435094 0.176168 -0.126329
H3    H     H_    0.398104 0.444182 0.687955 0.163995
H4    H     H_    0.884537 0.567752 0.178023 0.146567
C17   C     C_R   0.326256 0.596731 0.736394 -0.097880
C18   C     C_R   0.808632 0.420056 0.220785 -0.118672
H5    H     H_    0.330597 0.485630 0.778998 0.191353
H6    H     H_    0.802636 0.540307 0.256816 0.180355
C19   C     C_R   0.283696 0.761327 0.734636 0.028697
C20   C     C_R   0.769490 0.251884 0.219789 0.039505
C21   C     C_R   0.215810 0.604236 0.819470 -0.168086
C22   C     C_R   0.746427 0.286638 0.350248 -0.190006
H7    H     H_    0.243666 0.471115 0.819667 0.172598
H8    H     H_    0.801957 0.324909 0.373584 0.128533
C23   C     C_R   0.157843 0.598735 0.849628 0.089800
C24   C     C_R   0.702303 0.285168 0.399886 0.073462
C25   C     C_R   0.127379 0.773772 0.863277 -0.107356
C26   C     C_R   0.631146 0.219123 0.368205 -0.143393
C27   C     C_R   0.130808 0.923533 0.813125 -0.278515
C28   C     C_R   0.604742 0.174866 0.287184 -0.193558
H9    H     H_    0.092134 0.035399 0.805361 0.152636
H10   H     H_    0.549418 0.134396 0.261782 0.177283
C29   C     C_R   0.171979 0.907460 0.761507 0.474692
C30   C     C_R   0.647464 0.192716 0.237380 0.500400
C31   C     C_R   0.226076 0.763975 0.775417 0.033874
C32   C     C_R   0.720141 0.240916 0.269311 0.005782
C33   C     C_2   0.718724 0.878003 0.703632 -0.232965
C34   C     C_2   0.218036 0.114845 0.205649 -0.237335
C35   C     C_2   0.682029 0.714088 0.680138 0.164181
C36   C     C_2   0.186025 0.281261 0.173969 0.182696
H11   H     H_    0.696843 0.010573 0.673620 0.180289
H12   H     H_    0.190723 0.980904 0.185604 0.175994
C37   C     C_2   0.791997 0.891761 0.760498 0.454609
C38   C     C_2   0.291585 0.097231 0.262245 0.467389
C39   C     C_2   0.814558 0.787368 0.827641 -0.270268
C40   C     C_2   0.315916 0.216821 0.324660 -0.305725
H13   H     H_    0.778350 0.689392 0.842405 0.168708
H14   H     H_    0.281501 0.331201 0.333314 0.156127
Cl1   Cl    Cl    0.286134 0.155772 0.723248 -0.685711
Cl2   Cl    Cl    0.741032 0.871692 0.176430 -0.624406
Cl3   Cl    Cl    0.717062 0.486412 0.717306 -0.651914
Cl4   Cl    Cl    0.231790 0.501852 0.192993 -0.580128
Cl5   Cl    Cl    0.847847 0.058842 0.736167 -0.686581
Cl6   Cl    Cl    0.344365 0.906324 0.245615 -0.517391
C41   C     C_3   0.112536 0.420608 0.831100 -0.336143
C42   C     C_3   0.041515 0.466054 0.765685 -0.323570
C43   C     C_3   0.994688 0.291914 0.738670 -0.627678
H15   H     H_    0.988068 0.215124 0.790564 0.259060
H16   H     H_    0.941589 0.339290 0.700278 0.243894
H17   H     H_    0.017358 0.195338 0.702879 0.260402
H18   H     H_    0.009875 0.573123 0.787165 0.195872
H19   H     H_    0.052897 0.528535 0.713318 0.231752
H20   H     H_    0.141269 0.310152 0.807733 0.205472
H21   H     H_    0.103749 0.360000 0.884936 0.192374
C44   C     C_3   0.729489 0.354349 0.485629 -0.322026
C45   C     C_3   0.803490 0.448299 0.510058 -0.353865
C46   C     C_3   0.821246 0.540518 0.591719 -0.636942
H22   H     H_    0.819931 0.431641 0.636560 0.294250
H23   H     H_    0.875444 0.602924 0.608066 0.218671
H24   H     H_    0.782582 0.657275 0.591313 0.234981
H25   H     H_    0.844969 0.338423 0.511356 0.214479
H26   H     H_    0.804830 0.562430 0.466977 0.207542
H27   H     H_    0.691186 0.462980 0.494482 0.187208
H28   H     H_    0.730367 0.231535 0.525676 0.187388
Cl7   Cl    Cl    0.135027 0.015324 0.667663 -0.611285
Cl8   Cl    Cl    0.606110 0.169501 0.134509 -0.487906

loop_
_geom_bond_atom_site_label_1
_geom_bond_atom_site_label_2
_ccdc_geom_bond_type
C24   C44   S    
C43   H15   S    
C29   C31   A    
C45   H26   S    
O13   V3    S    
C5    C35   S    
C34   C38   S    
C44   C45   S    
O4    C2    A    
V1    O19   S    
C46   H22   S    
C6    C36   S    
C13   C15   A    
C41   C42   S    
O9    V1    S    
C38   C40   D    
C11   H1    S    
C40   H14   S    
O3    C1    A    
C42   H18   S    
C16   C18   A    
C9    C11   A    
C25   C27   A    
C8    C14   S    
C26   C28   A    
C28   H10   S    
C21   C31   A    
O7    C3    A    
C10   Cl2   S    
O5    C7    A    
C41   H20   S    
O7    V1    S    
O6    C8    A    
O8    V2    S    
C44   H27   S    
O3    V1    S    
C33   C37   S    
C29   Cl7   S    
C33   H11   S    
C14   C16   A    
C2    O12   A    
C45   H25   S    
C15   H3    S    
C16   H4    S    
O2    C4    A    
C46   H23   S    
C22   H8    S    
O11   V3    S    
C17   H5    S    
O17   V3    S    
C18   H6    S    
C10   C20   A    
C27   H9    S    
C12   C14   A    
O8    C4    A    
C7    C13   S    
C42   C43   S    
C9    Cl1   S    
C3    C26   S    
C21   C23   A    
O15   V3    S    
C2    C39   S    
C33   C35   D    
C30   C32   A    
C23   C41   S    
C11   C13   A    
C39   H13   S    
C41   H21   S    
C17   C19   A    
C34   H12   S    
C45   C46   S    
O10   V2    S    
O1    V3    S    
C20   C32   S    
C19   C31   S    
O14   V4    S    
O18   V4    S    
C23   C25   A    
O16   C6    A    
O1    C3    A    
C37   C39   D    
O12   V4    S    
C12   H2    S    
C46   H24   S    
C22   C32   A    
C44   H28   S    
V2    O20   S    
C4    C25   S    
C18   C20   A    
O16   V4    S    
O18   C8    A    
C38   Cl6   S    
C30   Cl8   S    
C1    C40   S    
O5    V1    S    
O17   C7    A    
O6    V2    S    
O10   C6    A    
C27   C29   A    
O2    V4    S    
C28   C30   A    
O15   C5    A    
V3    O19   S    
C42   H19   S    
V4    O20   S    
C1    O11   A    
O9    C5    A    
O13   V1    S    
C10   C12   A    
C24   C26   A    
O14   V2    S    
C36   Cl4   S    
C35   Cl3   S    
O4    V2    S    
C34   C36   D    
C43   H17   S    
C43   H16   S    
C15   C17   A    
C21   H7    S    
C9    C19   A    
C37   Cl5   S    
C22   C24   A    
