data_mof_unit_pretest_1768.cif
_audit_creation_date              2012-12-10T20:49:03-0500
_audit_creation_method            fapswitch 2.2
_symmetry_space_group_name_H-M    P1
_symmetry_Int_Tables_number       1
_space_group_crystal_system       triclinic
_cell_length_a                    19.23191
_cell_length_b                    19.207252
_cell_length_c                    19.39868
_cell_angle_alpha                 89.58197
_cell_angle_beta                  94.318929
_cell_angle_gamma                 85.043697
_cell_volume                      7117.96701398

loop_
_atom_site_label
_atom_site_type_symbol
_atom_type_description
_atom_site_fract_x
_atom_site_fract_y
_atom_site_fract_z
_atom_type_partial_charge
Br1   Br    Br    0.357738 0.246029 0.479530 -0.401743
Br2   Br    Br    0.242067 0.377893 0.571253 -0.384255
Br3   Br    Br    0.372394 0.477811 0.004554 -0.498291
C1    C     C_R   0.492307 0.689129 0.507065 0.506474
C2    C     C_2   0.499769 0.546926 0.018343 -0.118314
C3    C     C_2   0.452795 0.519633 0.973764 0.157755
C4    C     C_R   0.506815 0.311011 0.492444 0.536745
C5    C     C_R   0.500237 0.496477 0.762790 0.037908
C6    C     C_R   0.510977 0.234663 0.491530 0.042056
C7    C     C_R   0.450128 0.198838 0.490481 0.136543
C8    C     C_R   0.455945 0.126176 0.494879 -0.052389
C9    C     C_R   0.522335 0.088004 0.500088 0.193991
C10   C     C_R   0.582421 0.124047 0.499760 -0.117297
C11   C     C_R   0.576897 0.196830 0.495008 -0.174978
C12   C     C_R   0.498117 0.540591 0.093336 0.029533
C13   C     C_R   0.540618 0.873641 0.534798 -0.088243
C14   C     C_R   0.543832 0.800791 0.537839 -0.151796
C15   C     C_R   0.481100 0.912171 0.502405 0.228641
C16   C     C_R   0.689604 0.491500 0.507305 0.515652
C17   C     C_R   0.488170 0.765729 0.508154 0.031308
C18   C     C_R   0.428546 0.804450 0.477237 -0.142166
C19   C     C_R   0.424985 0.877017 0.475037 -0.104605
C20   C     C_R   0.232777 0.512357 0.492736 0.033595
C21   C     C_R   0.197376 0.461163 0.525698 0.144254
C22   C     C_R   0.124852 0.469161 0.525834 -0.052684
C23   C     C_R   0.440835 0.568134 0.127760 -0.074470
C24   C     C_R   0.085618 0.527096 0.493213 0.194468
C25   C     C_R   0.120476 0.578031 0.461638 -0.117441
C26   C     C_R   0.193254 0.570580 0.460860 -0.174960
C27   C     C_R   0.872508 0.547345 0.517353 -0.099237
C28   C     C_R   0.309888 0.507680 0.492888 0.537207
C29   C     C_R   0.800310 0.548593 0.520678 -0.177981
C30   C     C_R   0.911632 0.484602 0.502616 0.205704
C31   C     C_R   0.766153 0.487702 0.508700 0.061764
C32   C     C_R   0.805359 0.424237 0.495444 0.083603
C33   C     C_R   0.877958 0.423527 0.492913 -0.082631
C34   C     C_R   0.439549 0.556857 0.198609 -0.128898
C35   C     C_R   0.507412 0.492046 0.688399 0.499434
C36   C     C_R   0.493013 0.509390 0.311347 0.509467
C37   C     C_R   0.495810 0.518507 0.236133 0.041895
C38   C     C_R   0.555049 0.493039 0.201071 0.092852
C39   C     C_R   0.555405 0.504839 0.130275 -0.050018
C40   C     C_R   0.498299 0.565918 0.866314 -0.129603
C41   C     C_R   0.515087 0.557464 0.798145 -0.119979
C42   C     C_R   0.470118 0.443337 0.796956 -0.117475
C43   C     C_R   0.454229 0.451365 0.865348 -0.080158
C44   C     C_R   0.467642 0.512885 0.900490 0.053245
H1    H     H_    0.432061 0.409044 0.890770 0.170157
H2    H     H_    0.537024 0.599737 0.772321 0.138655
H3    H     H_    0.897545 0.595116 0.526679 0.147709
H4    H     H_    0.091081 0.623291 0.436950 0.135804
H5    H     H_    0.218665 0.611001 0.435837 0.147290
H6    H     H_    0.099106 0.429753 0.552015 0.171216
H7    H     H_    0.908750 0.375155 0.483122 0.126814
H8    H     H_    0.458041 0.395891 0.770478 0.148824
H9    H     H_    0.396961 0.597627 0.099687 0.160444
H10   H     H_    0.508394 0.614309 0.891971 0.112888
H11   H     H_    0.394217 0.577935 0.224002 0.145364
H12   H     H_    0.590259 0.771932 0.562082 0.136008
H13   H     H_    0.547792 0.563434 0.999818 0.091872
H14   H     H_    0.600258 0.484577 0.103563 0.139058
H15   H     H_    0.636053 0.487134 0.275088 0.253320
H16   H     H_    0.602789 0.409045 0.255357 0.272207
H17   H     H_    0.807471 0.319639 0.473271 0.225380
H18   H     H_    0.753229 0.347405 0.533027 0.222467
H19   H     H_    0.584399 0.899540 0.557632 0.140400
H20   H     H_    0.633717 0.095572 0.503540 0.134131
H21   H     H_    0.624198 0.223752 0.495953 0.135986
H22   H     H_    0.384582 0.778648 0.454575 0.140640
H23   H     H_    0.408300 0.099951 0.494411 0.171168
H24   H     H_    0.378687 0.906115 0.450785 0.131139
H25   H     H_    0.770851 0.597552 0.531075 0.133942
N1    N     N_2   0.530677 0.013885 0.505972 -0.239802
N2    N     N_2   0.474567 0.986030 0.496891 -0.243107
N3    N     N_2   0.011454 0.535612 0.492411 -0.237053
N4    N     N_2   0.985282 0.479201 0.500523 -0.240519
N5    N     N_3   0.616185 0.456309 0.235325 -0.617470
N6    N     N_3   0.771508 0.360752 0.485691 -0.588163
O1    O     O_3   0.500000 0.500000 0.500000 -0.454436
O2    O     O_R   0.546320 0.532340 0.658770 -0.546900
O3    O     O_R   0.450550 0.549430 0.344370 -0.543353
O4    O     O_R   0.467400 0.453980 0.652500 -0.535937
O5    O     O_R   0.535730 0.464240 0.344360 -0.548784
O6    O     O_R   0.656240 0.454400 0.463600 -0.511949
O7    O     O_R   0.340160 0.549180 0.454800 -0.555777
O8    O     O_R   0.536860 0.652450 0.548350 -0.544917
O9    O     O_R   0.466740 0.343960 0.533260 -0.488787
O10   O     O_R   0.451210 0.659450 0.463610 -0.549360
O11   O     O_R   0.545190 0.344140 0.454780 -0.541556
O12   O     O_R   0.656710 0.532590 0.548340 -0.552561
O13   O     O_R   0.346890 0.463830 0.533270 -0.472543
Zn1   Zn    Zn3+2 0.558280 0.441710 0.441700 0.954985
Zn2   Zn    Zn3+2 0.558950 0.553420 0.562770 0.929182
Zn3   Zn    Zn3+2 0.446190 0.441460 0.553820 1.018088
Zn4   Zn    Zn3+2 0.436580 0.563410 0.441710 0.943354

loop_
_geom_bond_atom_site_label_1
_geom_bond_atom_site_label_2
_ccdc_geom_bond_type
C41   H2    S    
O4    Zn3   S    
C38   C39   A    
H15   N5    S    
C32   C33   A    
C40   C41   A    
Br3   C3    S    
C14   C17   A    
C8    H23   S    
C29   H25   S    
C42   C43   A    
O5    Zn1   S    
C28   O7    A    
C20   C26   A    
C25   C26   A    
C22   H6    S    
O1    Zn2   S    
C34   C37   A    
C38   N5    S    
C2    C3    D    
O3    Zn4   S    
C25   H4    S    
C1    O8    A    
C4    O11   A    
O9    Zn3   S    
C30   C33   A    
C31   C32   A    
N1    N2    D    
C5    C42   A    
C4    O9    A    
C13   C14   A    
C20   C21   A    
C6    C7    A    
C34   H11   S    
C27   C30   A    
C27   H3    S    
O10   Zn4   S    
C15   N2    S    
C10   C11   A    
C35   O4    A    
C5    C35   S    
C24   N3    S    
C9    N1    S    
C43   H1    S    
C3    C44   S    
C21   C22   A    
C36   O3    A    
O1    Zn3   S    
C10   H20   S    
C36   C37   S    
C6    C11   A    
C12   C23   A    
C18   H22   S    
C29   C31   A    
N3    N4    D    
O1    Zn4   S    
O8    Zn2   S    
C30   N4    S    
C17   C18   A    
O11   Zn1   S    
C39   H14   S    
O1    Zn1   S    
C14   H12   S    
C37   C38   A    
C28   O13   A    
Br2   C21   S    
C13   H19   S    
C16   O6    A    
C19   H24   S    
O12   Zn2   S    
H16   N5    S    
C4    C6    S    
C43   C44   A    
H18   N6    S    
C2    H13   S    
C15   C19   A    
H17   N6    S    
Br1   C7    S    
C5    C41   A    
C12   C39   A    
C16   C31   S    
C23   H9    S    
C8    C9    A    
C23   C34   A    
C1    O10   A    
C22   C24   A    
C32   N6    S    
C36   O5    A    
C16   O12   A    
O13   Zn3   S    
C27   C29   A    
O7    Zn4   S    
C35   O2    A    
C2    C12   S    
C33   H7    S    
C7    C8    A    
C40   H10   S    
C1    C17   S    
C9    C10   A    
C42   H8    S    
C13   C15   A    
C24   C25   A    
C11   H21   S    
O6    Zn1   S    
O2    Zn2   S    
C18   C19   A    
C40   C44   A    
C20   C28   S    
C26   H5    S    
