data_mof_unit_pretest_1461.cif
_audit_creation_date              2012-12-10T18:58:13-0500
_audit_creation_method            fapswitch 2.2
_symmetry_space_group_name_H-M    P1
_symmetry_Int_Tables_number       1
_space_group_crystal_system       triclinic
_cell_length_a                    11.01613
_cell_length_b                    10.815608
_cell_length_c                    9.542158
_cell_angle_alpha                 89.863128
_cell_angle_beta                  102.643025
_cell_angle_gamma                 90.153859
_cell_volume                      1109.33838287

loop_
_atom_site_label
_atom_site_type_symbol
_atom_type_description
_atom_site_fract_x
_atom_site_fract_y
_atom_site_fract_z
_atom_type_partial_charge
C1    C     C_R   0.501867 0.262423 0.500710 0.805024
C2    C     C_R   0.512154 0.129413 0.505039 -0.093910
C3    C     C_R   0.557643 0.065169 0.399594 -0.210506
C4    C     C_R   0.557871 0.936170 0.399929 -0.220237
C5    C     C_R   0.511230 0.871076 0.504484 -0.092780
C6    C     C_R   0.480780 0.936328 0.618007 0.107308
C7    C     C_3   0.364711 0.930792 0.674847 -0.443401
C8    C     C_3   0.366704 0.070992 0.676586 -0.477003
C9    C     C_R   0.590644 0.561386 0.096339 0.261441
C10   C     C_R   0.417664 0.430031 0.053818 -0.067456
C11   C     C_R   0.417616 0.430060 0.904876 -0.050046
C12   C     C_R   0.262624 0.505001 0.442118 0.851545
C13   C     C_R   0.591030 0.560954 0.949002 0.242651
C14   C     C_3   0.619246 0.695801 0.949457 -0.499314
C15   C     C_3   0.617130 0.696564 0.107645 -0.515145
C16   C     C_R   0.501580 0.737736 0.500433 0.788047
C17   C     C_R   0.737821 0.503841 0.558439 0.744240
C18   C     C_2   0.126735 0.512268 0.411663 -0.425101
C19   C     C_2   0.066115 0.559956 0.507355 0.049649
C20   C     C_2   0.874238 0.517329 0.591488 0.332895
C21   C     C_2   0.931123 0.543669 0.483462 -0.312035
C22   C     C_R   0.481794 0.063680 0.618542 0.134963
Cu1   Cu    Cu3+1 0.499990 0.499980 0.640670 0.955497
Cu2   Cu    Cu3+1 0.500010 0.500020 0.359330 0.939165
H1    H     H_    0.877990 0.551940 0.373492 0.140268
H2    H     H_    0.385489 0.110410 0.786749 0.198224
H3    H     H_    0.349540 0.375222 0.092621 0.142959
H4    H     H_    0.349423 0.375303 0.831940 0.144888
H5    H     H_    0.712830 0.715121 0.928761 0.179945
H6    H     H_    0.542636 0.750586 0.883342 0.224914
H7    H     H_    0.709167 0.717299 0.178606 0.185402
H8    H     H_    0.537549 0.750162 0.129684 0.219196
H9    H     H_    0.074898 0.470510 0.312975 0.151002
H10   H     H_    0.589121 0.114113 0.314881 0.163703
H11   H     H_    0.591025 0.888126 0.316627 0.154771
H12   H     H_    0.284469 0.891604 0.595860 0.201911
H13   H     H_    0.380459 0.889805 0.784124 0.205420
H14   H     H_    0.287181 0.113379 0.599478 0.196369
N1    N     N_R   0.500780 0.500930 0.148120 -0.185094
N2    N     N_R   0.500790 0.500890 0.852210 -0.183650
O1    O     O_R   0.500000 0.319640 0.618810 -0.578060
O2    O     O_R   0.500010 0.319680 0.381230 -0.585069
O3    O     O_R   0.320680 0.500000 0.575130 -0.566889
O4    O     O_R   0.320690 0.500040 0.337550 -0.576314
O5    O     O_R   0.499990 0.680320 0.618770 -0.580791
O6    O     O_R   0.500000 0.680360 0.381190 -0.583646
O7    O     O_R   0.679310 0.499960 0.662450 -0.569607
O8    O     O_R   0.679320 0.500000 0.424870 -0.602264
C23   C     C_1   0.129268 0.631475 0.630985 0.367825
N3    N     N_1   0.179441 0.688223 0.729528 -0.322555
O9    O     O_3   0.945175 0.491839 0.727965 -0.567832
C24   C     C_3   0.917925 0.576192 0.829517 -0.282576
H15   H     H_    0.846028 0.536788 0.881969 0.180668
H16   H     H_    0.889207 0.669276 0.783537 0.132409
H17   H     H_    0.003163 0.589540 0.914847 0.188981

loop_
_geom_bond_atom_site_label_1
_geom_bond_atom_site_label_2
_ccdc_geom_bond_type
C16   O5    A    
C2    C22   A    
C8    C22   S    
Cu1   Cu2   S    
C24   H17   S    
C15   H7    S    
C6    C7    S    
Cu1   O5    S    
C12   O3    A    
C8    H2    S    
C7    H12   S    
C19   C23   S    
Cu1   N2    S    
Cu1   O1    S    
C17   O8    A    
Cu2   O6    S    
Cu2   N1    S    
C2    C3    A    
C7    H13   S    
C4    H11   S    
C10   H3    S    
C15   H8    S    
C12   O4    A    
C13   C14   S    
C20   C21   D    
C11   N2    A    
C8    H14   S    
C11   H4    S    
C14   H6    S    
C1    O1    A    
C19   C21   S    
C24   H16   S    
C18   C19   D    
C20   O9    S    
C9    C15   S    
C5    C6    A    
Cu2   O4    S    
C18   H9    S    
Cu1   O7    S    
C10   C11   A    
C14   H5    S    
C12   C18   S    
O9    C24   S    
C6    C22   A    
C17   O7    A    
C1    O2    A    
C9    N1    A    
C17   C20   S    
Cu2   O2    S    
C24   H15   S    
C1    C2    S    
C16   O6    A    
C23   N3    T    
C7    C8    S    
C9    C13   A    
C14   C15   S    
C4    C5    A    
C5    C16   S    
C21   H1    S    
C3    H10   S    
Cu1   O3    S    
C3    C4    A    
C10   N1    A    
C13   N2    A    
Cu2   O8    S    
