data_mof_unit_pretest_1360.cif
_audit_creation_date              2012-10-26T17:43:31-0400
_audit_creation_method            fapswitch 2.2
_symmetry_space_group_name_H-M    P1
_symmetry_Int_Tables_number       1
_space_group_crystal_system       triclinic
_cell_length_a                    18.326945
_cell_length_b                    18.331295
_cell_length_c                    21.945269
_cell_angle_alpha                 89.767904
_cell_angle_beta                  89.723341
_cell_angle_gamma                 90.005742
_cell_volume                      7372.51224221

loop_
_atom_site_label
_atom_site_type_symbol
_atom_type_description
_atom_site_fract_x
_atom_site_fract_y
_atom_site_fract_z
_atom_type_partial_charge
C1    C     C_R   0.999926 0.360043 0.999177 0.567728
C2    C     C_1   0.282421 0.000026 0.999254 -0.061525
C3    C     C_3   0.270053 0.151873 0.806666 -0.259050
C4    C     C_3   0.279469 0.219141 0.847341 -0.300338
C5    C     C_3   0.207110 0.241194 0.876750 -0.445445
C6    C     C_3   0.142659 0.737454 0.798595 -0.231919
C7    C     C_3   0.084843 0.796708 0.787568 -0.290699
C8    C     C_3   0.109253 0.869993 0.813264 -0.431044
C9    C     C_3   0.733827 0.852581 0.793120 -0.236608
C10   C     C_3   0.723445 0.792577 0.841375 -0.293450
C11   C     C_3   0.796675 0.767449 0.866900 -0.445600
C12   C     C_3   0.845598 0.730385 0.200262 -0.251966
C13   C     C_1   0.999955 0.717574 0.000534 -0.058360
C14   C     C_3   0.898055 0.791460 0.219614 -0.302610
C15   C     C_3   0.874020 0.865285 0.194267 -0.434340
C16   C     C_3   0.265820 0.856128 0.192467 -0.230612
C17   C     C_3   0.195479 0.886330 0.220850 -0.298119
C18   C     C_3   0.128274 0.860904 0.185936 -0.440183
C19   C     C_3   0.172087 0.288100 0.187857 -0.233293
C20   C     C_3   0.155035 0.214726 0.218607 -0.297588
C21   C     C_3   0.186703 0.151148 0.182283 -0.436724
C22   C     C_3   0.745763 0.122623 0.193931 -0.231195
C23   C     C_3   0.737771 0.164247 0.133236 -0.291475
C24   C     C_1   0.717576 0.000046 0.998871 -0.045203
C25   C     C_3   0.811868 0.189638 0.109051 -0.448586
C26   C     C_3   0.321300 0.793106 0.313011 -0.234678
C27   C     C_3   0.282997 0.817014 0.372221 -0.294009
C28   C     C_3   0.242115 0.753489 0.401946 -0.449727
C29   C     C_3   0.771454 0.653948 0.307625 -0.253675
C30   C     C_3   0.782158 0.718446 0.351157 -0.303553
C31   C     C_3   0.713512 0.732368 0.389126 -0.443611
C32   C     C_3   0.691229 0.195888 0.310653 -0.234215
C33   C     C_3   0.682488 0.270021 0.278862 -0.293325
C34   C     C_3   0.720619 0.330506 0.314241 -0.446068
C35   C     C_1   0.500066 0.782419 0.499495 -0.057858
C36   C     C_3   0.232549 0.354464 0.305008 -0.231092
C37   C     C_3   0.219095 0.313483 0.365390 -0.291414
C38   C     C_3   0.289956 0.281877 0.390600 -0.448349
C39   C     C_3   0.339844 0.226021 0.696271 -0.230011
C40   C     C_3   0.391748 0.290933 0.705540 -0.292633
C41   C     C_3   0.361654 0.360222 0.676122 -0.428750
C42   C     C_3   0.784456 0.327856 0.700950 -0.231167
C43   C     C_3   0.712696 0.355922 0.728466 -0.292270
C44   C     C_3   0.646814 0.320301 0.698343 -0.444329
C45   C     C_3   0.671446 0.789504 0.680011 -0.238836
C46   C     C_1   0.782435 0.500010 0.500174 -0.061684
C47   C     C_3   0.637828 0.758000 0.621643 -0.278970
C48   C     C_3   0.689037 0.703058 0.591385 -0.453610
C49   C     C_3   0.220158 0.664603 0.691353 -0.240918
C50   C     C_3   0.204068 0.726391 0.646021 -0.306217
C51   C     C_3   0.273993 0.754007 0.615652 -0.444402
C52   C     C_1   0.499979 0.217565 0.499900 -0.049134
C53   C     C_1   0.217573 0.499962 0.500757 -0.049168
C54   C     C_R   0.000266 0.502227 0.881121 0.563889
C55   C     C_R   0.501800 0.000119 0.880987 0.592750
C56   C     C_R   0.999735 0.499762 0.118998 0.594534
C57   C     C_R   0.360050 0.000029 0.998956 0.563334
C58   C     C_R   0.499715 0.999861 0.119085 0.536302
C59   C     C_R   0.500129 0.999792 0.381021 0.543450
C60   C     C_R   0.000888 0.500243 0.380989 0.595280
C61   C     C_R   0.499656 0.001919 0.618976 0.542235
C62   C     C_R   0.999113 0.499768 0.619100 0.541182
C63   C     C_R   0.064933 0.623295 0.804368 0.096078
C64   C     C_R   0.620343 0.930725 0.802830 0.097308
C65   C     C_R   0.939305 0.379959 0.811406 0.115031
C66   C     C_R   0.383652 0.071035 0.809574 0.103166
C67   C     C_R   0.073180 0.384782 0.192960 0.103740
C68   C     C_R   0.999974 0.639966 0.000681 0.564074
C69   C     C_R   0.626410 0.053013 0.193918 0.097477
C70   C     C_R   0.924395 0.615633 0.192061 0.099208
C71   C     C_R   0.375875 0.939977 0.194322 0.096454
C72   C     C_R   0.583594 0.108818 0.306684 0.108500
C73   C     C_R   0.121551 0.436637 0.305088 0.099861
C74   C     C_R   0.421058 0.888332 0.307698 0.108951
C75   C     C_R   0.883280 0.571048 0.309457 0.101241
C76   C     C_R   0.565792 0.883346 0.691313 0.126181
C77   C     C_R   0.115738 0.573610 0.691734 0.108093
C78   C     C_R   0.427505 0.119348 0.694079 0.098886
C79   C     C_R   0.639963 0.000006 0.997809 0.525398
C80   C     C_R   0.886455 0.421215 0.696659 0.102172
C81   C     C_R   0.118640 0.664113 0.772717 0.040209
C82   C     C_R   0.660730 0.879185 0.768337 0.030614
C83   C     C_R   0.878483 0.342388 0.787147 0.020324
C84   C     C_R   0.342496 0.126184 0.779657 0.002035
C85   C     C_R   0.134698 0.351614 0.220387 0.039442
C86   C     C_R   0.672005 0.104291 0.223094 0.042428
C87   C     C_R   0.870925 0.656370 0.224552 0.013510
C88   C     C_R   0.333807 0.885562 0.224113 0.038755
C89   C     C_R   0.647991 0.135996 0.278725 0.034726
C90   C     C_R   0.500062 0.860014 0.499490 0.527244
C91   C     C_R   0.161593 0.380732 0.275860 0.045488
C92   C     C_R   0.358739 0.856968 0.280574 0.042161
C93   C     C_R   0.843347 0.627356 0.280086 0.010749
C94   C     C_R   0.630826 0.851030 0.713454 0.046306
C95   C     C_R   0.150152 0.634064 0.719360 0.034432
C96   C     C_R   0.370399 0.156226 0.724646 0.045342
C97   C     C_R   0.850495 0.364872 0.729643 0.037817
C98   C     C_R   0.139504 0.000013 0.999870 0.555558
C99   C     C_R   0.999980 0.860492 0.000108 0.555880
C100  C     C_R   0.860488 0.000082 0.000067 0.553513
C101  C     C_R   0.860039 0.499993 0.500421 0.566782
C102  C     C_R   0.999866 0.139515 0.999888 0.551878
C103  C     C_R   0.639510 0.500096 0.499906 0.550598
C104  C     C_R   0.499927 0.360489 0.500090 0.552692
C105  C     C_R   0.360492 0.499946 0.500134 0.552218
C106  C     C_R   0.500037 0.639511 0.499890 0.550108
C107  C     C_R   0.051739 0.542792 0.718212 -0.011049
C108  C     C_R   0.539530 0.948503 0.718068 -0.021438
C109  C     C_R   0.950055 0.455050 0.720614 -0.020889
C110  C     C_R   0.458478 0.055004 0.719528 -0.026524
C111  C     C_R   0.054459 0.461680 0.280556 -0.030509
C112  C     C_R   0.500007 0.139971 0.499586 0.538520
C113  C     C_R   0.546039 0.048727 0.280784 -0.014627
C114  C     C_R   0.946865 0.541783 0.281750 0.001764
C115  C     C_R   0.454460 0.950944 0.281569 -0.016540
C116  C     C_R   0.557206 0.034515 0.218888 -0.018425
C117  C     C_R   0.041303 0.448167 0.218960 -0.025523
C118  C     C_R   0.442775 0.964373 0.219626 -0.016043
C119  C     C_R   0.956467 0.552516 0.218777 0.000615
C120  C     C_R   0.554024 0.960066 0.779741 -0.030075
C121  C     C_R   0.038852 0.556259 0.780185 -0.021902
C122  C     C_R   0.447917 0.042553 0.782127 0.012341
C123  C     C_R   0.139960 0.499997 0.501035 0.527771
C124  C     C_R   0.964424 0.444865 0.782752 -0.017493
C125  C     C_R   0.000137 0.499059 0.686371 -0.021108
C126  C     C_R   0.498765 0.001912 0.686033 -0.019406
C127  C     C_R   0.000825 0.501238 0.313893 -0.004432
C128  C     C_R   0.500158 0.000001 0.313990 -0.023111
C129  C     C_R   0.499777 0.999699 0.186256 -0.016284
C130  C     C_R   0.998652 0.499881 0.186088 -0.005806
C131  C     C_R   0.501532 0.000804 0.813876 -0.002123
C132  C     C_R   0.001155 0.501538 0.814165 -0.019145
C133  C     C_1   0.999780 0.217090 0.999602 -0.060241
C134  C     C_1   0.999808 0.282440 0.999370 -0.048045
C135  C     C_1   0.217069 0.000030 0.999546 -0.061105
C136  C     C_1   0.999953 0.782924 0.000358 -0.061056
C137  C     C_1   0.782916 0.000095 0.999854 -0.046669
C138  C     C_1   0.500046 0.717077 0.499627 -0.054160
C139  C     C_1   0.717083 0.500081 0.499860 -0.063636
C140  C     C_1   0.499931 0.282914 0.500164 -0.048769
C141  C     C_1   0.282923 0.499939 0.500468 -0.047006
C142  C     C_3   0.844388 0.280065 0.824153 -0.244859
C143  C     C_3   0.811799 0.307264 0.884617 -0.282220
C144  C     C_3   0.777871 0.244706 0.921132 -0.455404
Cu1   Cu    Cu3+1 0.927460 0.500000 0.000000 0.906754
Cu2   Cu    Cu3+1 0.000000 0.000000 0.061780 0.877966
Cu3   Cu    Cu3+1 0.500000 0.500000 0.438220 0.919724
Cu4   Cu    Cu3+1 0.500000 0.500000 0.561780 0.898448
Cu5   Cu    Cu3+1 0.500000 0.072540 0.000000 0.899945
Cu6   Cu    Cu3+1 0.072540 0.500000 0.000000 0.909192
Cu7   Cu    Cu3+1 0.500000 0.927460 0.000000 0.910178
Cu8   Cu    Cu3+1 0.427460 0.000000 0.500000 0.879703
Cu9   Cu    Cu3+1 0.000000 0.572540 0.500000 0.891368
Cu10  Cu    Cu3+1 0.572540 0.000000 0.500000 0.894454
Cu11  Cu    Cu3+1 0.000000 0.427460 0.500000 0.902695
Cu12  Cu    Cu3+1 1.000000 0.000000 0.938220 0.886825
H1    H     H_    0.733884 0.218116 0.894567 0.156534
H2    H     H_    0.215399 0.290100 0.905597 0.149277
H3    H     H_    0.700752 0.657073 0.622981 0.162701
H4    H     H_    0.662939 0.680847 0.549816 0.152220
H5    H     H_    0.586292 0.728872 0.632828 0.208345
H6    H     H_    0.627322 0.802638 0.588456 0.200139
H7    H     H_    0.725851 0.811088 0.666579 0.128813
H8    H     H_    0.679604 0.743521 0.712384 0.136412
H9    H     H_    0.312199 0.775376 0.650448 0.156003
H10   H     H_    0.300994 0.709308 0.589984 0.163285
H11   H     H_    0.260687 0.798700 0.583254 0.145546
H12   H     H_    0.166494 0.706441 0.610133 0.169044
H13   H     H_    0.319576 0.207327 0.883872 0.164384
H14   H     H_    0.177254 0.772590 0.669753 0.158727
H15   H     H_    0.258576 0.682720 0.727121 0.120863
H16   H     H_    0.251133 0.621126 0.667458 0.184013
H17   H     H_    0.978954 0.640166 0.863015 0.233940
H18   H     H_    0.065191 0.636822 0.894413 0.265966
H19   H     H_    0.642721 0.014998 0.860908 0.231122
H20   H     H_    0.632734 0.929735 0.893258 0.265075
H21   H     H_    0.990462 0.293342 0.849890 0.205942
H22   H     H_    0.032425 0.369477 0.862058 0.229255
H23   H     H_    0.309832 0.008618 0.854854 0.211849
H24   H     H_    0.300312 0.265893 0.820209 0.162208
H25   H     H_    0.343697 0.080248 0.895014 0.246309
H26   H     H_    0.982290 0.360697 0.141992 0.230966
H27   H     H_    0.064354 0.360830 0.104739 0.255829
H28   H     H_    0.643424 0.956164 0.151098 0.236807
H29   H     H_    0.633594 0.030998 0.106000 0.262705
H30   H     H_    0.973487 0.691295 0.137265 0.216527
H31   H     H_    0.903878 0.643851 0.104839 0.247430
H32   H     H_    0.361879 0.030367 0.140156 0.239769
H33   H     H_    0.361505 0.946804 0.105206 0.259585
H34   H     H_    0.495429 0.139778 0.359237 0.235479
H35   H     H_    0.229833 0.162612 0.770100 0.128680
H36   H     H_    0.577853 0.135658 0.395053 0.261842
H37   H     H_    0.147011 0.532015 0.347516 0.231112
H38   H     H_    0.133703 0.458169 0.393222 0.257452
H39   H     H_    0.514728 0.854136 0.349532 0.230239
H40   H     H_    0.440758 0.866030 0.395068 0.264772
H41   H     H_    0.808741 0.509151 0.354513 0.212347
H42   H     H_    0.843420 0.579960 0.395136 0.248326
H43   H     H_    0.467111 0.836253 0.677556 0.226994
H44   H     H_    0.508128 0.867337 0.613716 0.254630
H45   H     H_    0.135394 0.485158 0.635765 0.241201
H46   H     H_    0.243617 0.107924 0.833675 0.142589
H47   H     H_    0.143272 0.570725 0.603720 0.263605
H48   H     H_    0.512350 0.139583 0.634470 0.237927
H49   H     H_    0.425481 0.136164 0.604140 0.269308
H50   H     H_    0.859556 0.507066 0.640288 0.235469
H51   H     H_    0.867769 0.422677 0.606539 0.264908
H52   H     H_    0.118982 0.865296 0.863054 0.183412
H53   H     H_    0.160171 0.888564 0.790324 0.138989
H54   H     H_    0.066085 0.911452 0.805489 0.143408
H55   H     H_    0.075226 0.802872 0.737856 0.146488
H56   H     H_    0.032234 0.781529 0.809441 0.202887
H57   H     H_    0.820111 0.203569 0.932892 0.163158
H58   H     H_    0.152942 0.731516 0.848256 0.159133
H59   H     H_    0.194598 0.757199 0.778871 0.128029
H60   H     H_    0.831611 0.745046 0.829935 0.152824
H61   H     H_    0.825347 0.813746 0.888883 0.168343
H62   H     H_    0.787542 0.724068 0.901567 0.148038
H63   H     H_    0.689246 0.812982 0.879564 0.179347
H64   H     H_    0.695201 0.745024 0.820962 0.152787
H65   H     H_    0.770328 0.832248 0.756649 0.114071
H66   H     H_    0.764227 0.899080 0.813160 0.183459
H67   H     H_    0.873246 0.864010 0.143660 0.180265
H68   H     H_    0.753903 0.266251 0.963988 0.140121
H69   H     H_    0.818747 0.879457 0.211530 0.150973
H70   H     H_    0.912906 0.908167 0.208905 0.136454
H71   H     H_    0.900155 0.794627 0.270078 0.155970
H72   H     H_    0.954316 0.780334 0.203373 0.159534
H73   H     H_    0.840790 0.729752 0.149950 0.134515
H74   H     H_    0.790207 0.744811 0.216182 0.138638
H75   H     H_    0.130901 0.880076 0.137894 0.187269
H76   H     H_    0.124588 0.800414 0.186766 0.147824
H77   H     H_    0.078295 0.883617 0.207481 0.135526
H78   H     H_    0.190139 0.867776 0.268732 0.155492
H79   H     H_    0.854459 0.333026 0.912977 0.224614
H80   H     H_    0.197172 0.946966 0.220249 0.177448
H81   H     H_    0.265948 0.870467 0.143294 0.173785
H82   H     H_    0.265634 0.795686 0.191985 0.117374
H83   H     H_    0.162597 0.149529 0.135947 0.173143
H84   H     H_    0.246923 0.156550 0.178344 0.155891
H85   H     H_    0.173975 0.098954 0.205905 0.144902
H86   H     H_    0.178434 0.213124 0.265005 0.156694
H87   H     H_    0.094931 0.207593 0.222380 0.182007
H88   H     H_    0.154686 0.284650 0.139627 0.168617
H89   H     H_    0.231723 0.297180 0.184067 0.115211
H90   H     H_    0.769210 0.348924 0.875371 0.149523
H91   H     H_    0.837668 0.227878 0.141653 0.154974
H92   H     H_    0.848464 0.142130 0.101806 0.184425
H93   H     H_    0.804671 0.218320 0.064852 0.141226
H94   H     H_    0.712699 0.128994 0.098201 0.192019
H95   H     H_    0.701857 0.212448 0.139268 0.152223
H96   H     H_    0.780921 0.155173 0.224141 0.125842
H97   H     H_    0.776372 0.071159 0.185883 0.170643
H98   H     H_    0.199101 0.732810 0.370978 0.153314
H99   H     H_    0.280533 0.708502 0.412982 0.165631
H100  H     H_    0.215823 0.772111 0.444848 0.141683
H101  H     H_    0.800484 0.251547 0.799617 0.134532
H102  H     H_    0.323028 0.837947 0.405484 0.185553
H103  H     H_    0.243779 0.861678 0.362628 0.148997
H104  H     H_    0.280436 0.765716 0.284277 0.128667
H105  H     H_    0.362526 0.750463 0.323547 0.176840
H106  H     H_    0.666376 0.743974 0.358954 0.162225
H107  H     H_    0.700818 0.684176 0.418181 0.156102
H108  H     H_    0.722322 0.780135 0.419170 0.147031
H109  H     H_    0.828387 0.707592 0.382482 0.165034
H110  H     H_    0.794749 0.768590 0.324759 0.159771
H111  H     H_    0.731730 0.668221 0.271535 0.129459
H112  H     H_    0.885898 0.237366 0.833197 0.144505
H113  H     H_    0.743592 0.608864 0.332238 0.143971
H114  H     H_    0.696408 0.335760 0.360529 0.166057
H115  H     H_    0.779838 0.318591 0.318282 0.158116
H116  H     H_    0.713948 0.383257 0.289839 0.143658
H117  H     H_    0.706287 0.268177 0.232445 0.158456
H118  H     H_    0.623541 0.283533 0.275024 0.182864
H119  H     H_    0.673515 0.202207 0.358710 0.167757
H120  H     H_    0.749524 0.180654 0.314790 0.114716
H121  H     H_    0.313702 0.241964 0.358115 0.154770
H122  H     H_    0.330064 0.326168 0.398879 0.171514
H123  H     H_    0.166259 0.254558 0.841167 0.150759
H124  H     H_    0.278751 0.253457 0.434439 0.146464
H125  H     H_    0.195866 0.350540 0.400186 0.191021
H126  H     H_    0.179488 0.268484 0.358565 0.150652
H127  H     H_    0.264459 0.318467 0.274763 0.126600
H128  H     H_    0.268388 0.402280 0.313401 0.175226
H129  H     H_    0.354879 0.352330 0.626294 0.173556
H130  H     H_    0.308156 0.374777 0.696751 0.149650
H131  H     H_    0.400255 0.406021 0.683438 0.151741
H132  H     H_    0.399447 0.300618 0.755030 0.146513
H133  H     H_    0.446177 0.279632 0.685318 0.203799
H134  H     H_    0.185822 0.196245 0.905942 0.161698
H135  H     H_    0.330678 0.217300 0.646796 0.152390
H136  H     H_    0.285905 0.241312 0.714864 0.127618
H137  H     H_    0.646076 0.333019 0.648803 0.171154
H138  H     H_    0.648491 0.260195 0.704870 0.153314
H139  H     H_    0.595800 0.341500 0.719268 0.140491
H140  H     H_    0.710546 0.344245 0.778049 0.155915
H141  H     H_    0.709206 0.415999 0.721924 0.184374
H142  H     H_    0.782953 0.337433 0.651005 0.170845
H143  H     H_    0.788671 0.267656 0.704489 0.114691
H144  H     H_    0.741090 0.729802 0.577908 0.148004
N1    N     N_3   0.033820 0.654601 0.858043 -0.658792
N2    N     N_3   0.156497 0.476093 0.352808 -0.650929
N3    N     N_3   0.458284 0.846898 0.353380 -0.647075
N4    N     N_3   0.856074 0.538507 0.364451 -0.607119
N5    N     N_3   0.517123 0.841116 0.654744 -0.658975
N6    N     N_3   0.152636 0.538848 0.642107 -0.651919
N7    N     N_3   0.457354 0.152757 0.640517 -0.656158
N8    N     N_3   0.849950 0.451096 0.644660 -0.649209
N9    N     N_3   0.653339 0.959237 0.856605 -0.653470
N10   N     N_3   0.979816 0.347698 0.860869 -0.612194
N11   N     N_3   0.356826 0.038574 0.864664 -0.606243
N12   N     N_3   0.037442 0.346653 0.144722 -0.647739
N13   N     N_3   0.656854 0.011221 0.145349 -0.651852
N14   N     N_3   0.949014 0.640185 0.133500 -0.605195
N15   N     N_3   0.344612 0.976115 0.142947 -0.650355
N16   N     N_3   0.551296 0.150191 0.355121 -0.641736
O1    O     O_R   0.938740 0.394190 0.000020 -0.505457
O2    O     O_R   0.894190 0.561260 0.500020 -0.510359
O3    O     O_R   0.561260 0.105810 0.500020 -0.518844
O4    O     O_R   0.105810 0.438740 0.500020 -0.521910
O5    O     O_R   0.438740 0.105810 0.499980 -0.518429
O6    O     O_R   0.894190 0.438740 0.499980 -0.508515
O7    O     O_R   0.561260 0.894190 0.499980 -0.511083
O8    O     O_R   0.105810 0.561260 0.499980 -0.521987
O9    O     O_R   0.938740 0.500000 0.909860 -0.494717
O10   O     O_R   0.500000 0.061260 0.909860 -0.496673
O11   O     O_R   0.061260 0.500000 0.909860 -0.518268
O12   O     O_R   0.394190 0.061260 0.000020 -0.508601
O13   O     O_R   0.500000 0.938740 0.909860 -0.504886
O14   O     O_R   0.938740 0.500000 0.090140 -0.500635
O15   O     O_R   0.500000 0.938740 0.090140 -0.510822
O16   O     O_R   0.061260 0.500000 0.090140 -0.503899
O17   O     O_R   0.500000 0.061260 0.090140 -0.513721
O18   O     O_R   0.438740 0.000000 0.409860 -0.513128
O19   O     O_R   0.000000 0.561260 0.409860 -0.496936
O20   O     O_R   0.561260 0.000000 0.409860 -0.510069
O21   O     O_R   0.000000 0.438740 0.409860 -0.502865
O22   O     O_R   0.438740 0.000000 0.590140 -0.511965
O23   O     O_R   0.061260 0.605810 0.000020 -0.510836
O24   O     O_R   0.000000 0.438740 0.590140 -0.516055
O25   O     O_R   0.561260 0.000000 0.590140 -0.504588
O26   O     O_R   0.000000 0.561260 0.590140 -0.510465
O27   O     O_R   0.105780 0.999970 0.947820 -0.514265
O28   O     O_R   0.999970 0.894220 0.947820 -0.507976
O29   O     O_R   0.894220 0.000030 0.947820 -0.502762
O30   O     O_R   0.000030 0.105780 0.947820 -0.508152
O31   O     O_R   0.105780 0.000030 0.052180 -0.506910
O32   O     O_R   0.999970 0.105780 0.052180 -0.505822
O33   O     O_R   0.894220 0.999970 0.052180 -0.513297
O34   O     O_R   0.605810 0.938740 0.000020 -0.519718
O35   O     O_R   0.000030 0.894220 0.052180 -0.515639
O36   O     O_R   0.605780 0.499970 0.447820 -0.510663
O37   O     O_R   0.499970 0.394220 0.447820 -0.503745
O38   O     O_R   0.394220 0.500030 0.447820 -0.503590
O39   O     O_R   0.500030 0.605780 0.447820 -0.501383
O40   O     O_R   0.605780 0.500030 0.552180 -0.502746
O41   O     O_R   0.499970 0.605780 0.552180 -0.508322
O42   O     O_R   0.394220 0.499970 0.552180 -0.509810
O43   O     O_R   0.500030 0.394220 0.552180 -0.511031
O44   O     O_R   0.938740 0.605810 0.999980 -0.515114
O45   O     O_R   0.394190 0.938740 0.999980 -0.507051
O46   O     O_R   0.061260 0.394190 0.999980 -0.525550
O47   O     O_R   0.605810 0.061260 0.999980 -0.523532
O48   O     O_R   0.438740 0.894190 0.500020 -0.524276

loop_
_geom_bond_atom_site_label_1
_geom_bond_atom_site_label_2
_ccdc_geom_bond_type
C69   C116  A    
C82   C94   A    
C108  C120  A    
C19   C20   S    
C5    H123  S    
Cu7   O34   S    
C105  O42   A    
C7    H56   S    
Cu11  O6    S    
C98   O31   A    
C112  O3    A    
H34   N16   S    
Cu9   O26   S    
C81   C95   A    
Cu11  O4    S    
C64   N9    S    
C26   C92   S    
C143  C144  S    
C119  C130  A    
C31   H107  S    
C74   C92   A    
H47   N6    S    
C62   O24   A    
C106  O39   A    
C76   C94   A    
C25   H93   S    
C6    H59   S    
C68   O44   A    
C78   C96   A    
C1    O1    A    
C66   C122  A    
C11   H60   S    
C43   H141  S    
C90   O48   A    
C44   H138  S    
Cu6   O23   S    
C34   H116  S    
C41   H129  S    
Cu2   O31   S    
Cu11  O24   S    
C45   C47   S    
C67   C85   A    
C39   H135  S    
C55   O13   A    
H28   N13   S    
C42   C97   S    
C113  C128  A    
H38   N2    S    
Cu1   O1    S    
C72   C113  A    
C40   H132  S    
C104  C140  S    
C43   C44   S    
C22   H96   S    
C37   C38   S    
C32   H120  S    
C77   N6    S    
H19   N9    S    
C115  C118  A    
C39   H136  S    
C40   H133  S    
C11   H62   S    
C73   C91   A    
H49   N7    S    
H50   N8    S    
C36   C91   S    
H33   N15   S    
C75   C93   A    
C21   H85   S    
C101  O2    A    
C104  O43   A    
Cu4   O41   S    
Cu10  O20   S    
C54   O11   A    
C4    C5    S    
C19   C85   S    
C6    C7    S    
C54   C132  S    
C64   C120  A    
C1    O46   A    
C29   H113  S    
Cu12  O27   S    
C45   H7    S    
C118  C129  A    
C42   H143  S    
Cu8   O5    S    
C99   C136  S    
C56   O14   A    
C100  C137  S    
C71   C88   A    
C20   C21   S    
C5    H2    S    
C33   H118  S    
C3    H46   S    
C22   C23   S    
C34   H114  S    
C108  C126  A    
C41   H131  S    
C46   C139  T    
C20   H87   S    
C80   C97   A    
H30   N14   S    
C51   H11   S    
Cu3   Cu4   S    
C2    C57   S    
C79   O47   A    
C7    C8    S    
C17   H78   S    
C48   H4    S    
H36   N16   S    
C15   H69   S    
H45   N6    S    
C36   C37   S    
C142  H112  S    
C23   H94   S    
H23   N11   S    
Cu9   O2    S    
Cu5   Cu7   S    
C52   C112  S    
C58   C129  S    
C78   N7    S    
C124  C132  A    
H31   N14   S    
C65   C124  A    
C24   C79   S    
C47   H6    S    
C9    H66   S    
C58   O15   A    
Cu12  O30   S    
H27   N12   S    
Cu1   O9    S    
C9    C10   S    
Cu1   Cu6   S    
Cu6   O16   S    
C16   H82   S    
C104  O37   A    
Cu4   O43   S    
C54   O9    A    
C8    H54   S    
C70   C87   A    
C10   H63   S    
C57   O12   A    
C46   C101  S    
Cu7   O45   S    
C69   N13   S    
C107  C125  A    
C39   C40   S    
C98   C135  S    
C115  C128  A    
C59   O20   A    
C57   O45   A    
C60   O19   A    
C14   H72   S    
C29   C30   S    
C56   O16   A    
H37   N2    S    
C38   H121  S    
C17   C18   S    
C30   H109  S    
C49   C95   S    
Cu2   O35   S    
C110  C126  A    
C21   H83   S    
C61   O22   A    
C50   H12   S    
H20   N9    S    
C51   H9    S    
C121  C132  A    
C3    C4    S    
C37   H125  S    
C122  C131  A    
C17   H80   S    
C142  C143  S    
C36   H127  S    
C12   C14   S    
C49   H16   S    
C7    H55   S    
Cu10  O3    S    
H41   N4    S    
C24   C137  T    
C2    C135  T    
Cu4   O40   S    
C143  H90   S    
C111  C117  A    
C102  C133  S    
C48   H144  S    
C33   H117  S    
C74   C115  A    
C87   C93   A    
C100  O29   A    
Cu3   O37   S    
C10   C11   S    
C25   H92   S    
C26   H104  S    
C49   C50   S    
C14   C15   S    
C144  H1    S    
C56   C130  S    
C90   O7    A    
C1    C134  S    
C13   C68   S    
C120  C131  A    
C106  O41   A    
C102  O32   A    
H48   N7    S    
Cu2   O32   S    
C5    H134  S    
C26   H105  S    
C20   H86   S    
C26   C27   S    
C61   O25   A    
Cu10  O25   S    
C18   H75   S    
C30   C31   S    
C67   N12   S    
Cu2   O33   S    
C22   H97   S    
C23   H95   S    
C68   O23   A    
C16   C17   S    
C80   C109  A    
C61   C126  S    
Cu9   Cu11  S    
C11   H61   S    
C71   C118  A    
C9    C82   S    
C76   C108  A    
C43   H140  S    
H22   N10   S    
C4    H24   S    
C80   N8    S    
Cu1   O44   S    
C123  O8    A    
C55   O10   A    
Cu4   O42   S    
C28   H100  S    
C12   H73   S    
C72   N16   S    
C42   H142  S    
C31   H108  S    
C142  H101  S    
Cu12  O28   S    
Cu8   O48   S    
C32   C89   S    
C6    H58   S    
C66   N11   S    
C50   C51   S    
H18   N1    S    
C50   H14   S    
C67   C117  A    
Cu9   O8    S    
C19   H88   S    
C38   H124  S    
Cu3   O38   S    
C55   C131  S    
C44   H137  S    
H25   N11   S    
C133  C134  T    
C29   H111  S    
H26   N12   S    
C34   H115  S    
C42   C43   S    
C102  O30   A    
C41   H130  S    
Cu11  O21   S    
C76   N5    S    
C27   H102  S    
C58   O17   A    
C123  O4    A    
C60   C127  S    
C86   C89   A    
C62   C125  S    
C12   H74   S    
H32   N15   S    
C32   C33   S    
C32   H119  S    
C105  O38   A    
C110  C122  A    
C29   C93   S    
C114  C127  A    
Cu5   O47   S    
C59   O18   A    
Cu8   O18   S    
C52   C140  T    
C53   C141  T    
C22   C86   S    
C15   H67   S    
C45   C94   S    
C106  C138  S    
C47   H5    S    
C35   C90   S    
C9    H65   S    
C101  O6    A    
C83   C97   A    
C3    C84   S    
C16   C88   S    
H51   N8    S    
C75   N4    S    
Cu7   O15   S    
H17   N1    S    
C60   O21   A    
Cu5   O10   S    
C85   C91   A    
C18   H77   S    
C10   H64   S    
Cu12  O29   S    
C100  O33   A    
C63   C81   A    
C31   H106  S    
C45   H8    S    
C28   H98   S    
C65   N10   S    
C35   C138  T    
C105  C141  S    
C144  H57   S    
C99   O35   A    
C112  O5    A    
C65   C83   A    
Cu5   O17   S    
C84   C96   A    
C143  H79   S    
C8    H52   S    
C103  O40   A    
C38   H122  S    
C116  C129  A    
C88   C92   A    
H39   N3    S    
C44   H139  S    
C30   H110  S    
C103  O36   A    
C113  C116  A    
H44   N5    S    
Cu10  O7    S    
C63   C121  A    
H40   N3    S    
C73   C111  A    
C48   H3    S    
C4    H13   S    
Cu3   O36   S    
C15   H70   S    
H21   N10   S    
C77   C107  A    
C36   H128  S    
C53   C123  S    
C49   H15   S    
Cu8   O22   S    
C59   C128  S    
H42   N4    S    
C77   C95   A    
C74   N3    S    
C3    H35   S    
C47   C48   S    
C70   C119  A    
C33   C34   S    
C78   C110  A    
C75   C114  A    
C117  C130  A    
C62   O26   A    
C107  C121  A    
C64   C82   A    
Cu7   O13   S    
C25   H91   S    
C109  C125  A    
C40   C41   S    
Cu8   Cu10  S    
C16   H81   S    
C63   N1    S    
C111  C127  A    
C13   C136  T    
Cu5   O12   S    
C8    H53   S    
C73   N2    S    
C19   H89   S    
Cu3   O39   S    
C12   C87   S    
Cu6   O46   S    
C114  C119  A    
C103  C139  S    
C83   C142  S    
C98   O27   A    
C109  C124  A    
C27   H103  S    
H29   N13   S    
H43   N5    S    
C14   H71   S    
C18   H76   S    
C72   C89   A    
C28   H99   S    
C23   C25   S    
Cu1   O14   S    
C39   C96   S    
C144  H68   S    
C99   O28   A    
C66   C84   A    
Cu6   O11   S    
C21   H84   S    
Cu2   Cu12  S    
C79   O34   A    
C27   C28   S    
C6    C81   S    
C70   N14   S    
C51   H10   S    
Cu9   O19   S    
C37   H126  S    
C69   C86   A    
C71   N15   S    
