data_mof_unit_pretest_1143.cif
_audit_creation_date              2012-12-11T16:28:03-0500
_audit_creation_method            fapswitch 2.2
_symmetry_space_group_name_H-M    P1
_symmetry_Int_Tables_number       1
_space_group_crystal_system       triclinic
_cell_length_a                    30.284266
_cell_length_b                    22.571973
_cell_length_c                    18.0663
_cell_angle_alpha                 90.008548
_cell_angle_beta                  123.282154
_cell_angle_gamma                 89.993156
_cell_volume                      10324.0667623

loop_
_atom_site_label
_atom_site_type_symbol
_atom_type_description
_atom_site_fract_x
_atom_site_fract_y
_atom_site_fract_z
_atom_type_partial_charge
C1    C     C_R   0.540584 0.588310 0.734974 -0.117962
C2    C     C_R   0.646052 0.295422 0.422509 -0.236668
C3    C     C_R   0.788175 0.637464 0.035179 -0.297384
C4    C     C_R   0.296840 0.869791 0.026380 -0.304349
C5    C     C_R   0.711832 0.137465 0.964795 -0.297385
C6    C     C_R   0.752512 0.754048 0.134976 -0.312302
C7    C     C_R   0.228711 0.292617 0.822225 -0.310921
C8    C     C_R   0.800689 0.242779 0.898587 0.184810
C9    C     C_R   0.219865 0.811387 0.148161 0.202121
C10   C     C_R   0.151135 0.353162 0.942429 0.190422
C11   C     C_R   0.841254 0.650699 0.068083 0.188439
C12   C     C_R   0.348865 0.853097 0.057515 0.190311
C13   C     C_R   0.677091 0.652809 0.421337 -0.280863
C14   C     C_R   0.658748 0.150697 0.931862 0.188427
C15   C     C_R   0.699334 0.742799 0.101445 0.184808
C16   C     C_R   0.280138 0.311313 0.851816 0.202043
C17   C     C_R   0.593810 0.582256 0.423925 -0.260983
C18   C     C_R   0.415784 0.398220 0.574404 -0.199054
C19   C     C_R   0.404076 0.578027 0.574826 -0.233970
C20   C     C_R   0.578364 0.394263 0.423363 -0.195844
C21   C     C_R   0.095954 0.078041 0.425234 -0.233790
C22   C     C_R   0.921623 0.894280 0.576626 -0.195841
C23   C     C_R   0.906189 0.082261 0.576080 -0.260976
C24   C     C_R   0.311884 0.317016 0.521207 -0.251482
C25   C     C_R   0.084191 0.898186 0.425580 -0.199009
C26   C     C_R   0.393429 0.608338 0.292374 -0.183631
C27   C     C_R   0.612976 0.403796 0.729602 -0.135174
C28   C     C_R   0.615066 0.590489 0.736648 -0.160004
C29   C     C_R   0.382271 0.418517 0.256800 -0.077927
C30   C     C_R   0.884933 0.090490 0.263359 -0.160015
C31   C     C_R   0.117729 0.918511 0.743186 -0.077949
C32   C     C_R   0.106580 0.108324 0.707659 -0.183662
C33   C     C_R   0.887022 0.903803 0.270383 -0.135171
C34   C     C_R   0.591906 0.609173 0.781772 0.092826
C35   C     C_R   0.822882 0.152807 0.578660 -0.280867
C36   C     C_R   0.402877 0.402449 0.207279 0.051118
C37   C     C_R   0.421605 0.639721 0.264582 0.098928
C38   C     C_R   0.587423 0.376838 0.765531 0.060893
C39   C     C_R   0.078407 0.139711 0.735466 0.098997
C40   C     C_R   0.912570 0.876849 0.234433 0.060904
C41   C     C_R   0.908095 0.109174 0.218245 0.092845
C42   C     C_R   0.097119 0.902430 0.792688 0.051162
C43   C     C_R   0.643618 0.595468 0.495085 -0.008331
C44   C     C_R   0.374849 0.369805 0.500893 -0.114866
C45   C     C_R   0.352633 0.586352 0.502813 -0.004794
C46   C     C_R   0.187837 0.816764 0.478307 -0.251015
C47   C     C_R   0.618213 0.363851 0.495224 -0.104139
C48   C     C_R   0.147390 0.086356 0.497310 -0.004885
C49   C     C_R   0.881765 0.863878 0.504757 -0.104133
C50   C     C_R   0.856379 0.095468 0.504924 -0.008354
C51   C     C_R   0.125104 0.869736 0.499074 -0.114920
C52   C     C_R   0.216246 0.633818 0.432512 -0.275112
C53   C     C_R   0.670275 0.208887 0.550122 -0.223145
C54   C     C_R   0.779930 0.613286 0.541875 -0.272138
C55   C     C_R   0.337267 0.210802 0.472351 -0.232419
C56   C     C_R   0.720063 0.113213 0.458155 -0.272142
C57   C     C_R   0.188056 0.107383 0.411305 -0.263505
C58   C     C_R   0.162703 0.710703 0.527868 -0.232523
C59   C     C_R   0.283647 0.134442 0.567920 -0.274890
C60   C     C_R   0.829671 0.708931 0.449846 -0.223132
C61   C     C_R   0.255693 0.605951 0.429015 -0.132951
C62   C     C_R   0.647335 0.261862 0.551112 -0.183920
C63   C     C_R   0.738229 0.589472 0.543717 -0.093224
C64   C     C_R   0.362789 0.262831 0.476502 -0.152816
C65   C     C_R   0.761776 0.089418 0.456315 -0.093192
C66   C     C_R   0.137221 0.762773 0.523740 -0.152914
C67   C     C_R   0.244216 0.106587 0.571434 -0.132382
C68   C     C_R   0.853899 0.795496 0.577453 -0.236686
C69   C     C_R   0.852616 0.761894 0.448855 -0.183935
C70   C     C_R   0.305952 0.597890 0.506849 0.143287
C71   C     C_R   0.638080 0.306389 0.490351 0.121507
C72   C     C_R   0.687237 0.612124 0.487050 0.129884
C73   C     C_R   0.350001 0.315522 0.501043 0.107561
C74   C     C_R   0.812755 0.112106 0.512963 0.129883
C75   C     C_R   0.149898 0.815396 0.498883 0.107451
C76   C     C_R   0.194122 0.097948 0.493478 0.143726
C77   C     C_R   0.861878 0.806434 0.509616 0.121509
C78   C     C_3   0.795353 0.224893 0.649848 -0.405651
C79   C     C_R   0.272755 0.636866 0.592989 0.229766
C80   C     C_3   0.798051 0.286412 0.617498 -0.880574
C81   C     C_3   0.256217 0.769742 0.461143 -0.392671
C82   C     C_3   0.312229 0.773160 0.543278 -0.881202
C83   C     C_3   0.218788 0.149609 0.318136 -0.391214
C84   C     C_3   0.184992 0.204708 0.275077 -0.883258
C85   C     C_3   0.818580 0.736043 0.649993 -0.384929
C86   C     C_3   0.765814 0.763865 0.622870 -0.851948
C87   C     C_3   0.281523 0.650267 0.682211 -0.391387
C88   C     C_3   0.315216 0.705503 0.724732 -0.883378
C89   C     C_3   0.681365 0.235928 0.349972 -0.384943
C90   C     C_R   0.669902 0.242956 0.421364 0.217043
C91   C     C_3   0.734117 0.263769 0.377068 -0.851928
C92   C     C_3   0.704585 0.724889 0.350119 -0.405640
C93   C     C_3   0.701880 0.786420 0.382450 -0.880574
C94   C     C_3   0.243305 0.270163 0.537980 -0.391926
C95   C     C_3   0.187344 0.273029 0.455613 -0.881285
C96   C     C_3   0.825180 0.279806 0.859913 -0.298348
C97   C     C_3   0.851138 0.335759 0.914546 -0.780319
C98   C     C_3   0.201554 0.801109 0.210435 -0.267791
C99   C     C_3   0.195881 0.859591 0.247329 -0.849058
C100  C     C_3   0.123279 0.389105 0.976377 -0.271462
C101  C     C_R   0.718366 0.677585 0.419086 0.245647
C102  C     C_3   0.080682 0.429027 0.903899 -0.807751
C103  C     C_3   0.871853 0.604042 0.053579 -0.287414
C104  C     C_3   0.869811 0.615734 0.968428 -0.790876
C105  C     C_3   0.376686 0.888948 0.023431 -0.271436
C106  C     C_3   0.419240 0.928998 0.095748 -0.807384
C107  C     C_3   0.628146 0.104045 0.946346 -0.287400
C108  C     C_3   0.630167 0.115754 0.031479 -0.790890
C109  C     C_3   0.674852 0.779828 0.140149 -0.298372
C110  C     C_3   0.648889 0.835784 0.085541 -0.780286
C111  C     C_3   0.298460 0.300887 0.789580 -0.267650
C112  C     C_R   0.455903 0.418349 0.257782 -0.131118
C113  C     C_R   0.284863 0.265487 0.515684 0.227714
C114  C     C_3   0.304005 0.359273 0.752364 -0.849080
C115  C     C_R   0.781595 0.177566 0.580906 0.245683
C116  C     C_R   0.214822 0.765195 0.483812 0.228056
C117  C     C_R   0.227438 0.136571 0.407362 0.229348
C118  C     C_R   0.830045 0.743042 0.578601 0.217024
C119  C     C_R   0.227511 0.656132 0.512965 0.075515
C120  C     C_R   0.685752 0.201363 0.490571 0.080358
C121  C     C_R   0.770802 0.660751 0.485264 0.073486
C122  C     C_R   0.298026 0.211746 0.490613 0.088342
C123  C     C_R   0.729167 0.160695 0.514741 0.073454
C124  C     C_R   0.466999 0.606572 0.290904 -0.112649
C125  C     C_R   0.201801 0.711541 0.509268 0.088100
C126  C     C_R   0.272469 0.156324 0.487318 0.075799
C127  C     C_R   0.814197 0.701432 0.509404 0.080385
C128  C     C_R   0.406688 0.697938 0.218670 0.097417
C129  C     C_R   0.605254 0.322318 0.819008 0.102789
C130  C     C_R   0.618635 0.637020 0.869732 0.095490
C131  C     C_R   0.371892 0.382929 0.113365 0.104235
C132  C     C_R   0.881371 0.137022 0.130295 0.095488
C133  C     C_R   0.128101 0.882894 0.886581 0.104236
C134  C     C_R   0.093331 0.197927 0.781395 0.097420
C135  C     C_R   0.538569 0.403764 0.727204 -0.119116
C136  C     C_R   0.894737 0.822333 0.180932 0.102784
C137  C     C_R   0.420008 0.776307 0.139399 0.511983
C138  C     C_R   0.586759 0.228349 0.864023 0.512935
C139  C     C_R   0.615203 0.695884 0.979631 0.514498
C140  C     C_R   0.367257 0.348425 0.980949 0.510002
C141  C     C_R   0.884815 0.195869 0.020415 0.514496
C142  C     C_R   0.132726 0.848370 0.018960 0.509997
C143  C     C_R   0.080034 0.276311 0.860705 0.511983
C144  C     C_R   0.913231 0.728358 0.135890 0.512935
C145  C     C_R   0.436561 0.723891 0.189886 -0.346183
C146  C     C_R   0.033007 0.106572 0.709123 -0.112689
C147  C     C_R   0.570597 0.285173 0.825497 -0.342276
C148  C     C_R   0.589801 0.664198 0.899625 -0.350517
C149  C     C_R   0.396114 0.371233 0.067779 -0.341426
C150  C     C_R   0.910211 0.164190 0.100418 -0.350522
C151  C     C_R   0.103871 0.871174 0.932140 -0.341467
C152  C     C_R   0.063477 0.223884 0.810227 -0.346227
C153  C     C_R   0.929392 0.785185 0.174421 -0.342255
C154  C     C_R   0.361417 0.727068 0.201779 -0.237224
C155  C     C_R   0.655958 0.302877 0.851405 -0.245415
C156  C     C_R   0.673331 0.637057 0.923296 -0.234933
C157  C     C_R   0.961424 0.903772 0.272768 -0.119114
C158  C     C_R   0.317678 0.373770 0.070155 -0.244760
C159  C     C_R   0.826676 0.137065 0.076722 -0.234938
C160  C     C_R   0.182316 0.873734 0.929790 -0.244777
C161  C     C_R   0.138593 0.227050 0.798257 -0.237220
C162  C     C_R   0.844036 0.802893 0.148544 -0.245410
C163  C     C_R   0.343328 0.779583 0.152019 -0.001887
C164  C     C_R   0.671023 0.244510 0.878256 0.001035
C165  C     C_R   0.700470 0.669680 0.001967 -0.001814
C166  C     C_R   0.286825 0.353402 0.982502 -0.001755
C167  C     C_R   0.799542 0.169678 0.998049 -0.001813
C168  C     C_R   0.959419 0.088308 0.265039 -0.118003
C169  C     C_R   0.213171 0.853381 0.017441 -0.001769
C170  C     C_R   0.156683 0.279577 0.847996 -0.001926
C171  C     C_R   0.828977 0.744524 0.121699 0.001041
C172  C     C_R   0.371554 0.803750 0.116465 0.005170
C173  C     C_R   0.638059 0.207024 0.891373 0.000095
C174  C     C_R   0.671179 0.702712 0.028927 0.004505
C175  C     C_R   0.311812 0.337981 0.937360 0.004891
C176  C     C_R   0.828839 0.202700 0.971106 0.004516
C177  C     C_R   0.188182 0.837979 0.062578 0.004930
C178  C     C_R   0.128462 0.303770 0.883555 0.005264
C179  C     C_R   0.044094 0.918339 0.742200 -0.131124
C180  C     C_R   0.861938 0.707032 0.108563 0.000093
C181  C     C_R   0.294471 0.804716 0.129829 0.090975
C182  C     C_R   0.720588 0.225030 0.897966 0.086416
C183  C     C_R   0.755931 0.676220 0.046905 0.084858
C184  C     C_R   0.232058 0.342981 0.942726 0.089579
C185  C     C_R   0.744079 0.176216 0.953088 0.084858
C186  C     C_R   0.267942 0.842964 0.057232 0.089560
C187  C     C_R   0.205532 0.304704 0.870157 0.091003
C188  C     C_R   0.779421 0.725044 0.102017 0.086410
C189  C     C_R   0.644877 0.579608 0.570241 0.496663
C190  C     C_R   0.312193 0.607790 0.589072 -0.263293
C191  C     C_R   0.366539 0.398624 0.426949 0.544886
C192  C     C_R   0.353712 0.573757 0.428573 0.461285
C193  C     C_R   0.631405 0.396007 0.570623 0.516909
C194  C     C_R   0.146294 0.073718 0.571492 0.460659
C195  C     C_R   0.868584 0.896022 0.429365 0.516904
C196  C     C_R   0.855121 0.079608 0.429764 0.496661
C197  C     C_R   0.133431 0.898579 0.573031 0.545134
C198  C     C_R   0.747505 0.254026 0.865029 -0.312319
C199  C     C_R   0.271294 0.792675 0.177772 -0.310869
C200  C     C_R   0.203158 0.369846 0.973558 -0.304430
H1    H     H_    0.513325 0.588109 0.755938 0.090662
H2    H     H_    0.337924 0.706157 0.222217 0.129245
H3    H     H_    0.205778 0.244586 0.315215 0.269378
H4    H     H_    0.177726 0.210802 0.208265 0.256317
H5    H     H_    0.257076 0.155380 0.324395 0.193209
H6    H     H_    0.199097 0.111040 0.273491 0.191341
H7    H     H_    0.764780 0.811270 0.605486 0.250075
H8    H     H_    0.732647 0.740134 0.565535 0.272248
H9    H     H_    0.760477 0.760940 0.678848 0.253783
H10   H     H_    0.819508 0.689038 0.668118 0.203354
H11   H     H_    0.850304 0.757958 0.711793 0.185445
H12   H     H_    0.353875 0.700778 0.731838 0.254112
H13   H     H_    0.299921 0.378433 0.107545 0.133914
H14   H     H_    0.294302 0.745237 0.684310 0.269450
H15   H     H_    0.322565 0.711859 0.791559 0.256333
H16   H     H_    0.243278 0.656060 0.676097 0.193306
H17   H     H_    0.301342 0.611854 0.727127 0.191341
H18   H     H_    0.735128 0.311182 0.394414 0.250061
H19   H     H_    0.767296 0.240067 0.434421 0.272251
H20   H     H_    0.739453 0.260818 0.321090 0.253791
H21   H     H_    0.680460 0.188916 0.331880 0.203370
H22   H     H_    0.649628 0.257813 0.288159 0.185449
H23   H     H_    0.673747 0.786640 0.403746 0.259867
H24   H     H_    0.694583 0.615249 0.899132 0.129422
H25   H     H_    0.741335 0.800605 0.438370 0.272471
H26   H     H_    0.688046 0.818905 0.327867 0.250648
H27   H     H_    0.732514 0.724842 0.328776 0.188071
H28   H     H_    0.665386 0.714742 0.289401 0.186745
H29   H     H_    0.184420 0.307741 0.409540 0.260431
H30   H     H_    0.175388 0.229765 0.421498 0.273348
H31   H     H_    0.159391 0.284154 0.475184 0.250526
H32   H     H_    0.246667 0.233670 0.581641 0.197066
H33   H     H_    0.249487 0.311328 0.576115 0.197241
H34   H     H_    0.820723 0.364802 0.912050 0.234860
H35   H     H_    0.200070 0.878391 0.892399 0.133918
H36   H     H_    0.881244 0.325041 0.984765 0.277315
H37   H     H_    0.870502 0.360429 0.886640 0.239395
H38   H     H_    0.852730 0.253622 0.850767 0.228661
H39   H     H_    0.794189 0.294440 0.791852 0.163675
H40   H     H_    0.235482 0.879419 0.293115 0.236456
H41   H     H_    0.171440 0.892082 0.194112 0.282365
H42   H     H_    0.176942 0.851308 0.284355 0.236167
H43   H     H_    0.164760 0.774609 0.178307 0.229994
H44   H     H_    0.230534 0.773699 0.268118 0.145807
H45   H     H_    0.099188 0.462326 0.883806 0.235469
H46   H     H_    0.805419 0.115267 0.100876 0.129422
H47   H     H_    0.051461 0.403274 0.844538 0.280181
H48   H     H_    0.059617 0.452746 0.929554 0.241441
H49   H     H_    0.107534 0.360474 0.006499 0.231455
H50   H     H_    0.151560 0.418666 0.031630 0.160517
H51   H     H_    0.828476 0.611957 0.910277 0.241506
H52   H     H_    0.884735 0.660627 0.968521 0.279827
H53   H     H_    0.894353 0.582441 0.961610 0.238388
H54   H     H_    0.912914 0.599665 0.111754 0.229982
H55   H     H_    0.854467 0.559476 0.047435 0.155772
H56   H     H_    0.400694 0.962394 0.115645 0.235382
H57   H     H_    0.815712 0.834027 0.144168 0.132710
H58   H     H_    0.448459 0.903361 0.155248 0.280194
H59   H     H_    0.440316 0.952600 0.070028 0.241422
H60   H     H_    0.392460 0.860242 0.993421 0.231372
H61   H     H_    0.348373 0.918409 0.968055 0.160533
H62   H     H_    0.671497 0.111986 0.089643 0.241496
H63   H     H_    0.615230 0.160646 0.031371 0.279831
H64   H     H_    0.605624 0.082461 0.038282 0.238396
H65   H     H_    0.587090 0.099660 0.888157 0.229992
H66   H     H_    0.645542 0.059479 0.952503 0.155774
H67   H     H_    0.679300 0.864823 0.088034 0.234865
H68   H     H_    0.162078 0.206126 0.777806 0.129163
H69   H     H_    0.618777 0.825068 0.015321 0.277321
H70   H     H_    0.629532 0.860455 0.113468 0.239389
H71   H     H_    0.647307 0.753648 0.149298 0.228673
H72   H     H_    0.705850 0.794459 0.208212 0.163678
H73   H     H_    0.264374 0.379062 0.706674 0.236381
H74   H     H_    0.328507 0.391837 0.805430 0.282569
H75   H     H_    0.322812 0.350870 0.715150 0.236216
H76   H     H_    0.335305 0.274467 0.821827 0.229926
H77   H     H_    0.269528 0.273338 0.732035 0.145679
H78   H     H_    0.530643 0.299848 0.799591 0.127219
H79   H     H_    0.472374 0.702543 0.204166 0.122570
H80   H     H_    0.438205 0.377745 0.100633 0.121276
H81   H     H_    0.481969 0.421609 0.234618 0.091255
H82   H     H_    0.547094 0.662707 0.859219 0.124985
H83   H     H_    0.061776 0.877659 0.899270 0.121282
H84   H     H_    0.952918 0.162696 0.140832 0.124990
H85   H     H_    0.969343 0.799859 0.200318 0.127214
H86   H     H_    0.027681 0.202528 0.795997 0.122586
H87   H     H_    0.726958 0.286067 0.812057 0.152200
H88   H     H_    0.294284 0.771103 0.241547 0.139231
H89   H     H_    0.220271 0.406436 0.019611 0.141906
H90   H     H_    0.772818 0.595317 0.002468 0.140015
H91   H     H_    0.279724 0.906357 0.980293 0.141924
H92   H     H_    0.497836 0.617484 0.280498 0.093058
H93   H     H_    0.727192 0.095324 0.997513 0.140018
H94   H     H_    0.773061 0.786098 0.187944 0.152216
H95   H     H_    0.205725 0.271012 0.758471 0.139169
H96   H     H_    0.582324 0.579136 0.355826 0.130635
H97   H     H_    0.429617 0.388832 0.642214 0.129552
H98   H     H_    0.416882 0.575174 0.643475 0.120670
H99   H     H_    0.559218 0.382427 0.354477 0.128504
H100  H     H_    0.083173 0.075266 0.356588 0.120652
H101  H     H_    0.940762 0.882451 0.645510 0.128494
H102  H     H_    0.917675 0.079145 0.644178 0.130645
H103  H     H_    0.511048 0.397965 0.746731 0.090337
H104  H     H_    0.070346 0.888784 0.357767 0.129511
H105  H     H_    0.356670 0.620434 0.284494 0.123726
H106  H     H_    0.653720 0.399220 0.752179 0.171329
H107  H     H_    0.655969 0.594397 0.758650 0.121606
H108  H     H_    0.341079 0.424673 0.231582 0.153606
H109  H     H_    0.844030 0.094399 0.241353 0.121593
H110  H     H_    0.158920 0.924670 0.768411 0.153611
H111  H     H_    0.143347 0.120397 0.715554 0.123455
H112  H     H_    0.846279 0.899230 0.247811 0.171325
H113  H     H_    0.180348 0.646769 0.371024 0.143111
H114  H     H_    0.002171 0.117493 0.719532 0.093067
H115  H     H_    0.681218 0.176579 0.601821 0.130218
H116  H     H_    0.819878 0.599103 0.590849 0.137207
H117  H     H_    0.347929 0.169829 0.454714 0.131256
H118  H     H_    0.680123 0.099003 0.409191 0.137211
H119  H     H_    0.152166 0.669796 0.545847 0.131292
H120  H     H_    0.319385 0.147789 0.629379 0.142881
H121  H     H_    0.818729 0.676610 0.398155 0.130210
H122  H     H_    0.247224 0.597260 0.364000 0.198324
H123  H     H_    0.638783 0.269035 0.601328 0.134367
H124  H     H_    0.746281 0.555244 0.591449 0.173421
H125  H     H_    0.988937 0.897981 0.253220 0.090318
H126  H     H_    0.392530 0.262173 0.460731 0.131803
H127  H     H_    0.753742 0.055177 0.408597 0.173396
H128  H     H_    0.107611 0.762201 0.539810 0.131827
H129  H     H_    0.252509 0.098437 0.636468 0.197690
H130  H     H_    0.861172 0.769045 0.398643 0.134367
H131  H     H_    0.348890 0.597662 0.650582 0.127261
H132  H     H_    0.636723 0.329339 0.373494 0.128965
H133  H     H_    0.637151 0.668570 0.375395 0.137739
H134  H     H_    0.302537 0.358773 0.539292 0.136010
H135  H     H_    0.862813 0.168593 0.624591 0.137756
H136  H     H_    0.986681 0.088105 0.244082 0.090685
H137  H     H_    0.197101 0.858459 0.459955 0.136007
H138  H     H_    0.151503 0.096812 0.349799 0.127265
H139  H     H_    0.863230 0.829424 0.626466 0.128959
H140  H     H_    0.482195 0.774703 0.132218 0.320170
H141  H     H_    0.519199 0.215947 0.851809 0.318788
H142  H     H_    0.547478 0.711996 0.965454 0.317107
H143  H     H_    0.431540 0.344367 0.980095 0.314540
H144  H     H_    0.952546 0.211966 0.034614 0.317105
H145  H     H_    0.068425 0.844210 0.019747 0.314546
H146  H     H_    0.017906 0.274676 0.868048 0.320175
H147  H     H_    0.018027 0.921597 0.765366 0.091257
H148  H     H_    0.980782 0.715954 0.148063 0.318783
H149  H     H_    0.681325 0.541926 0.683706 0.315442
H150  H     H_    0.302973 0.357991 0.339053 0.317220
H151  H     H_    0.323168 0.537240 0.314202 0.321968
H152  H     H_    0.699326 0.359839 0.650429 0.311681
H153  H     H_    0.176784 0.037060 0.685754 0.322017
H154  H     H_    0.800656 0.859876 0.349544 0.311672
H155  H     H_    0.818678 0.041927 0.316286 0.315445
H156  H     H_    0.196974 0.857901 0.660904 0.317207
H157  H     H_    0.826198 0.286620 0.596232 0.259860
H158  H     H_    0.684282 0.334008 0.855792 0.132713
H159  H     H_    0.758598 0.300578 0.561553 0.272475
H160  H     H_    0.811862 0.318916 0.672062 0.250647
H161  H     H_    0.767416 0.224861 0.671173 0.188092
H162  H     H_    0.834549 0.214760 0.710580 0.186722
H163  H     H_    0.315064 0.808156 0.588936 0.260464
H164  H     H_    0.324460 0.730116 0.577987 0.273426
H165  H     H_    0.340018 0.784189 0.523327 0.250549
H166  H     H_    0.252960 0.732977 0.417933 0.197422
H167  H     H_    0.249745 0.810664 0.422407 0.197463
H168  H     H_    0.146297 0.199992 0.267842 0.254139
N1    N     N_R   0.532910 0.558440 0.665240 -0.037467
N2    N     N_R   0.402970 0.441090 0.454460 -0.078125
N3    N     N_R   0.402970 0.558910 0.454460 -0.097872
N4    N     N_R   0.597030 0.441090 0.545540 -0.075925
N5    N     N_R   0.097030 0.058910 0.545540 -0.097805
N6    N     N_R   0.902970 0.941090 0.454460 -0.075923
N7    N     N_R   0.902970 0.058910 0.454460 -0.100895
N8    N     N_R   0.097030 0.941090 0.545540 -0.078073
N9    N     N_R   0.566200 0.559270 0.454460 -0.056657
N10   N     N_R   0.433800 0.440730 0.545540 -0.065171
N11   N     N_R   0.433800 0.559270 0.545540 -0.056879
N12   N     N_R   0.467090 0.441560 0.334760 -0.043017
N13   N     N_R   0.566200 0.440730 0.454460 -0.063960
N14   N     N_R   0.066200 0.059270 0.454460 -0.056836
N15   N     N_R   0.933800 0.940730 0.545540 -0.063960
N16   N     N_R   0.933800 0.059270 0.545540 -0.056662
N17   N     N_R   0.066200 0.940730 0.454460 -0.065162
N18   N     N_R   0.421050 0.559750 0.334770 -0.051640
N19   N     N_R   0.578950 0.440250 0.665230 -0.045154
N20   N     N_R   0.578950 0.559750 0.665230 -0.049943
N21   N     N_R   0.421050 0.440250 0.334770 -0.047803
N22   N     N_R   0.921050 0.059750 0.334770 -0.049945
N23   N     N_R   0.467090 0.558440 0.334760 -0.036949
N24   N     N_R   0.078950 0.940250 0.665230 -0.047842
N25   N     N_R   0.078950 0.059750 0.665230 -0.051668
N26   N     N_R   0.921050 0.940250 0.334770 -0.045157
N27   N     N_R   0.532910 0.441560 0.665240 -0.040505
N28   N     N_R   0.032910 0.058440 0.665240 -0.036950
N29   N     N_R   0.967090 0.941560 0.334760 -0.040511
N30   N     N_R   0.967090 0.058440 0.334760 -0.037479
N31   N     N_R   0.032910 0.941560 0.665240 -0.043021
N32   N     N_R   0.597030 0.558910 0.545540 -0.100888
Ni1   Ni    Ni4+2 0.483090 0.500000 0.604440 0.199303
Ni2   Ni    Ni4+2 0.516910 0.500000 0.395560 0.197937
Ni3   Ni    Ni4+2 0.983090 0.000000 0.604440 0.197920
Ni4   Ni    Ni4+2 0.016910 0.000000 0.395560 0.199334
Ni5   Ni    Ni4+2 0.586780 0.500000 0.604440 0.232123
Ni6   Ni    Ni4+2 0.413220 0.500000 0.395560 0.234698
Ni7   Ni    Ni4+2 0.086780 0.000000 0.604440 0.234774
Ni8   Ni    Ni4+2 0.913220 0.000000 0.395560 0.232111
O1    O     O_3   0.449960 0.798998 0.109738 -0.784209
O2    O     O_3   0.325555 0.390322 0.340498 -0.795496
O3    O     O_3   0.310347 0.557734 0.347467 -0.796662
O4    O     O_3   0.677653 0.391784 0.652643 -0.808366
O5    O     O_3   0.189639 0.057491 0.652503 -0.796207
O6    O     O_3   0.822338 0.891806 0.347340 -0.808364
O7    O     O_3   0.809682 0.070012 0.348188 -0.786048
O8    O     O_3   0.174409 0.890253 0.659477 -0.795430
O9    O     O_3   0.552467 0.193906 0.873372 -0.784887
O10   O     O_3   0.585348 0.721686 0.007389 -0.787373
O11   O     O_3   0.393597 0.334072 0.940708 -0.786193
O12   O     O_3   0.914676 0.221657 0.992671 -0.787377
O13   O     O_3   0.106375 0.833952 0.059153 -0.786105
O14   O     O_3   0.050124 0.298986 0.890467 -0.784218
O15   O     O_3   0.947519 0.693912 0.126516 -0.784896
O16   O     O_3   0.690316 0.570017 0.651817 -0.786075

loop_
_geom_bond_atom_site_label_1
_geom_bond_atom_site_label_2
_ccdc_geom_bond_type
H143  O11   S    
C31   C42   A    
C21   H100  S    
H141  O9    S    
C15   C109  S    
C64   C73   A    
N18   N23   A    
C133  C151  A    
C33   N26   A    
C79   C87   S    
C12   C172  A    
C136  C162  A    
C59   C126  A    
N31   Ni3   S    
C158  C166  A    
C170  C178  A    
C57   C76   A    
C24   H134  S    
C83   H6    S    
C52   C61   A    
C152  H86   S    
C128  C145  A    
C142  C177  A    
C54   C63   A    
C161  H68   S    
C167  C185  A    
C6    C188  A    
C2    H132  S    
C149  H80   S    
C4    C186  A    
C2    C90   A    
C63   H124  S    
N17   Ni4   S    
C51   C197  A    
C113  C122  A    
C78   C115  S    
H149  O16   S    
C170  C187  A    
C1    C34   A    
C200  H89   S    
C108  H62   S    
C4    C12   A    
C117  C126  A    
C98   H44   S    
C128  C154  A    
C21   C48   A    
C84   H4    S    
N20   Ni5   S    
C111  C114  S    
C55   H117  S    
C110  H67   S    
C114  H75   S    
C138  O9    S    
C31   H110  S    
C115  C123  A    
C52   H113  S    
C165  C183  A    
C38   C129  S    
N30   Ni4   S    
C40   C157  A    
C166  C184  A    
N14   Ni4   S    
C57   H138  S    
C49   C195  A    
N26   Ni8   S    
C146  H114  S    
C10   C200  A    
C158  H13   S    
C182  C185  A    
H153  O5    S    
C142  C151  A    
C131  C158  A    
C17   C43   A    
N32   Ni5   S    
C18   C44   A    
C27   N19   A    
H140  O1    S    
C25   N17   A    
C53   H115  S    
C164  C173  A    
C94   H33   S    
C192  N3    A    
C163  C172  A    
C47   C71   S    
C59   H120  S    
C80   H160  S    
C22   C49   A    
C99   H40   S    
C16   C175  A    
C14   C107  S    
C153  H85   S    
C96   H39   S    
C131  C149  A    
C2    C71   A    
C9    C177  A    
C70   C190  A    
C17   N9    A    
C68   C77   A    
C61   H122  S    
C47   C193  A    
C194  O5    S    
C124  H92   S    
C86   H7    S    
C60   H121  S    
C13   C72   A    
C97   H37   S    
C133  C160  A    
C83   C117  S    
C4    H91   S    
C109  H71   S    
C183  C188  A    
C136  C153  A    
C192  O3    S    
N3    Ni6   S    
C159  C167  A    
C108  H64   S    
C129  C147  A    
C20   C47   A    
C3    C11   A    
C8    C198  A    
C65   C74   A    
N2    N10   A    
C93   H25   S    
C98   C99   S    
C88   H12   S    
C18   H97   S    
C103  H54   S    
N25   Ni7   S    
C130  C156  A    
C114  H73   S    
C39   C134  S    
C99   H41   S    
C9    C98   S    
C104  H52   S    
C163  C181  A    
C196  O7    S    
C48   C76   S    
C155  H158  S    
C69   C77   A    
H148  O15   S    
C86   H9    S    
C168  H136  S    
C94   H32   S    
C85   C86   S    
N12   N21   A    
C111  H77   S    
C7    C187  A    
C14   C173  A    
C50   C74   S    
C89   H21   S    
C195  N6    A    
C78   C80   S    
C143  C178  A    
C44   C73   S    
C58   H119  S    
N29   Ni4   S    
C59   C67   A    
C144  C180  A    
C92   H27   S    
C184  C200  A    
C107  C108  S    
C30   C41   A    
H142  O10   S    
C89   C91   S    
N22   Ni8   S    
C96   C97   S    
C145  H79   S    
C85   H11   S    
C169  C177  A    
C46   C75   A    
C94   C113  S    
C141  C150  A    
N25   N28   A    
C139  C148  A    
C132  C159  A    
N3    N11   A    
C162  C171  A    
C106  H56   S    
C100  H49   S    
C110  H70   S    
N16   Ni3   S    
C165  C174  A    
C104  H53   S    
C90   C120  A    
C107  H65   S    
H156  O8    S    
C83   C84   S    
H150  O2    S    
N23   Ni2   S    
C54   H116  S    
C111  H76   S    
C140  O11   S    
C35   C115  A    
C84   H168  S    
C62   H123  S    
C54   C121  A    
C105  H60   S    
C116  C125  A    
C106  H59   S    
C118  C127  A    
N2    Ni6   S    
C181  C199  A    
C182  C198  A    
N27   Ni1   S    
C96   H38   S    
C102  H47   S    
C81   H167  S    
C181  C186  A    
C19   C45   A    
C168  N30   A    
C195  O6    S    
C26   N18   A    
C184  C187  A    
C156  H24   S    
C99   H42   S    
C83   H5    S    
H152  O4    S    
C1    N1    A    
C60   C69   A    
C97   H34   S    
C81   C116  S    
C49   C77   S    
C62   C71   A    
H151  O3    S    
C30   H109  S    
C13   H133  S    
C52   C119  A    
C197  O8    S    
C16   C111  S    
C139  C174  A    
C3    H90   S    
C65   H127  S    
C3    C183  A    
C140  C149  A    
C9    C199  A    
N15   Ni3   S    
C61   C70   A    
C87   C88   S    
C35   C74   A    
C88   H15   S    
H155  O7    S    
C46   H137  S    
C103  H55   S    
C197  N8    A    
C5    C185  A    
C1    H1    S    
C53   C120  A    
C69   H130  S    
C82   H163  S    
C199  H88   S    
C40   C136  S    
C25   H104  S    
C166  C175  A    
C171  C188  A    
C18   N10   A    
C137  C145  A    
C95   H31   S    
C169  C186  A    
C121  C127  S    
N24   N31   A    
N13   Ni2   S    
C12   C105  S    
C24   C73   A    
C27   C38   A    
C41   C168  A    
C20   H99   S    
C32   C39   A    
C91   H20   S    
C137  C172  A    
C68   H139  S    
C50   C196  A    
C139  O10   S    
C79   C119  A    
C36   C112  A    
C141  C176  A    
C160  C169  A    
C95   H30   S    
C132  C150  A    
N5    N14   A    
C189  N32   A    
C120  C123  S    
C80   H157  S    
C78   H162  S    
C37   C128  S    
C157  N29   A    
N7    N16   A    
C28   C34   A    
C32   N25   A    
C196  N7    A    
C142  O13   S    
N9    N32   A    
C102  H45   S    
N4    Ni5   S    
C154  H2    S    
C86   H8    S    
C129  C155  A    
C23   C50   A    
C179  H147  S    
H144  O12   S    
C97   H36   S    
N12   Ni2   S    
C101  C121  A    
C29   H108  S    
C29   N21   A    
C56   C123  A    
C159  H46   S    
C179  N31   A    
C45   C192  A    
C42   C179  A    
C189  O16   S    
C134  C152  A    
C138  C173  A    
C8    C176  A    
C150  H84   S    
C38   C135  A    
C135  N27   A    
C19   N11   A    
C5    C14   A    
C148  H82   S    
C92   C101  S    
C119  C125  S    
C84   H3    S    
C7    C16   A    
C112  N12   A    
C64   H126  S    
N4    N13   A    
N19   Ni5   S    
C161  C170  A    
C147  H78   S    
C114  H74   S    
C57   C117  A    
C198  H87   S    
C15   C174  A    
C48   C194  A    
C45   C70   S    
C60   C127  A    
C66   H128  S    
C95   H29   S    
N26   N29   A    
C135  H103  S    
C41   C132  S    
C27   H106  S    
C26   C37   A    
C105  C106  S    
C19   H98   S    
C46   C116  A    
C91   H18   S    
C23   H102  S    
C109  C110  S    
C191  N2    A    
C156  C165  A    
C140  C175  A    
C66   C75   A    
C39   C146  A    
C92   C93   S    
C193  O4    S    
C112  H81   S    
C85   C118  S    
C164  C182  A    
C80   H159  S    
C63   C72   A    
C92   H28   S    
C103  C104  S    
C33   C40   A    
N9    Ni2   S    
C11   C180  A    
C89   C90   S    
C194  N5    A    
C28   N20   A    
C143  O14   S    
C43   C72   S    
N1    N20   A    
C8    C96   S    
C85   H10   S    
C81   C82   S    
C137  O1    S    
C29   C36   A    
C88   H14   S    
C42   C133  S    
C51   C75   S    
C109  H72   S    
C100  H50   S    
C44   C191  A    
C56   H118  S    
C56   C65   A    
C78   H161  S    
C108  H63   S    
N1    Ni1   S    
C144  C153  A    
C124  N23   A    
C6    C15   A    
C93   H26   S    
C58   C66   A    
H154  O6    S    
C162  H57   S    
C31   N24   A    
C79   C190  A    
N18   Ni6   S    
C68   C118  A    
C55   C122  A    
C20   N13   A    
C104  H51   S    
H146  O14   S    
C146  N28   A    
C22   N15   A    
C107  H66   S    
N28   Ni3   S    
C35   H135  S    
C130  C148  A    
N8    N17   A    
C10   C178  A    
N11   Ni1   S    
C154  C163  A    
C22   H101  S    
C102  H48   S    
C81   H166  S    
C141  O12   S    
C93   H23   S    
C36   C131  S    
C89   H22   S    
C7    H95   S    
C21   N14   A    
C160  H35   S    
C191  O2    S    
C23   N16   A    
C122  C126  S    
C10   C100  S    
C25   C51   A    
C151  H83   S    
N22   N30   A    
C37   C124  A    
C53   C62   A    
C138  C147  A    
C87   H16   S    
H145  O13   S    
C55   C64   A    
C100  C102  S    
C98   H43   S    
C94   C95   S    
N5    Ni7   S    
N6    Ni8   S    
C43   C189  A    
C5    H93   S    
C157  H125  S    
N10   Ni1   S    
C28   H107  S    
C171  C180  A    
N6    N15   A    
C13   C101  A    
N24   Ni7   S    
N7    Ni8   S    
C143  C152  A    
N8    Ni7   S    
C134  C161  A    
N21   Ni6   S    
C30   N22   A    
C110  H69   S    
C6    H94   S    
C67   H129  S    
C82   H164  S    
C155  C164  A    
C32   H111  S    
C33   H112  S    
C87   H17   S    
C91   H19   S    
C193  N4    A    
C190  H131  S    
N19   N27   A    
C144  O15   S    
C82   H165  S    
C24   C113  A    
C34   C130  S    
C58   C125  A    
C105  H61   S    
C26   H105  S    
C106  H58   S    
C11   C103  S    
C67   C76   A    
C167  C176  A    
C17   H96   S    
