data_mof_unit_pretest_1213.cif
_audit_creation_date              2012-12-10T18:04:37-0500
_audit_creation_method            fapswitch 2.2
_symmetry_space_group_name_H-M    P1
_symmetry_Int_Tables_number       1
_space_group_crystal_system       triclinic
_cell_length_a                    10.788242
_cell_length_b                    9.696638
_cell_length_c                    16.00726
_cell_angle_alpha                 89.926942
_cell_angle_beta                  95.077635
_cell_angle_gamma                 89.617999
_cell_volume                      1667.90299309

loop_
_atom_site_label
_atom_site_type_symbol
_atom_type_description
_atom_site_fract_x
_atom_site_fract_y
_atom_site_fract_z
_atom_type_partial_charge
C1    C     C_R   0.871383 0.498970 0.499990 -0.172338
C2    C     C_R   0.128617 0.501030 0.500010 -0.172339
C3    C     C_R   0.262780 0.500337 0.499415 0.948774
C4    C     C_R   0.737220 0.499663 0.500585 0.948774
C5    C     C_R   0.499276 0.500083 0.341714 0.829968
C6    C     C_R   0.500723 0.499917 0.658286 0.829969
C7    C     C_R   0.501671 0.627002 0.955764 0.134535
C8    C     C_R   0.498329 0.372998 0.044236 0.134535
C9    C     C_R   0.500416 0.627133 0.044056 0.135005
C10   C     C_R   0.499584 0.372867 0.955944 0.135005
C11   C     C_R   0.501028 0.499872 0.912287 0.049201
C12   C     C_R   0.498972 0.500128 0.087713 0.049201
C13   C     C_1   0.501158 0.499765 0.822281 -0.010719
C14   C     C_1   0.498842 0.500234 0.177719 -0.010719
C15   C     C_1   0.498965 0.500238 0.252730 -0.151294
C16   C     C_1   0.501035 0.499762 0.747270 -0.151293
C17   C     C_R   0.419152 0.074889 0.444986 0.250395
C18   C     C_R   0.580848 0.925111 0.555014 0.250396
C19   C     C_R   0.580685 0.073235 0.555043 0.208025
C20   C     C_R   0.419315 0.926765 0.444957 0.208026
C21   C     C_R   0.074500 0.428494 0.563249 0.249989
C22   C     C_R   0.925500 0.571506 0.436751 0.249988
C23   C     C_R   0.944111 0.431319 0.564779 0.226880
C24   C     C_R   0.055889 0.568681 0.435221 0.226880
Cu1   Cu    Cu3+1 0.500000 0.640660 0.500000 0.967142
Cu2   Cu    Cu3+1 0.500000 0.359340 0.500000 0.967142
N1    N     N_R   0.500000 0.852070 0.500000 -0.189814
N2    N     N_R   0.500000 0.147930 0.500000 -0.189814
O1    O     O_R   0.319640 0.618740 0.499990 -0.579392
O2    O     O_R   0.680360 0.381260 0.500010 -0.579392
O3    O     O_R   0.680360 0.618740 0.500010 -0.567793
O4    O     O_R   0.319640 0.381260 0.499990 -0.567794
O5    O     O_R   0.499970 0.618750 0.380310 -0.574129
O6    O     O_R   0.500030 0.381250 0.619690 -0.574129
O7    O     O_R   0.500030 0.618750 0.619690 -0.595459
O8    O     O_R   0.499970 0.381250 0.380310 -0.595459
C25   C     C_3   0.326355 0.147156 0.382237 -0.757780
H1    H     H_    0.326182 0.258753 0.382352 0.269949
H2    H     H_    0.344301 0.117889 0.317397 0.195968
H3    H     H_    0.230087 0.118516 0.394105 0.202435
C26   C     C_3   0.673645 0.852844 0.617763 -0.757781
H4    H     H_    0.673818 0.741247 0.617648 0.269949
H5    H     H_    0.769913 0.881483 0.605894 0.202435
H6    H     H_    0.655699 0.882111 0.682603 0.195968
C27   C     C_3   0.672451 0.143851 0.618122 -0.701873
H7    H     H_    0.672234 0.255188 0.616785 0.300140
H8    H     H_    0.653020 0.115791 0.682879 0.188955
H9    H     H_    0.769018 0.113430 0.607310 0.220518
C28   C     C_3   0.327548 0.856149 0.381878 -0.701873
H10   H     H_    0.327766 0.744812 0.383215 0.300140
H11   H     H_    0.230982 0.886570 0.392690 0.220518
H12   H     H_    0.346980 0.884209 0.317121 0.188955
C29   C     C_3   0.500604 0.764165 0.090413 -0.826063
H13   H     H_    0.498761 0.754287 0.159193 0.238137
H14   H     H_    0.585772 0.822676 0.079514 0.233055
H15   H     H_    0.417351 0.825887 0.067685 0.228546
C30   C     C_3   0.499396 0.235835 0.909587 -0.826063
H16   H     H_    0.501239 0.245713 0.840807 0.238137
H17   H     H_    0.582649 0.174112 0.932314 0.228546
H18   H     H_    0.414227 0.177324 0.920486 0.233055
C31   C     C_3   0.503740 0.763893 0.909215 -0.832993
H19   H     H_    0.505411 0.753797 0.840450 0.235357
H20   H     H_    0.419569 0.825443 0.920037 0.233473
H21   H     H_    0.587992 0.822687 0.931856 0.229790
C32   C     C_3   0.496260 0.236107 0.090784 -0.832993
H22   H     H_    0.494589 0.246202 0.159550 0.235357
H23   H     H_    0.412008 0.177313 0.068144 0.229790
H24   H     H_    0.580431 0.174556 0.079963 0.233473
O9    O     O_3   0.151247 0.356610 0.622094 -0.720859
H25   H     H_    0.105118 0.276645 0.641813 0.336291
O10   O     O_3   0.848754 0.643391 0.377907 -0.720859
H26   H     H_    0.894882 0.723355 0.358188 0.336291
O11   O     O_3   0.885520 0.376468 0.630460 -0.770484
H27   H     H_    0.943645 0.377468 0.681902 0.338464
O12   O     O_3   0.114479 0.623531 0.369539 -0.770484
H28   H     H_    0.056355 0.622530 0.318098 0.338464

loop_
_geom_bond_atom_site_label_1
_geom_bond_atom_site_label_2
_ccdc_geom_bond_type
Cu1   O3    S    
C31   H21   S    
O12   H28   S    
C19   C27   S    
C24   O12   S    
Cu2   O4    S    
C20   C28   S    
C20   N1    A    
Cu1   N1    S    
C11   C13   S    
C26   H4    S    
C3    O4    A    
Cu2   N2    S    
Cu1   O5    S    
C8    C12   A    
C32   H24   S    
O10   H26   S    
C1    C4    S    
C2    C21   A    
C21   C23   A    
C2    C3    S    
C4    O2    A    
C1    C22   A    
C25   H2    S    
C17   C25   S    
C29   H13   S    
C7    C11   A    
C19   N2    A    
C26   H5    S    
C3    O1    A    
C30   H16   S    
C25   H1    S    
C23   O11   S    
Cu2   O8    S    
C26   H6    S    
Cu1   O7    S    
C32   H22   S    
C1    C23   A    
O9    H25   S    
C29   H14   S    
O11   H27   S    
C2    C24   A    
C31   H19   S    
C9    C12   A    
C22   C24   A    
C29   H15   S    
C30   H17   S    
C5    C15   S    
C10   C11   A    
C18   C26   S    
C6    C16   S    
C25   H3    S    
C4    O3    A    
C5    O8    A    
C22   O10   S    
C8    C32   S    
C17   C20   A    
C9    C29   S    
C6    O7    A    
C10   C30   S    
Cu1   O1    S    
C8    C10   A    
C28   H10   S    
C27   H8    S    
C13   C16   T    
C21   O9    S    
C7    C9    A    
C14   C15   T    
C18   C19   A    
C30   H18   S    
C27   H9    S    
C28   H11   S    
Cu1   Cu2   S    
C27   H7    S    
C17   N2    A    
Cu2   O6    S    
C31   H20   S    
C7    C31   S    
C18   N1    A    
C6    O6    A    
C28   H12   S    
C12   C14   S    
C32   H23   S    
Cu2   O2    S    
C5    O5    A    
