data_mof_unit_pretest_1061.cif
_audit_creation_date              2012-10-26T19:57:54-0400
_audit_creation_method            fapswitch 2.2
_symmetry_space_group_name_H-M    P1
_symmetry_Int_Tables_number       1
_space_group_crystal_system       triclinic
_cell_length_a                    7.618255
_cell_length_b                    8.703575
_cell_length_c                    12.988293
_cell_angle_alpha                 85.239528
_cell_angle_beta                  78.337587
_cell_angle_gamma                 103.08919
_cell_volume                      813.990790013

loop_
_atom_site_label
_atom_site_type_symbol
_atom_type_description
_atom_site_fract_x
_atom_site_fract_y
_atom_site_fract_z
_atom_type_partial_charge
C1    C     C_R   0.452567 0.200019 0.503298 0.541868
C2    C     C_R   0.731860 0.539465 0.116145 -0.139080
C3    C     C_R   0.606118 0.520558 0.856920 -0.133683
C4    C     C_R   0.397094 0.473541 0.143119 -0.134573
C5    C     C_R   0.590589 0.515003 0.965773 0.046919
C6    C     C_R   0.413300 0.480206 0.034423 0.048454
C7    C     C_2   0.426669 0.031205 0.505699 -0.157776
C8    C     C_2   0.573104 0.968894 0.490780 -0.158794
C9    C     C_3   0.912662 0.310137 0.592958 -0.063221
C10   C     C_3   0.962665 0.271869 0.697942 -0.403306
C11   C     C_3   0.086503 0.641418 0.374042 -0.064368
C12   C     C_R   0.547499 0.800033 0.495457 0.542879
C13   C     C_3   0.036410 0.797442 0.347123 -0.402383
C14   C     C_R   0.465535 0.496190 0.701308 0.539832
C15   C     C_R   0.534829 0.503415 0.298791 0.538512
C16   C     C_R   0.555562 0.505094 0.184502 0.001799
C17   C     C_R   0.446760 0.493029 0.815754 0.001765
C18   C     C_R   0.254640 0.453628 0.993420 -0.141642
C19   C     C_R   0.749234 0.543815 0.007134 -0.142090
C20   C     C_R   0.271471 0.461118 0.884595 -0.138407
Cu1   Cu    Cu3+1 0.686350 0.517570 0.488220 0.913561
Cu2   Cu    Cu3+1 0.313650 0.482430 0.511780 0.914217
H1    H     H_    0.260493 0.443611 0.195178 0.112869
H2    H     H_    0.970154 0.376768 0.741097 0.146037
H3    H     H_    0.852004 0.172186 0.747610 0.090244
H4    H     H_    0.771370 0.317583 0.618554 0.192946
H5    H     H_    0.918654 0.209223 0.546798 0.121066
H6    H     H_    0.907698 0.777609 0.317682 0.183453
H7    H     H_    0.027206 0.864253 0.416421 0.161406
H8    H     H_    0.147421 0.873065 0.281671 0.087484
H9    H     H_    0.228376 0.681644 0.380163 0.192353
H10   H     H_    0.079865 0.572187 0.306435 0.114684
H11   H     H_    0.742527 0.546859 0.804574 0.123505
H12   H     H_    0.856111 0.563981 0.146691 0.119887
H13   H     H_    0.147098 0.441178 0.854975 0.116533
H14   H     H_    0.117943 0.427657 0.045369 0.101896
H15   H     H_    0.886082 0.570893 0.955304 0.101922
H16   H     H_    0.285847 0.957722 0.520818 0.127576
H17   H     H_    0.713724 0.042164 0.474255 0.114916
H18   H     H_    0.092072 0.231660 0.686911 0.187972
N1    N     N_2   0.033570 0.455950 0.529530 -0.130967
N2    N     N_2   0.966430 0.544050 0.470470 -0.130254
O1    O     O_R   0.621060 0.286250 0.492350 -0.528837
O2    O     O_R   0.378940 0.713750 0.507650 -0.515576
O3    O     O_R   0.306310 0.256580 0.512240 -0.509790
O4    O     O_R   0.693690 0.743420 0.487760 -0.507462
O5    O     O_R   0.631800 0.512400 0.642670 -0.523216
O6    O     O_R   0.368200 0.487600 0.357330 -0.536993
O7    O     O_R   0.317060 0.482730 0.662570 -0.510222
O8    O     O_R   0.682940 0.517270 0.337430 -0.513915

loop_
_geom_bond_atom_site_label_1
_geom_bond_atom_site_label_2
_ccdc_geom_bond_type
C4    C16   A    
Cu2   O6    S    
C13   H6    S    
C14   O5    A    
C5    C19   A    
C8    H17   S    
C9    H4    S    
C2    C16   A    
C9    C10   S    
C9    N1    S    
C8    C12   S    
C2    H12   S    
C11   H9    S    
C7    C8    D    
C12   O2    A    
Cu1   O4    S    
Cu1   O1    S    
Cu1   Cu2   S    
C11   C13   S    
C14   C17   S    
C1    O3    A    
C15   O6    A    
Cu2   O7    S    
C10   H3    S    
C13   H7    S    
Cu1   O8    S    
C7    H16   S    
C11   H10   S    
C3    C17   A    
C18   C20   A    
C5    C6    A    
C6    C18   A    
Cu1   O5    S    
Cu2   N1    S    
C3    H11   S    
C15   C16   S    
C14   O7    A    
C13   H8    S    
C17   C20   A    
C9    H5    S    
C11   N2    S    
C4    C6    A    
Cu2   O3    S    
N1    N2    D    
C15   O8    A    
C4    H1    S    
C10   H18   S    
C19   H15   S    
C10   H2    S    
C2    C19   A    
C1    C7    S    
C20   H13   S    
C18   H14   S    
C1    O1    A    
Cu2   O2    S    
Cu1   N2    S    
C3    C5    A    
C12   O4    A    
