data_mof_unit_pretest_1392.cif
_audit_creation_date              2012-12-11T14:17:46-0500
_audit_creation_method            fapswitch 2.2
_symmetry_space_group_name_H-M    P1
_symmetry_Int_Tables_number       1
_space_group_crystal_system       triclinic
_cell_length_a                    6.945641
_cell_length_b                    13.900365
_cell_length_c                    20.279137
_cell_angle_alpha                 101.497322
_cell_angle_beta                  90.018177
_cell_angle_gamma                 90.425588
_cell_volume                      1918.54561672

loop_
_atom_site_label
_atom_site_type_symbol
_atom_type_description
_atom_site_fract_x
_atom_site_fract_y
_atom_site_fract_z
_atom_type_partial_charge
O1    O     O_R   0.506860 0.599390 0.449240 -0.544653
O2    O     O_R   0.180220 0.594600 0.586780 -0.550290
O3    O     O_R   0.004500 0.400610 0.550760 -0.538293
C1    C     C_R   0.349457 0.614201 0.613940 0.736306
O4    O     O_R   0.177490 0.611290 0.451970 -0.519920
O5    O     O_R   0.001750 0.417420 0.414990 -0.537273
C2    C     C_R   0.347722 0.638374 0.435630 0.751712
O6    O     O_R   0.509610 0.582580 0.585010 -0.552447
O7    O     O_3   0.337420 0.436370 0.488020 -0.375199
V1    V     V_3+5 0.064680 0.511800 0.502220 1.472995
O8    O     O_R   0.671710 0.405400 0.413220 -0.538544
C3    C     C_R   0.841956 0.382839 0.387443 0.778975
O9    O     O_R   0.674440 0.388710 0.548030 -0.542439
C4    C     C_R   0.842933 0.363324 0.565689 0.749322
V2    V     V_3+5 0.564010 0.488200 0.497780 1.456400
O10   O     O_3   0.841140 0.563630 0.511980 -0.379705
C5    C     C_R   0.026662 0.144747 0.624726 -0.172791
H1    H     H_    0.225489 0.081836 0.717865 0.153668
H2    H     H_    0.111754 0.080512 0.604602 0.147862
C6    C     C_R   0.856164 0.287917 0.606663 -0.082812
C7    C     C_R   0.726032 0.296597 0.928137 0.101078
C8    C     C_R   0.651068 0.357585 0.887337 -0.105864
C9    C     C_R   0.698035 0.343721 0.819436 -0.154335
C10   C     C_R   0.835083 0.273374 0.790740 0.059122
C11   C     C_R   0.928553 0.217760 0.833373 -0.013911
C12   C     C_R   0.878596 0.254202 0.720459 0.087389
C13   C     C_R   0.001354 0.174836 0.694183 0.043038
C14   C     C_R   0.110529 0.131652 0.737598 -0.224457
C15   C     C_R   0.087495 0.159294 0.806739 0.206087
C16   C     C_R   0.811656 0.312524 0.675473 -0.261328
C17   C     C_R   0.949806 0.199569 0.580941 0.255606
C18   C     C_R   0.855695 0.221287 0.899627 -0.092800
H3    H     H_    0.739100 0.381195 0.693225 0.106528
H4    H     H_    0.622799 0.388615 0.790336 0.114711
H5    H     H_    0.549532 0.414496 0.907193 0.114706
C19   C     C_2   0.999426 0.260748 0.293338 0.172567
C20   C     C_2   0.853858 0.322995 0.318599 -0.250758
H6    H     H_    0.741941 0.338898 0.285439 0.160486
C21   C     C_2   0.003909 0.212640 0.220170 -0.194298
C22   C     C_2   0.850530 0.174031 0.182541 0.133462
H7    H     H_    0.145788 0.201037 0.197648 0.155844
C23   C     C_2   0.194013 0.776821 0.784048 0.115418
C24   C     C_2   0.353536 0.807960 0.822382 -0.344984
H8    H     H_    0.490400 0.774069 0.806572 0.114060
C25   C     C_2   0.205138 0.701776 0.719849 -0.155765
C26   C     C_2   0.362177 0.680602 0.680876 -0.333341
H9    H     H_    0.070196 0.666842 0.700892 0.135100
H10   H     H_    0.500956 0.713264 0.696888 0.123052
C27   C     C_R   0.565075 0.854675 0.379047 -0.128872
H11   H     H_    0.657475 0.916377 0.399478 0.185313
C28   C     C_R   0.369832 0.717495 0.397515 -0.091442
C29   C     C_R   0.262442 0.699787 0.075787 -0.164990
C30   C     C_R   0.245423 0.622332 0.110229 0.134509
C31   C     C_R   0.293222 0.639158 0.178781 -0.137526
C32   C     C_R   0.359400 0.731881 0.213194 0.098181
C33   C     C_R   0.410920 0.801909 0.173862 0.002280
C34   C     C_R   0.391650 0.754532 0.284284 0.010663
C35   C     C_R   0.517893 0.834137 0.310491 0.018745
C36   C     C_R   0.592017 0.893724 0.267861 0.284289
C37   C     C_R   0.526145 0.882521 0.202312 -0.193879
C38   C     C_R   0.303624 0.702378 0.330409 0.177023
C39   C     C_R   0.495386 0.796831 0.422646 0.043334
C40   C     C_R   0.351850 0.787364 0.105994 -0.095938
H12   H     H_    0.213012 0.692172 0.024397 0.098007
H13   H     H_    0.288535 0.577396 0.203672 0.154167
H14   H     H_    0.577472 0.933976 0.172641 0.181811
O11   O     O_R   0.203230 0.917310 0.915020 -0.536841
O12   O     O_R   0.535500 0.888690 0.048040 -0.549298
O13   O     O_R   0.711080 0.082610 0.085000 -0.517580
C41   C     C_R   0.366397 0.864780 0.066749 0.697003
O14   O     O_R   0.532630 0.905370 0.913230 -0.551433
O15   O     O_R   0.708190 0.099410 0.949230 -0.529950
C42   C     C_R   0.362337 0.882449 0.886872 0.770849
O16   O     O_R   0.206120 0.900510 0.050790 -0.538403
O17   O     O_3   0.375360 0.063570 0.011990 -0.346431
V3    V     V_3+5 0.648170 0.988200 0.997780 1.465299
O18   O     O_R   0.038240 0.111390 0.951940 -0.517709
C43   C     C_R   0.870405 0.135900 0.932998 0.718728
O19   O     O_R   0.041120 0.094710 0.086750 -0.551653
C44   C     C_R   0.871393 0.114672 0.113640 0.709800
V4    V     V_3+5 0.148810 0.011930 0.002180 1.490555
O20   O     O_3   0.871750 0.936430 0.988010 -0.388972
Br1   Br    Br    0.978695 0.153074 0.486385 -0.633169
Br2   Br    Br    0.590462 0.178323 0.216615 -0.644235
C45   C     C_3   0.993560 0.818697 0.799470 -0.322691
C46   C     C_3   0.973644 0.912644 0.771667 -0.317609
C47   C     C_3   0.768170 0.951176 0.776397 -0.734139
H15   H     H_    0.726313 0.974645 0.829710 0.253767
H16   H     H_    0.758543 0.015604 0.751889 0.229016
H17   H     H_    0.666667 0.893912 0.750545 0.219857
H18   H     H_    0.070966 0.968856 0.800477 0.227241
H19   H     H_    0.017806 0.898591 0.717902 0.196164
H20   H     H_    0.883170 0.765165 0.774659 0.140503
H21   H     H_    0.956697 0.829952 0.853506 0.191080
C48   C     C_3   0.552847 0.823889 0.496429 -0.359500
C49   C     C_3   0.379644 0.861474 0.540911 -0.313202
C50   C     C_3   0.442298 0.902346 0.613286 -0.762824
H22   H     H_    0.527940 0.847182 0.633012 0.227615
H23   H     H_    0.530875 0.969879 0.615766 0.241128
H24   H     H_    0.313341 0.920839 0.645487 0.212948
H25   H     H_    0.306269 0.920566 0.520927 0.223226
H26   H     H_    0.274854 0.800661 0.540811 0.186945
H27   H     H_    0.618089 0.760253 0.513255 0.188715
H28   H     H_    0.665747 0.882299 0.503971 0.195378
Br3   Br    Br    0.791712 0.989007 0.294561 -0.588590
Br4   Br    Br    0.066949 0.627487 0.309748 -0.589341
C51   C     C_3   0.174543 0.521525 0.076367 -0.367227
C52   C     C_3   0.164727 0.504783 0.998892 -0.365512
C53   C     C_3   0.149453 0.396309 0.966768 -0.723284
H29   H     H_    0.291581 0.361412 0.963543 0.237814
H30   H     H_    0.056507 0.356608 0.996839 0.235947
H31   H     H_    0.093202 0.388705 0.914809 0.234836
H32   H     H_    0.037774 0.543732 0.983900 0.192290
H33   H     H_    0.295505 0.534338 0.978134 0.188187
H34   H     H_    0.269823 0.465787 0.091096 0.188636
H35   H     H_    0.030816 0.510188 0.097152 0.189900
C54   C     C_3   0.663774 0.309261 0.001663 -0.324730
C55   C     C_3   0.663724 0.416447 0.039594 -0.392115
C56   C     C_3   0.660858 0.423481 0.115807 -0.730300
H36   H     H_    0.535353 0.382591 0.130582 0.243007
H37   H     H_    0.794806 0.392263 0.132589 0.230954
H38   H     H_    0.650987 0.501643 0.141588 0.230437
H39   H     H_    0.790524 0.455910 0.025782 0.218401
H40   H     H_    0.538125 0.454965 0.024780 0.209683
H41   H     H_    0.518958 0.276078 0.004308 0.204839
H42   H     H_    0.763126 0.268929 0.029211 0.159305
Br5   Br    Br    0.313404 0.141138 0.857365 -0.598298
C57   C     C_3   0.176474 0.245377 0.334825 -0.331642
C58   C     C_3   0.226706 0.137058 0.330234 -0.271500
C59   C     C_3   0.399216 0.126654 0.375071 -0.597491
H43   H     H_    0.529897 0.160571 0.357712 0.277892
H44   H     H_    0.371240 0.162723 0.428083 0.240121
H45   H     H_    0.425617 0.047830 0.373697 0.234749
H46   H     H_    0.102986 0.098988 0.347951 0.281342
H47   H     H_    0.258526 0.100404 0.277640 0.239834
H48   H     H_    0.300735 0.284414 0.317389 0.198917
H49   H     H_    0.157699 0.274732 0.388970 0.217797

loop_
_geom_bond_atom_site_label_1
_geom_bond_atom_site_label_2
_ccdc_geom_bond_type
C24   C42   S    
C32   C33   A    
C49   H26   S    
C22   Br2   S    
O2    C1    A    
C48   C49   S    
C28   C38   A    
O15   V3    S    
C57   C58   S    
C50   H22   S    
C21   H7    S    
C31   H13   S    
C6    C16   A    
C30   C31   A    
C48   H28   S    
C8    H5    S    
C12   C13   A    
C36   Br3   S    
C7    C8    A    
C19   C20   D    
C10   C12   A    
C46   H18   S    
C53   H30   S    
O5    C3    A    
O14   V3    S    
V2    O10   S    
C17   Br1   S    
C52   C53   S    
O13   V3    S    
C52   H33   S    
C3    C20   S    
C55   C56   S    
C7    C54   S    
C58   H47   S    
O8    V2    S    
C15   Br5   S    
C39   C48   S    
C41   O16   A    
O15   C43   A    
C51   C52   S    
C22   C44   S    
O11   C42   A    
C54   H42   S    
C53   H29   S    
C1    O6    A    
C11   C18   A    
C25   H9    S    
C37   H14   S    
C36   C37   A    
C49   H25   S    
C19   C57   S    
C28   C39   A    
C45   H20   S    
C50   H23   S    
C48   H27   S    
V4    O20   S    
C56   H37   S    
C11   C15   A    
C7    C18   A    
C26   H10   S    
C5    C13   A    
C4    C6    S    
H1    C14   S    
C10   C11   A    
C29   H12   S    
C53   H31   S    
V3    O20   S    
C21   C22   D    
O19   V4    S    
C46   C47   S    
O17   V4    S    
C1    C26   S    
C35   C36   A    
O18   C43   A    
C27   C35   A    
C33   C37   A    
C23   C25   S    
C52   H32   S    
C59   H44   S    
O17   V3    S    
C20   H6    S    
C45   H21   S    
C30   C51   S    
C40   C41   S    
O18   V4    S    
C9    C10   A    
C9    H4    S    
C49   C50   S    
C33   C40   A    
C23   C45   S    
C55   H40   S    
C34   C38   A    
C38   Br4   S    
C51   H34   S    
C45   C46   S    
O3    C4    A    
C57   H49   S    
O1    V2    S    
O11   V4    S    
O6    V2    S    
C32   C34   A    
O9    V2    S    
C5    C17   A    
O19   C44   A    
C59   H45   S    
C23   C24   D    
O16   V4    S    
O2    V1    S    
C50   H24   S    
C29   C30   A    
O4    C2    A    
C58   C59   S    
O7    V1    S    
C56   H38   S    
C31   C32   A    
C14   C15   A    
C27   C39   A    
C16   H3    S    
O1    C2    A    
C19   C21   S    
C29   C40   A    
O5    V1    S    
C56   H36   S    
C12   C16   A    
O12   V3    S    
C57   H48   S    
C59   H43   S    
O7    V2    S    
C2    C28   S    
O4    V1    S    
O3    V1    S    
V1    O10   S    
C54   C55   S    
C34   C35   A    
C24   H8    S    
C5    H2    S    
C55   H39   S    
C51   H35   S    
C18   C43   S    
C58   H46   S    
C25   C26   D    
C47   H15   S    
O12   C41   A    
C27   H11   S    
C47   H17   S    
O14   C42   A    
C13   C14   A    
C47   H16   S    
C8    C9    A    
O13   C44   A    
C46   H19   S    
O9    C4    A    
C54   H41   S    
O8    C3    A    
C6    C17   A    
