data_mof_unit_pretest_931.cif
_audit_creation_date              2012-12-10T20:28:41-0500
_audit_creation_method            fapswitch 2.2
_symmetry_space_group_name_H-M    P1
_symmetry_Int_Tables_number       1
_space_group_crystal_system       triclinic
_cell_length_a                    10.655048
_cell_length_b                    10.662262
_cell_length_c                    9.963845
_cell_angle_alpha                 89.956101
_cell_angle_beta                  89.468383
_cell_angle_gamma                 90.158344
_cell_volume                      1131.90827368

loop_
_atom_site_label
_atom_site_type_symbol
_atom_type_description
_atom_site_fract_x
_atom_site_fract_y
_atom_site_fract_z
_atom_type_partial_charge
C1    C     C_R   0.498208 0.260533 0.500181 0.913179
C2    C     C_R   0.058505 0.499555 0.627271 -0.001658
C3    C     C_R   0.124157 0.528978 0.508194 -0.193673
C4    C     C_R   0.059297 0.544949 0.388913 0.192091
C5    C     C_R   0.939933 0.492214 0.378540 0.172322
C6    C     C_R   0.873680 0.462152 0.497161 -0.177818
C7    C     C_R   0.531995 0.063730 0.613171 0.005724
C8    C     C_R   0.487637 0.128647 0.502416 -0.072122
C9    C     C_R   0.427615 0.064791 0.398140 -0.237970
C10   C     C_R   0.427747 0.934879 0.397950 -0.235363
C11   C     C_R   0.487211 0.871181 0.502565 -0.069484
C12   C     C_R   0.259964 0.513624 0.501700 0.892863
C13   C     C_R   0.530803 0.935729 0.613950 0.047353
C14   C     C_3   0.654389 0.925139 0.683518 -0.559685
C15   C     C_3   0.656972 0.068646 0.681670 0.391107
C16   C     C_R   0.417475 0.426890 0.071600 0.222976
C17   C     C_R   0.574534 0.579635 0.070837 -0.141507
C18   C     C_R   0.574611 0.579588 0.927498 -0.137191
C19   C     C_R   0.417311 0.427088 0.929993 0.224077
C20   C     C_3   0.405557 0.288019 0.924322 -0.495549
C21   C     C_3   0.406450 0.287615 0.076813 -0.525438
C22   C     C_R   0.498269 0.739432 0.500087 0.873783
C23   C     C_R   0.738943 0.482688 0.499207 0.908514
C24   C     C_R   0.108155 0.523658 0.754369 -0.116445
C25   C     C_R   0.054105 0.471448 0.868294 0.246293
C26   C     C_R   0.943236 0.402232 0.858399 -0.184721
C27   C     C_R   0.883409 0.393846 0.735027 -0.128073
C28   C     C_R   0.937305 0.450511 0.619533 0.053160
H1    H     H_    0.726136 0.875260 0.622591 0.195994
H2    H     H_    0.647955 0.108575 0.784226 0.075660
H3    H     H_    0.636796 0.642489 0.123596 0.148129
H4    H     H_    0.637031 0.642300 0.873412 0.151811
H5    H     H_    0.314233 0.257962 0.881735 0.211657
H6    H     H_    0.489427 0.242665 0.878954 0.203516
H7    H     H_    0.315765 0.256747 0.122039 0.195516
H8    H     H_    0.491174 0.242227 0.119172 0.216285
H9    H     H_    0.186282 0.587485 0.766756 0.161036
H10   H     H_    0.900325 0.360172 0.946565 0.148412
H11   H     H_    0.795783 0.342728 0.730851 0.198477
H12   H     H_    0.385451 0.114611 0.315394 0.162035
H13   H     H_    0.386171 0.884886 0.314721 0.165664
H14   H     H_    0.642495 0.886249 0.786409 0.170649
N1    N     N_R   0.499160 0.499140 0.142800 -0.110035
N2    N     N_R   0.499160 0.499180 0.857150 -0.116163
O1    O     O_R   0.500020 0.316790 0.614690 -0.624074
O2    O     O_R   0.500000 0.316760 0.385350 -0.630755
O3    O     O_R   0.316770 0.500020 0.614690 -0.629643
O4    O     O_R   0.316760 0.499980 0.385350 -0.606863
O5    O     O_R   0.500000 0.683240 0.614650 -0.615109
O6    O     O_R   0.499980 0.683210 0.385310 -0.626622
O7    O     O_R   0.683240 0.500020 0.614650 -0.625529
O8    O     O_R   0.683230 0.499980 0.385310 -0.609449
Zn1   Zn    Zn3+2 0.500010 0.500020 0.653130 0.938928
Zn2   Zn    Zn3+2 0.499990 0.499980 0.346870 0.934175
C29   C     C_3   0.105728 0.642472 0.290479 -0.902317
H15   H     H_    0.027714 0.680719 0.230081 0.233661
H16   H     H_    0.145430 0.723629 0.345876 0.223092
H17   H     H_    0.180888 0.604557 0.225262 0.273775
O9    O     O_3   0.753681 0.131767 0.607548 -0.614115
C30   C     C_3   0.793517 0.071298 0.488358 -0.295831
H18   H     H_    0.715637 0.028367 0.431064 0.170615
H19   H     H_    0.866174 0.000269 0.511455 0.172745
H20   H     H_    0.838068 0.142486 0.421934 0.178961
C31   C     C_3   0.111643 0.496340 0.999954 -0.989380
H21   H     H_    0.198432 0.553563 0.991004 0.233712
H22   H     H_    0.042889 0.552242 0.056172 0.263669
H23   H     H_    0.134385 0.406893 0.051013 0.252272
C32   C     C_3   0.893601 0.449331 0.243442 -0.872580
H24   H     H_    0.817013 0.378994 0.251870 0.246423
H25   H     H_    0.861770 0.530057 0.182369 0.242103
H26   H     H_    0.969264 0.396629 0.192776 0.232749

loop_
_geom_bond_atom_site_label_1
_geom_bond_atom_site_label_2
_ccdc_geom_bond_type
C8    C9    A    
O9    C30   S    
C29   H15   S    
C17   N1    A    
C29   H16   S    
C16   C21   S    
C21   H7    S    
C18   N2    A    
C1    C8    S    
C9    C10   A    
C11   C22   S    
C23   O7    A    
C19   C20   S    
C22   O6    A    
C19   N2    A    
O3    Zn1   S    
C20   H6    S    
C31   H21   S    
O2    Zn2   S    
C31   H22   S    
C7    C15   S    
C24   H9    S    
C23   O8    A    
O1    Zn1   S    
C7    C8    A    
C21   H8    S    
C14   H14   S    
C20   C21   S    
C10   H13   S    
O4    Zn2   S    
C4    C5    A    
C11   C13   A    
C16   N1    A    
C1    O1    A    
C26   C27   A    
O6    Zn2   S    
C12   O3    A    
O5    Zn1   S    
C6    C23   S    
C32   H25   S    
C12   O4    A    
O8    Zn2   S    
C17   C18   A    
C2    C3    A    
C32   H26   S    
C4    C29   S    
C2    C24   A    
C5    C6    A    
C17   H3    S    
C30   H20   S    
C1    O2    A    
C18   H4    S    
C10   C11   A    
C20   H5    S    
C14   H1    S    
C3    C4    A    
C31   H23   S    
C5    C32   S    
C7    C13   A    
C24   C25   A    
C15   H2    S    
C30   H19   S    
C29   H17   S    
C22   O5    A    
C27   C28   A    
C14   C15   S    
C26   H10   S    
C2    C28   A    
C3    C12   S    
N1    Zn2   S    
C25   C26   A    
C13   C14   S    
C15   O9    S    
N2    Zn1   S    
C32   H24   S    
C9    H12   S    
C6    C28   A    
C27   H11   S    
C30   H18   S    
O7    Zn1   S    
C25   C31   S    
C16   C19   A    
