data_mof_unit_pretest_1603.cif
_audit_creation_date              2012-12-10T22:09:15-0500
_audit_creation_method            fapswitch 2.2
_symmetry_space_group_name_H-M    P1
_symmetry_Int_Tables_number       1
_space_group_crystal_system       triclinic
_cell_length_a                    16.426143
_cell_length_b                    16.576535
_cell_length_c                    28.797319
_cell_angle_alpha                 90.822676
_cell_angle_beta                  90.80195
_cell_angle_gamma                 89.994185
_cell_volume                      7839.6034971

loop_
_atom_site_label
_atom_site_type_symbol
_atom_type_description
_atom_site_fract_x
_atom_site_fract_y
_atom_site_fract_z
_atom_type_partial_charge
C1    C     C_R   0.616936 0.998182 0.560735 0.895245
C2    C     C_R   0.049869 0.267753 0.101842 -0.137861
C3    C     C_R   0.928136 0.818117 0.129375 0.485458
C4    C     C_R   0.928768 0.752548 0.098272 -0.319772
C5    C     C_R   0.039096 0.755908 0.173774 -0.104268
C6    C     C_R   0.039464 0.690407 0.142414 -0.058149
C7    C     C_R   0.941788 0.274176 0.177302 0.366053
C8    C     C_R   0.943136 0.338039 0.145379 0.312275
C9    C     C_R   0.189980 0.945975 0.373069 0.370871
C10   C     C_R   0.251624 0.946564 0.407589 -0.206006
C11   C     C_R   0.738421 0.060311 0.336863 0.364528
C12   C     C_R   0.613406 0.001276 0.439152 1.031513
C13   C     C_R   0.673402 0.056115 0.368166 0.245924
C14   C     C_3   0.993306 0.014158 0.253598 -0.071280
C15   C     C_R   0.192572 0.003207 0.337861 -0.034668
C16   C     C_R   0.316839 0.001937 0.404668 -0.222441
C17   C     C_R   0.802349 0.004915 0.340714 -0.067228
C18   C     C_R   0.677771 0.001162 0.404894 -0.195202
C19   C     C_R   0.997306 0.210661 0.172209 -0.031996
C20   C     C_R   0.995325 0.332967 0.107113 -0.183085
C21   C     C_R   0.984123 0.819715 0.166550 0.017940
C22   C     C_R   0.985007 0.690035 0.104005 -0.124920
C23   C     C_R   0.386208 0.998740 0.560783 0.781669
C24   C     C_1   0.066709 0.010608 0.281517 -0.001321
C25   C     C_1   0.992917 0.086818 0.227021 0.051349
C26   C     C_1   0.924017 0.012947 0.283513 0.046309
C27   C     C_1   0.989313 0.945370 0.222505 0.019414
C28   C     C_1   0.125515 0.007517 0.306199 0.208913
C29   C     C_1   0.986107 0.888274 0.196889 0.077351
C30   C     C_1   0.994031 0.144903 0.203229 0.128249
C31   C     C_1   0.867785 0.010010 0.309076 0.143260
C32   C     C_R   0.017945 0.096357 0.794141 0.386060
C33   C     C_R   0.042386 0.172895 0.812398 0.380325
C34   C     C_R   0.383021 0.001696 0.439307 0.987237
C35   C     C_R   0.084715 0.896727 0.813616 0.416498
C36   C     C_R   0.076692 0.838591 0.848847 -0.159766
C37   C     C_R   0.917824 0.057837 0.697178 0.414460
C38   C     C_R   0.845552 0.060936 0.669592 -0.119066
C39   C     C_R   0.124377 0.847788 0.708734 0.463778
C40   C     C_R   0.183448 0.816541 0.677857 0.324149
C41   C     C_R   0.115291 0.969422 0.661904 -0.157528
C42   C     C_R   0.164990 0.931833 0.628241 -0.103892
C43   C     C_R   0.918437 0.910542 0.687391 0.314191
C44   C     C_R   0.850391 0.916005 0.656944 -0.112109
C45   C     C_R   0.255694 0.059536 0.335126 0.283907
C46   C     C_R   0.150015 0.082242 0.757146 -0.011296
C47   C     C_R   0.173518 0.156168 0.777208 -0.321022
C48   C     C_R   0.938497 0.886347 0.797420 -0.118176
C49   C     C_R   0.932565 0.824821 0.830844 0.393284
C50   C     C_3   0.033472 0.970514 0.739820 0.068867
C51   C     C_R   0.068083 0.052268 0.762112 0.065708
C52   C     C_R   0.120392 0.201560 0.803926 0.027801
C53   C     C_R   0.017079 0.916212 0.783857 0.144813
C54   C     C_R   0.001630 0.800855 0.855728 -0.005805
C55   C     C_R   0.953891 0.981430 0.708543 -0.001722
C56   C     C_R   0.320699 0.056452 0.367682 0.321519
C57   C     C_R   0.813225 0.990597 0.649088 -0.034257
C58   C     C_R   0.094776 0.929198 0.704250 0.024120
C59   C     C_R   0.200951 0.857009 0.637143 -0.027168
C60   C     C_1   0.995000 0.735890 0.888467 0.106054
C61   C     C_1   0.991980 0.681585 0.915696 -0.159166
C62   C     C_1   0.147120 0.278131 0.823149 0.081893
C63   C     C_1   0.169383 0.342090 0.839247 0.020629
C64   C     C_1   0.742427 0.994931 0.618593 0.032884
C65   C     C_1   0.684508 0.997105 0.592585 -0.146745
C66   C     C_1   0.256578 0.820109 0.604526 0.075493
C67   C     C_R   0.805134 0.947382 0.376125 -0.175946
C68   C     C_1   0.302922 0.788502 0.577753 0.097304
C69   C     C_R   0.987295 0.625703 0.069023 0.899653
C70   C     C_R   0.993521 0.397181 0.073107 0.962955
C71   C     C_R   0.992113 0.617665 0.948564 0.884865
C72   C     C_R   0.998300 0.386916 0.953613 0.820828
C73   C     C_R   0.742763 0.946299 0.409213 0.337931
C74   C     C_R   0.051788 0.207131 0.135086 -0.098946
H1    H     H_    0.235115 0.178289 0.772683 0.176619
H2    H     H_    0.886935 0.751269 0.068819 0.160624
O1    O     O_R   0.589050 0.066000 0.546390 -0.618365
O2    O     O_R   0.924600 0.421430 0.056650 -0.566824
O3    O     O_R   0.061270 0.426220 0.059090 -0.622247
O4    O     O_R   0.920260 0.595630 0.052680 -0.602462
O5    O     O_R   0.924170 0.588160 0.962540 -0.600482
O6    O     O_R   0.065180 0.418740 0.968950 -0.605819
O7    O     O_R   0.928510 0.413960 0.966510 -0.609659
O8    O     O_R   0.060840 0.592940 0.964990 -0.606504
O9    O     O_R   0.585350 0.934000 0.453610 -0.582645
O10   O     O_R   0.586750 0.068930 0.454890 -0.573426
O11   O     O_R   0.587650 0.931070 0.545110 -0.593893
O12   O     O_R   0.413250 0.931070 0.545110 -0.615840
O13   O     O_R   0.412350 0.068930 0.454890 -0.554420
O14   O     O_R   0.410950 0.934000 0.453610 -0.632488
O15   O     O_R   0.414650 0.066000 0.546390 -0.606753
O16   O     O_R   0.056930 0.600420 0.055130 -0.612760
Zn1   Zn    Zn3+2 0.500940 0.090730 0.500860 1.060506
Zn2   Zn    Zn3+2 0.499060 0.909270 0.499140 1.028949
Zn3   Zn    Zn3+2 0.084620 0.510410 0.012460 1.013304
Zn4   Zn    Zn3+2 0.900820 0.503970 0.009170 1.033634
O17   O     O_3   0.389436 0.103838 0.363660 -0.721786
H3    H     H_    0.397419 0.116111 0.330479 0.350669
C75   C     C_1   0.872802 0.891241 0.378691 0.207956
N1    N     N_1   0.926827 0.846538 0.380663 -0.144421
C76   C     C_1   0.107904 0.139796 0.130387 0.225458
N2    N     N_1   0.152530 0.086128 0.126690 -0.172476
O18   O     O_3   0.874518 0.881645 0.123829 -0.750758
H4    H     H_    0.839603 0.871014 0.096038 0.339720
C77   C     C_1   0.095289 0.758081 0.213167 0.205248
N3    N     N_1   0.140014 0.759930 0.244579 -0.157900
O19   O     O_3   0.886315 0.270921 0.212899 -0.737336
H5    H     H_    0.836787 0.301144 0.203721 0.352059
O20   O     O_3   0.124786 0.892790 0.373073 -0.744188
H6    H     H_    0.133157 0.850785 0.396674 0.353877
O21   O     O_3   0.742212 0.118264 0.302889 -0.731630
H7    H     H_    0.711632 0.166564 0.313306 0.353621
O22   O     O_3   0.990668 0.221585 0.837868 -0.784440
H8    H     H_    0.933700 0.209362 0.828530 0.359467
C78   C     C_1   0.146979 0.813266 0.876031 0.196391
N4    N     N_1   0.202979 0.792986 0.897729 -0.177273
C79   C     C_1   0.803751 0.136941 0.662165 0.208102
N5    N     N_1   0.770346 0.197479 0.656229 -0.175364
O23   O     O_3   0.743416 0.894481 0.446598 -0.737952
H9    H     H_    0.792695 0.860298 0.446530 0.351040
O24   O     O_3   0.223168 0.744490 0.686152 -0.754472
H10   H     H_    0.224547 0.735173 0.720077 0.352225
C80   C     C_1   0.180172 0.971072 0.584383 0.186836
N6    N     N_1   0.191742 0.002446 0.549443 -0.207607
C81   C     C_1   0.818802 0.844640 0.633068 0.205595
N7    N     N_1   0.793572 0.787818 0.613994 -0.169632
O25   O     O_3   0.859436 0.787770 0.841018 -0.744490
H11   H     H_    0.820638 0.793631 0.814678 0.342158
O26   O     O_3   0.943029 0.065619 0.805276 -0.789354
H12   H     H_    0.931358 0.080496 0.837969 0.336071
O27   O     O_3   0.159794 0.929889 0.804351 -0.794164
H13   H     H_    0.196700 0.926047 0.831643 0.345474
O28   O     O_3   0.955079 0.128640 0.711836 -0.765158
H14   H     H_    0.934139 0.175682 0.694683 0.348806
O29   O     O_3   0.090893 0.796402 0.740553 -0.752203
H15   H     H_    0.092628 0.740200 0.728370 0.354370
C82   C     C_1   0.090262 0.051637 0.652674 0.227385
N8    N     N_1   0.072448 0.117401 0.644192 -0.160763
C83   C     C_1   0.101853 0.261262 0.061571 0.236623
N9    N     N_1   0.143263 0.255990 0.029479 -0.180211
O30   O     O_3   0.951200 0.836202 0.698278 -0.753949
H16   H     H_    0.912607 0.792064 0.690664 0.348751
C84   C     C_1   0.216701 0.037730 0.736891 0.265990
N10   N     N_1   0.271189 0.002929 0.721230 -0.203173
C85   C     C_1   0.862352 0.922997 0.782868 0.269703
N11   N     N_1   0.801000 0.951932 0.771879 -0.177447
C86   C     C_1   0.093859 0.622875 0.150491 0.225130
N12   N     N_1   0.137156 0.568978 0.156954 -0.171778
O31   O     O_3   0.896343 0.406699 0.151112 -0.755165
H17   H     H_    0.886203 0.415300 0.184634 0.347004
C87   C     C_1   0.245995 0.893212 0.446847 0.239714
N13   N     N_1   0.241285 0.850483 0.478112 -0.194114
O32   O     O_3   0.604169 0.102841 0.363215 -0.722261
H18   H     H_    0.596048 0.115409 0.329956 0.352462
O33   O     O_3   0.251101 0.117287 0.301024 -0.752781
H19   H     H_    0.281268 0.165924 0.311803 0.354568

loop_
_geom_bond_atom_site_label_1
_geom_bond_atom_site_label_2
_ccdc_geom_bond_type
C1    O11   A    
C66   C68   T    
C3    C21   A    
C76   N2    T    
C73   O23   S    
C23   O15   A    
C35   C53   A    
C79   N5    T    
C1    O1    A    
C41   C42   A    
O21   H7    S    
C16   C56   A    
C85   N11   T    
O31   H17   S    
O29   H15   S    
C54   C60   S    
C33   C52   A    
C40   O24   S    
C8    C20   A    
C12   O9    A    
C2    C83   S    
C37   C38   A    
C41   C58   A    
C71   O8    A    
C59   C66   S    
C5    C6    A    
C70   O2    A    
C84   N10   T    
C6    C22   A    
O11   Zn2   S    
O17   H3    S    
C27   C29   T    
C14   C24   S    
C16   C34   S    
C38   C79   S    
C86   N12   T    
C45   C56   A    
O2    Zn4   S    
C1    C65   S    
C87   N13   T    
O25   H11   S    
C67   C73   A    
C14   C27   S    
O4    Zn4   S    
C69   O16   A    
C9    C10   A    
C22   C69   S    
C41   C82   S    
C2    C74   A    
C67   C75   S    
C80   N6    T    
C61   C71   S    
C26   C31   T    
C40   C59   A    
C20   C70   S    
C56   O17   S    
C32   O26   S    
C42   C80   S    
O14   Zn2   S    
C9    O20   S    
C48   C53   A    
C49   O25   S    
C83   N9    T    
O12   Zn2   S    
C44   C81   S    
C17   C67   A    
C50   C53   S    
C11   O21   S    
C50   C58   S    
C7    C8    A    
C39   C40   A    
O5    Zn4   S    
O26   H12   S    
C5    C77   S    
C39   C58   A    
C2    C20   A    
C46   C51   A    
O16   Zn3   S    
C60   C61   T    
O8    Zn3   S    
C43   C44   A    
C34   O14   A    
C32   C51   A    
O3    Zn3   S    
C62   C63   T    
O10   Zn1   S    
C10   C87   S    
O15   Zn1   S    
C38   C57   A    
C4    C22   A    
O9    Zn2   S    
C75   N1    T    
C44   C57   A    
O19   H5    S    
C48   C85   S    
C50   C51   S    
C19   C30   S    
C14   C26   S    
C39   O29   S    
C13   O32   S    
O24   H10   S    
C47   C52   A    
C74   C76   S    
C45   O33   S    
C13   C18   A    
C43   C55   A    
C48   C49   A    
C18   C73   A    
C7    C19   A    
C23   O12   A    
C81   N7    T    
C17   C31   S    
C7    O19   S    
C43   O30   S    
C15   C45   A    
C3    C4    A    
C35   O27   S    
O18   H4    S    
C57   C64   S    
O22   H8    S    
C77   N3    T    
C3    O18   S    
C25   C30   T    
C46   C47   A    
C11   C17   A    
O6    Zn3   S    
C70   O3    A    
C19   C74   A    
C24   C28   T    
C42   C59   A    
O23   H9    S    
C46   C84   S    
C82   N8    T    
C33   O22   S    
C50   C55   S    
C12   O10   A    
C32   C33   A    
C8    O31   S    
C9    C15   A    
C34   O13   A    
C47   H1    S    
C52   C62   S    
O30   H16   S    
C64   C65   T    
C6    C86   S    
C11   C13   A    
C15   C28   S    
O28   H14   S    
C21   C29   S    
O7    Zn4   S    
O1    Zn1   S    
C37   O28   S    
C14   C25   S    
O13   Zn1   S    
O27   H13   S    
C4    H2    S    
C72   O7    A    
C36   C54   A    
C37   C55   A    
C5    C21   A    
C12   C18   S    
O33   H19   S    
C69   O4    A    
C10   C16   A    
C35   C36   A    
C78   N4    T    
O32   H18   S    
O20   H6    S    
C36   C78   S    
C72   O6    A    
C49   C54   A    
C71   O5    A    
