data_mof_unit_pretest_1527.cif
_audit_creation_date              2012-12-11T14:59:15-0500
_audit_creation_method            fapswitch 2.2
_symmetry_space_group_name_H-M    P1
_symmetry_Int_Tables_number       1
_space_group_crystal_system       triclinic
_cell_length_a                    8.187893
_cell_length_b                    15.034853
_cell_length_c                    18.772989
_cell_angle_alpha                 100.064191
_cell_angle_beta                  91.138884
_cell_angle_gamma                 99.27728
_cell_volume                      2242.95434281

loop_
_atom_site_label
_atom_site_type_symbol
_atom_type_description
_atom_site_fract_x
_atom_site_fract_y
_atom_site_fract_z
_atom_type_partial_charge
Ba1   Ba    Ba6+2 0.854120 0.540280 0.465540 1.637917
Ba2   Ba    Ba6+2 0.335710 0.459790 0.534460 1.662852
C1    C     C_3   0.737949 0.873169 0.302921 -0.015513
C2    C     C_3   0.678095 0.776374 0.317160 0.397209
C3    C     C_3   0.453954 0.311782 0.312411 0.309371
C4    C     C_3   0.409404 0.277327 0.231807 -0.042095
C5    C     C_3   0.060030 0.278865 0.731242 0.395192
C6    C     C_3   0.076582 0.256825 0.806838 -0.360504
C7    C     C_3   0.555895 0.227577 0.699366 1.031778
C8    C     C_3   0.605154 0.162311 0.746141 -0.309446
C9    C     C_R   0.993251 0.454283 0.047466 0.009354
C10   C     C_R   0.899487 0.405437 0.094983 -0.090151
C11   C     C_R   0.766322 0.419482 0.951554 -0.099317
C12   C     C_3   0.144175 0.722138 0.270742 0.332064
C13   C     C_R   0.931292 0.457262 0.976293 0.017815
C14   C     C_R   0.709288 0.418978 0.881256 -0.103159
C15   C     C_R   0.813340 0.456260 0.831855 -0.033874
C16   C     C_R   0.976426 0.500053 0.855857 0.003684
C17   C     C_R   0.035473 0.501205 0.928516 0.022285
C18   C     C_R   0.758977 0.451169 0.759087 -0.037006
C19   C     C_R   0.868590 0.485445 0.710438 -0.287496
C20   C     C_R   0.025842 0.534341 0.733391 0.042600
C21   C     C_R   0.079584 0.543618 0.807505 -0.038511
C22   C     C_R   0.156143 0.498787 0.071512 0.022520
C23   C     C_3   0.124151 0.742661 0.194842 -0.365374
C24   C     C_R   0.215445 0.499476 0.144085 -0.001383
C25   C     C_R   0.111764 0.456377 0.192555 -0.043819
C26   C     C_R   0.957970 0.405693 0.165155 -0.028315
C27   C     C_R   0.232446 0.595408 0.835136 -0.026327
C28   C     C_R   0.291044 0.596031 0.905425 -0.089915
C29   C     C_R   0.198036 0.546239 0.952688 0.011906
C30   C     C_R   0.260228 0.542818 0.023740 0.015563
C31   C     C_R   0.425395 0.580128 0.048298 -0.102747
C32   C     C_R   0.378845 0.542830 0.167956 -0.034850
C33   C     C_R   0.482762 0.580208 0.118500 -0.083400
C34   C     C_3   0.247335 0.743340 0.624958 0.296379
C35   C     C_R   0.433651 0.547551 0.240634 0.000069
C36   C     C_R   0.324792 0.511808 0.289107 -0.303517
C37   C     C_R   0.165818 0.464826 0.266529 0.031234
C38   C     C_R   0.759288 0.235833 0.527134 -0.234538
C39   C     C_R   0.851450 0.177887 0.553925 -0.022423
C40   C     C_R   0.789331 0.083835 0.545166 -0.125459
C41   C     C_R   0.635721 0.045934 0.506196 0.047304
C42   C     C_R   0.552475 0.106499 0.475184 -0.046404
C43   C     C_R   0.613247 0.199867 0.486061 0.078721
C44   C     C_R   0.407295 0.909635 0.459581 -0.134943
C45   C     C_3   0.282428 0.847297 0.645686 -0.372679
C46   C     C_R   0.343465 0.816281 0.448465 0.006790
C47   C     C_R   0.583714 0.788557 0.511572 0.063365
C48   C     C_R   0.650445 0.881882 0.521955 -0.129625
C49   C     C_R   0.565168 0.944866 0.495093 0.002547
C50   C     C_R   0.434035 0.755598 0.472343 -0.291404
C51   C     C_3   0.947828 0.256459 0.375547 0.312306
C52   C     C_3   0.911253 0.152477 0.354638 -0.406919
C53   C     C_3   0.730959 0.671267 0.684583 0.315962
C54   C     C_3   0.741673 0.700995 0.766533 -0.395964
H1    H     H_    0.746582 0.769619 0.366972 0.059306
H2    H     H_    0.382178 0.868644 0.689164 0.124233
H3    H     H_    0.322263 0.878398 0.598346 0.081102
H4    H     H_    0.168601 0.873061 0.665259 0.131831
H5    H     H_    0.834879 0.282084 0.394743 -0.004228
H6    H     H_    0.046158 0.275511 0.419464 0.068567
H7    H     H_    0.805817 0.131481 0.313816 0.118775
H8    H     H_    0.879340 0.121110 0.402734 0.054539
H9    H     H_    0.022049 0.126572 0.331486 0.124569
H10   H     H_    0.851123 0.653595 0.666667 0.007208
H11   H     H_    0.632186 0.610360 0.670218 0.066494
H12   H     H_    0.740528 0.923779 0.354057 0.034842
H13   H     H_    0.843481 0.760093 0.782719 0.124643
H14   H     H_    0.766307 0.644066 0.793292 0.059219
H15   H     H_    0.622830 0.721234 0.785190 0.118213
H16   H     H_    0.543673 0.767435 0.326590 -0.068750
H17   H     H_    0.344101 0.336040 0.337773 -0.017286
H18   H     H_    0.558796 0.369949 0.318832 0.060360
H19   H     H_    0.305655 0.218329 0.225248 0.090829
H20   H     H_    0.367188 0.333184 0.208446 0.031674
H21   H     H_    0.867506 0.877738 0.285532 0.117824
H22   H     H_    0.158644 0.686579 0.154386 0.081022
H23   H     H_    0.146198 0.343205 0.728932 0.089802
H24   H     H_    0.931096 0.289305 0.721746 -0.105934
H25   H     H_    0.206243 0.249348 0.819286 0.145794
H26   H     H_    0.042356 0.312788 0.847532 0.068514
H27   H     H_    0.993223 0.191948 0.810501 0.109595
H28   H     H_    0.669657 0.258105 0.675357 -0.203843
H29   H     H_    0.671868 0.111725 0.713634 0.071439
H30   H     H_    0.493121 0.125229 0.767130 0.112679
H31   H     H_    0.060775 0.656884 0.273310 0.094460
H32   H     H_    0.687747 0.201402 0.792612 0.024388
H33   H     H_    0.827220 0.478574 0.654360 0.068325
H34   H     H_    0.581944 0.388284 0.866353 0.099868
H35   H     H_    0.879337 0.365673 0.197539 0.119033
H36   H     H_    0.310376 0.635819 0.802753 0.096007
H37   H     H_    0.610409 0.610430 0.133238 0.112711
H38   H     H_    0.366826 0.517492 0.344962 0.077840
H39   H     H_    0.675834 0.390519 0.985600 0.066282
H40   H     H_    0.779883 0.364676 0.079265 0.065135
H41   H     H_    0.409899 0.637987 0.921447 0.058755
H42   H     H_    0.274788 0.714098 0.280366 -0.043564
H43   H     H_    0.515672 0.608856 0.014038 0.072394
H44   H     H_    0.327612 0.952520 0.441772 0.078035
H45   H     H_    0.865271 0.042432 0.567638 0.070771
H46   H     H_    0.766619 0.903262 0.552798 0.083894
H47   H     H_    0.442826 0.083550 0.440136 0.039448
H48   H     H_    0.382459 0.683480 0.464943 0.074805
H49   H     H_    0.807298 0.308344 0.533670 0.050452
H50   H     H_    0.993466 0.748796 0.182989 0.146433
H51   H     H_    0.205391 0.807665 0.189988 0.114297
H52   H     H_    0.362645 0.718337 0.608265 0.010036
H53   H     H_    0.152727 0.723880 0.579390 0.069896
O1    O     O_2   0.871030 0.438240 0.324420 -0.462914
O2    O     O_3   0.695594 0.744117 0.653063 -0.634031
O3    O     O_3   0.101830 0.794404 0.321291 -0.615866
O4    O     O_2   0.318670 0.561790 0.675630 -0.470594
O5    O     O_3   0.069120 0.554770 0.586270 -0.495207
O6    O     O_3   0.526680 0.394150 0.629950 -0.446841
O7    O     O_3   0.190926 0.707589 0.685512 -0.640899
O8    O     O_3   0.607620 0.388570 0.462320 -0.480335
O9    O     O_3   0.103380 0.345110 0.593380 -0.495645
O10   O     O_2   0.190273 0.182147 0.547120 -0.408181
O11   O     O_3   0.099385 0.206160 0.680299 -0.549483
O12   O     O_3   0.120590 0.445310 0.413740 -0.491972
O13   O     O_3   0.582100 0.611510 0.537680 -0.492543
O14   O     O_2   0.334040 0.276520 0.462890 -0.454958
O15   O     O_3   0.497295 0.239985 0.343604 -0.666951
O16   O     O_2   0.419540 0.460786 0.757283 -0.502679
O17   O     O_3   0.474475 0.292259 0.741954 -0.631324
O18   O     O_3   0.663040 0.605930 0.370050 -0.489291
O19   O     O_2   0.774765 0.543947 0.243218 -0.490306
O20   O     O_3   0.998261 0.292465 0.314348 -0.646203
O21   O     O_3   0.711599 0.711190 0.258218 -0.611806
O22   O     O_2   0.855660 0.723510 0.537160 -0.465070
O23   O     O_3   0.086340 0.654970 0.406630 -0.488602
O24   O     O_2   0.005504 0.818906 0.454128 -0.492509
P1    P     P_3+3 0.038110 0.412300 0.335300 0.971719
P2    P     P_3+3 0.679950 0.711710 0.558590 0.980946
P3    P     P_3+3 0.134074 0.772490 0.408567 0.932345
P4    P     P_3+3 0.151600 0.587780 0.664700 0.971164
P5    P     P_3+3 0.060794 0.227044 0.593147 1.028575
P6    P     P_3+3 0.645451 0.601011 0.276936 0.936309
P7    P     P_3+3 0.514842 0.273938 0.437785 0.955452
P8    P     P_3+3 0.545420 0.401615 0.723305 0.956035
N1    N     N_2   0.634143 0.894830 0.246937 -0.414771
H54   H     H_    0.700523 0.928437 0.210546 0.198469
C55   C     C_3   0.494456 0.937412 0.272208 -0.237997
H55   H     H_    0.420133 0.947589 0.225096 0.110213
H56   H     H_    0.538169 0.005312 0.306917 0.099359
H57   H     H_    0.413905 0.893178 0.303336 0.126469
N2    N     N_2   0.551090 0.249909 0.194058 -0.416419
H58   H     H_    0.604327 0.202441 0.215983 0.227905
C56   C     C_3   0.523993 0.224873 0.116305 -0.266078
H59   H     H_    0.640138 0.208294 0.091744 0.105432
H60   H     H_    0.487650 0.282710 0.093555 0.118935
H61   H     H_    0.425419 0.163683 0.102121 0.108118
F1    F     F_    0.448683 0.177992 0.643478 -0.680409

loop_
_geom_bond_atom_site_label_1
_geom_bond_atom_site_label_2
_ccdc_geom_bond_type
C53   C54   S    
O6    P8    S    
C8    H29   S    
C14   H34   S    
C34   H52   S    
C6    H27   S    
C39   C40   A    
C1    H12   S    
Ba1   O23   S    
C17   C29   A    
Ba2   O9    S    
C5    C6    S    
C52   H9    S    
C19   H33   S    
Ba2   O14   S    
C13   C17   A    
C28   H41   S    
C8    H32   S    
C24   C25   A    
C35   C36   A    
C11   H39   S    
C6    H26   S    
C21   C27   A    
C20   P4    S    
O19   P6    D    
N2    C56   S    
C12   H31   S    
Ba1   Ba2   S    
O22   P2    D    
C3    C4    S    
Ba2   O4    S    
C52   H7    S    
C32   C35   A    
C9    C22   A    
C15   C18   A    
C34   C45   S    
C32   C33   A    
Ba2   O6    S    
O5    P4    S    
C3    H18   S    
C47   C48   A    
Ba1   O13   S    
C45   H4    S    
C9    C13   A    
C24   C32   A    
C50   H48   S    
C29   C30   A    
O16   P8    D    
C14   C15   A    
C56   H61   S    
C2    H1    S    
O24   P3    D    
O12   P1    S    
C7    C8    S    
C54   H15   S    
Ba2   O13   S    
C47   P2    S    
C19   C20   A    
Ba2   P4    S    
C1    N1    S    
O18   P6    S    
O3    P3    S    
C55   H57   S    
O21   P6    S    
C5    O11   S    
C5    H24   S    
C42   H47   S    
O15   P7    S    
C23   H50   S    
C12   H42   S    
C33   H37   S    
C38   C43   A    
C44   C46   A    
C6    H25   S    
C4    H19   S    
C36   C37   A    
N2    H58   S    
C55   H56   S    
C25   C37   A    
C16   C17   A    
C2    O21   S    
C48   C49   A    
C51   C52   S    
O14   P7    D    
C43   P7    S    
C23   H22   S    
C31   H43   S    
C12   O3    S    
C41   C42   A    
C22   C30   A    
C27   C28   A    
Ba1   O1    S    
C4    N2    S    
C51   H6    S    
C16   C21   A    
C3    O15   S    
O23   P3    S    
C47   C50   A    
C36   H38   S    
C15   C16   A    
Ba1   O8    S    
C39   P5    S    
C38   C39   A    
C10   C26   A    
C7    F1    S    
C48   H46   S    
C54   H14   S    
C11   C13   A    
C35   P6    S    
O4    P4    D    
O1    P1    D    
O8    P7    S    
O11   P5    S    
Ba1   O5    S    
C51   H5    S    
Ba1   P1    S    
C1    H21   S    
C40   H45   S    
C2    H16   S    
C53   H10   S    
C42   C43   A    
C23   H51   S    
C5    H23   S    
O7    P4    S    
Ba2   O12   S    
C44   H44   S    
C8    H30   S    
C53   O2    S    
C56   H59   S    
O10   P5    D    
C18   P8    S    
C46   P3    S    
C20   C21   A    
Ba1   O18   S    
C22   C24   A    
C55   H55   S    
Ba1   O22   S    
C53   H11   S    
C9    C10   A    
C4    H20   S    
Ba2   O8    S    
O17   P8    S    
C7    O17   S    
C30   C31   A    
O9    P5    S    
C45   H2    S    
Ba2   O5    S    
C41   C49   S    
C28   C29   A    
C52   H8    S    
C44   C49   A    
C31   C33   A    
C26   H35   S    
C56   H60   S    
C12   C23   S    
C3    H17   S    
O2    P2    S    
Ba1   O12   S    
O13   P2    S    
C7    H28   S    
C45   H3    S    
O20   P1    S    
C46   C50   A    
C51   O20   S    
C18   C19   A    
C54   H13   S    
C40   C41   A    
C11   C14   A    
C34   H53   S    
N1    H54   S    
C10   H40   S    
Ba1   P2    S    
C27   H36   S    
N1    C55   S    
C1    C2    S    
C38   H49   S    
C25   C26   A    
C37   P1    S    
C34   O7    S    
