data_mof_unit_pretest_1252.cif
_audit_creation_date              2012-12-10T19:01:51-0500
_audit_creation_method            fapswitch 2.2
_symmetry_space_group_name_H-M    P1
_symmetry_Int_Tables_number       1
_space_group_crystal_system       triclinic
_cell_length_a                    11.695095
_cell_length_b                    10.878514
_cell_length_c                    9.618496
_cell_angle_alpha                 91.518343
_cell_angle_beta                  90.019689
_cell_angle_gamma                 91.804997
_cell_volume                      1222.67812489

loop_
_atom_site_label
_atom_site_type_symbol
_atom_type_description
_atom_site_fract_x
_atom_site_fract_y
_atom_site_fract_z
_atom_type_partial_charge
C1    C     C_R   0.497034 0.263026 0.498374 0.841847
C2    C     C_R   0.495965 0.130268 0.493829 -0.119279
C3    C     C_R   0.425123 0.060541 0.400613 0.141354
C4    C     C_R   0.422536 0.930765 0.404537 0.107761
C5    C     C_R   0.493184 0.870860 0.500645 -0.142852
C6    C     C_R   0.569554 0.942981 0.582089 -0.009925
C7    C     C_3   0.603467 0.944945 0.733455 0.274866
C8    C     C_3   0.603701 0.087602 0.729650 0.262863
C9    C     C_R   0.597667 0.528342 0.074327 0.009015
C10   C     C_R   0.409249 0.452235 0.072111 0.440184
C11   C     C_R   0.408901 0.452904 0.924862 0.478567
C12   C     C_R   0.284191 0.499776 0.499966 0.804714
C13   C     C_R   0.598560 0.525052 0.927326 0.005712
C14   C     C_3   0.674847 0.637382 0.920642 -0.080756
C15   C     C_3   0.670246 0.645273 0.079752 0.539973
C16   C     C_R   0.497511 0.737351 0.501211 0.828047
C17   C     C_R   0.715780 0.499893 0.500022 0.807223
C18   C     C_1   0.162434 0.499723 0.499922 -0.124835
C19   C     C_1   0.059891 0.499681 0.499951 0.029225
C20   C     C_1   0.940039 0.499641 0.500009 0.011970
C21   C     C_1   0.837513 0.499661 0.500029 -0.212812
C22   C     C_R   0.569107 0.069337 0.579914 -0.083272
Cu1   Cu    Cu3+1 0.499990 0.499980 0.640670 0.963968
Cu2   Cu    Cu3+1 0.500010 0.500020 0.359330 0.968926
H1    H     H_    0.632607 0.711638 0.867790 0.220125
N1    N     N_R   0.500710 0.500930 0.147930 -0.267636
N2    N     N_R   0.500710 0.500890 0.852020 -0.256247
O1    O     O_R   0.500000 0.319640 0.618810 -0.588370
O2    O     O_R   0.500010 0.319680 0.381230 -0.583267
O3    O     O_R   0.337190 0.499990 0.618790 -0.557525
O4    O     O_R   0.337200 0.500030 0.381210 -0.562025
O5    O     O_R   0.499990 0.680320 0.618770 -0.557951
O6    O     O_R   0.500000 0.680360 0.381190 -0.554302
O7    O     O_R   0.662800 0.499970 0.618790 -0.578953
O8    O     O_R   0.662810 0.500010 0.381210 -0.576245
N3    N     N_3   0.350581 0.121480 0.308300 -0.589771
H2    H     H_    0.368650 0.092163 0.206468 0.241885
H3    H     H_    0.266136 0.094728 0.331000 0.244282
N4    N     N_3   0.782149 0.633571 0.146535 -0.499854
H4    H     H_    0.776038 0.661462 0.250960 0.248420
H5    H     H_    0.806095 0.541642 0.143844 0.206924
O9    O     O_3   0.613139 0.749071 0.131347 -0.711418
H6    H     H_    0.536398 0.749507 0.087227 0.300452
N5    N     N_3   0.341363 0.863197 0.317709 -0.591924
H7    H     H_    0.385082 0.813111 0.241787 0.254838
H8    H     H_    0.293233 0.802690 0.378862 0.217711
N6    N     N_3   0.515875 0.887580 0.822275 -0.584869
H9    H     H_    0.528598 0.918997 0.924853 0.218642
H10   H     H_    0.433471 0.909637 0.791385 0.211048
N7    N     N_3   0.716042 0.892691 0.754693 -0.578141
H11   H     H_    0.773087 0.918277 0.676107 0.214117
H12   H     H_    0.749102 0.926473 0.849754 0.257556
N8    N     N_3   0.517089 0.147190 0.816806 -0.565187
H13   H     H_    0.534210 0.131244 0.921326 0.222418
H14   H     H_    0.434647 0.113283 0.792748 0.206089
N9    N     N_3   0.716561 0.149550 0.746387 -0.577569
H15   H     H_    0.769517 0.127502 0.662304 0.202595
H16   H     H_    0.705835 0.244505 0.742715 0.254324
O10   O     O_3   0.318004 0.394264 0.135000 -0.675097
H17   H     H_    0.350008 0.344905 0.209294 0.364930
O11   O     O_3   0.316638 0.396667 0.858514 -0.676493
H18   H     H_    0.347549 0.343440 0.783778 0.351774
N10   N     N_3   0.789623 0.613131 0.866537 -0.536789
H19   H     H_    0.795177 0.644880 0.765146 0.251156
H20   H     H_    0.804162 0.518646 0.862165 0.237864

loop_
_geom_bond_atom_site_label_1
_geom_bond_atom_site_label_2
_ccdc_geom_bond_type
C8    N8    S    
C2    C22   A    
C1    O1    A    
C8    C22   S    
Cu1   Cu2   S    
N10   H20   S    
C6    C7    S    
Cu1   N2    S    
C16   O6    A    
C16   O5    A    
C4    N5    S    
N7    H12   S    
N6    H9    S    
C14   C15   S    
C11   N2    A    
Cu1   O7    S    
Cu1   O5    S    
C8    N9    S    
C19   C20   S    
C1    O2    A    
C10   O10   S    
C9    C15   S    
Cu2   O4    S    
O10   H17   S    
N4    H5    S    
C12   O4    A    
C13   C14   S    
N9    H15   S    
C4    C5    A    
Cu2   N1    S    
C15   N4    S    
C17   O7    A    
C5    C6    A    
C3    N3    S    
C14   N10   S    
N3    H3    S    
N3    H2    S    
N9    H16   S    
C9    N1    A    
N7    H11   S    
C2    C3    A    
N8    H14   S    
C14   H1    S    
O11   H18   S    
C17   C21   S    
Cu2   O8    S    
Cu1   O1    S    
O9    H6    S    
C3    C4    A    
C6    C22   A    
Cu1   O3    S    
C7    C8    S    
C20   C21   T    
C15   O9    S    
N6    H10   S    
C1    C2    S    
C10   C11   A    
C12   C18   S    
N4    H4    S    
C9    C13   A    
Cu2   O2    S    
C18   C19   T    
C5    C16   S    
C17   O8    A    
C12   O3    A    
N8    H13   S    
C10   N1    A    
C13   N2    A    
N5    H7    S    
Cu2   O6    S    
C7    N7    S    
N5    H8    S    
N10   H19   S    
C11   O11   S    
C7    N6    S    
