data_mof_unit_pretest_1928.cif
_audit_creation_date              2013-03-05T16:42:04-0500
_audit_creation_method            fapswitch 2.2
_symmetry_space_group_name_H-M    P1
_symmetry_Int_Tables_number       1
_space_group_crystal_system       triclinic
_cell_length_a                    17.839359
_cell_length_b                    16.57137
_cell_length_c                    10.703463
_cell_angle_alpha                 90.483071
_cell_angle_beta                  93.288751
_cell_angle_gamma                 91.436924
_cell_volume                      3157.8268597

loop_
_atom_site_label
_atom_site_type_symbol
_atom_site_description
_atom_site_fract_x
_atom_site_fract_y
_atom_site_fract_z
_atom_type_partial_charge
O1    O     O_R   0.391260 0.567930 0.500000 -0.542781
O2    O     O_R   0.608740 0.432070 0.500000 -0.542758
O3    O     O_R   0.608740 0.567930 0.500000 -0.533563
O4    O     O_R   0.391260 0.432070 0.500000 -0.533594
C1    C     C_R   0.355492 0.498877 0.506989 0.913738
C2    C     C_R   0.644508 0.501123 0.493009 0.913742
O5    O     O_R   0.499980 0.567900 0.316850 -0.550977
O6    O     O_R   0.500020 0.432100 0.683150 -0.550991
O7    O     O_R   0.500020 0.567900 0.683150 -0.556170
O8    O     O_R   0.499980 0.432100 0.316850 -0.556152
C3    C     C_R   0.500299 0.499612 0.259442 0.926682
C4    C     C_R   0.499701 0.500388 0.740557 0.926698
Cu1   Cu    Cu3+1 0.500000 0.580420 0.500000 1.145756
Cu2   Cu    Cu3+1 0.500000 0.419580 0.500000 1.145759
C5    C     C_3   0.538560 0.563818 0.045942 0.271912
C6    C     C_3   0.461439 0.436183 0.954056 0.271931
C7    C     C_3   0.569740 0.497758 0.964625 0.232567
C8    C     C_3   0.430260 0.502243 0.035373 0.232603
C9    C     C_3   0.466987 0.569286 0.957673 -0.216394
C10   C     C_3   0.533013 0.430715 0.042324 -0.216360
H1    H     H_    0.439578 0.624923 0.923416 0.268516
H2    H     H_    0.560428 0.375081 0.076578 0.268543
C11   C     C_3   0.499055 0.501457 0.876447 -0.297607
C12   C     C_3   0.500945 0.498544 0.123552 -0.297593
C13   C     C_R   0.850125 0.572784 0.515445 0.233003
C14   C     C_R   0.149874 0.427218 0.484557 0.233015
C15   C     C_R   0.156270 0.570051 0.540671 0.236515
C16   C     C_R   0.843732 0.429946 0.459369 0.236518
C17   C     C_R   0.771310 0.575671 0.505703 0.233208
C18   C     C_R   0.228690 0.424332 0.494279 0.233213
C19   C     C_R   0.235254 0.568000 0.551671 0.238144
C20   C     C_R   0.764749 0.431996 0.448353 0.238127
C21   C     C_R   0.727568 0.503550 0.480525 -0.310440
C22   C     C_R   0.272433 0.496450 0.519474 -0.310439
C23   C     C_R   0.885743 0.499865 0.495473 -0.209296
C24   C     C_R   0.114257 0.500134 0.504559 -0.209303
C25   C     C_1   0.966337 0.499578 0.498776 0.213948
C26   C     C_1   0.033664 0.500420 0.501265 0.213951
C27   C     C_R   0.538158 0.831716 0.596166 0.155793
C28   C     C_R   0.461808 0.168282 0.403848 0.155787
C29   C     C_R   0.458154 0.828148 0.407129 0.163873
C30   C     C_R   0.541775 0.171847 0.592937 0.163840
C31   C     C_R   0.537009 0.745785 0.595711 0.386523
C32   C     C_R   0.462992 0.254218 0.404285 0.386539
C33   C     C_R   0.459828 0.742216 0.407624 0.383566
C34   C     C_R   0.540140 0.257780 0.592406 0.383585
N1    N     N_R   0.500000 0.701220 0.500000 -0.311703
N2    N     N_R   0.500000 0.298780 0.500000 -0.311712
C35   C     C_R   0.498288 0.873675 0.501381 -0.194322
C36   C     C_R   0.501644 0.126321 0.498680 -0.194322
C37   C     C_1   0.499439 0.962989 0.500147 0.247027
C38   C     C_1   0.500482 0.037007 0.499946 0.247058
N3    N     N_R   0.583454 0.631348 0.100552 0.204868
O9    O     O_R   0.567138 0.705210 0.072235 -0.173077
O10   O     O_R   0.640364 0.617751 0.178240 -0.264474
N4    N     N_R   0.416545 0.368652 0.899446 0.204861
O11   O     O_R   0.432851 0.294791 0.927787 -0.173047
O12   O     O_R   0.359642 0.382248 0.821742 -0.264507
N5    N     N_R   0.646086 0.497137 0.922577 0.166136
O13   O     O_R   0.668848 0.435041 0.861839 -0.239562
O14   O     O_R   0.691117 0.559474 0.941679 -0.203062
N6    N     N_R   0.353913 0.502863 0.077419 0.166139
O15   O     O_R   0.331152 0.564956 0.138165 -0.239558
O16   O     O_R   0.308879 0.440531 0.058299 -0.203055
N7    N     N_R   0.894406 0.645133 0.541813 0.184615
O17   O     O_R   0.889390 0.706244 0.466527 -0.173971
O18   O     O_R   0.939537 0.650097 0.641613 -0.216877
N8    N     N_R   0.105593 0.354870 0.458175 0.184616
O19   O     O_R   0.110624 0.293745 0.533432 -0.173973
O20   O     O_R   0.060445 0.349923 0.358393 -0.216902
N9    N     N_R   0.118528 0.642528 0.570977 0.185931
O21   O     O_R   0.128639 0.674996 0.681956 -0.181184
O22   O     O_R   0.073388 0.675788 0.487844 -0.212632
N10   N     N_R   0.881476 0.357466 0.429083 0.185933
O23   O     O_R   0.871387 0.325004 0.318094 -0.181182
O24   O     O_R   0.926603 0.324206 0.512235 -0.212632
N11   N     N_R   0.737146 0.652644 0.518733 0.184839
O25   O     O_R   0.758164 0.699778 0.612873 -0.179745
O26   O     O_R   0.700352 0.683366 0.422800 -0.239478
N12   N     N_R   0.262854 0.347363 0.481203 0.184817
O27   O     O_R   0.241838 0.300255 0.387031 -0.179779
O28   O     O_R   0.299641 0.316615 0.577120 -0.239527
N13   N     N_R   0.277082 0.637458 0.601652 0.182141
O29   O     O_R   0.264355 0.709003 0.557290 -0.202254
O30   O     O_R   0.322364 0.630304 0.700466 -0.310756
N14   N     N_R   0.722924 0.362534 0.398376 0.182149
O31   O     O_R   0.735654 0.290992 0.442742 -0.202229
O32   O     O_R   0.677644 0.369683 0.299558 -0.310725
N15   N     N_R   0.579653 0.875690 0.695036 0.190243
O33   O     O_R   0.648238 0.856558 0.727995 -0.161716
O34   O     O_R   0.548010 0.932544 0.756178 -0.221383
N16   N     N_R   0.420326 0.124306 0.304948 0.190307
O35   O     O_R   0.351888 0.143683 0.271523 -0.161620
O36   O     O_R   0.451906 0.067285 0.244085 -0.221599
N17   N     N_R   0.413364 0.868650 0.312470 0.187582
O37   O     O_R   0.362004 0.918054 0.344086 -0.218116
O38   O     O_R   0.427226 0.860679 0.195099 -0.169165
N18   N     N_R   0.586524 0.131340 0.687644 0.187531
O39   O     O_R   0.637888 0.081922 0.656088 -0.218116
O40   O     O_R   0.572600 0.139298 0.804991 -0.169199
N19   N     N_R   0.566681 0.707036 0.705997 0.174761
O41   O     O_R   0.625063 0.662097 0.702942 -0.247654
O42   O     O_R   0.541007 0.725309 0.813631 -0.260465
N20   N     N_R   0.433363 0.292975 0.293980 0.174813
O43   O     O_R   0.374959 0.337887 0.296975 -0.247610
O44   O     O_R   0.459098 0.274731 0.186381 -0.260530
N21   N     N_R   0.413358 0.698721 0.315770 0.177170
O45   O     O_R   0.342862 0.686213 0.335768 -0.238651
O46   O     O_R   0.433951 0.695399 0.201367 -0.251579
N22   N     N_R   0.586621 0.301268 0.684254 0.177164
O47   O     O_R   0.657111 0.313787 0.664228 -0.238653
O48   O     O_R   0.566043 0.304587 0.798666 -0.251579

loop_
_geom_bond_atom_site_label_1
_geom_bond_atom_site_label_2
_geom_bond_distance
_ccdc_geom_bond_type
N19   O41   1.297221 A    
N17   O37   1.301075 A    
O3    C2    1.295330 A    
C16   N10   1.435305 S    
N20   O44   1.300110 A    
C32   N20   1.429683 S    
N3    O9    1.299520 A    
C5    C9    1.549179 S    
C4    C11   1.455155 S    
C25   C26   1.199581 T    
N10   O24   1.300890 A    
C8    C12   1.533924 S    
C5    N3    1.457972 S    
C23   C25   1.436263 S    
C30   N18   1.435590 S    
N14   O32   1.301584 A    
C17   C21   1.426039 A    
C3    C12   1.455164 S    
C7    C10   1.548156 S    
C19   N13   1.438247 S    
N4    O11   1.299521 A    
C8    C9    1.548161 S    
C30   C34   1.425110 A    
C33   N1    1.381004 A    
O7    Cu1   1.973007 S    
N22   O47   1.299570 A    
N6    O16   1.300074 A    
C10   C12   1.555443 S    
C16   C23   1.403269 A    
N8    O19   1.301130 A    
C35   C37   1.479855 S    
C36   C38   1.479864 S    
N21   O45   1.299573 A    
N15   O34   1.301248 A    
C31   N19   1.429716 S    
O3    Cu1   1.956015 S    
O6    C4    1.283420 A    
C18   N12   1.436533 S    
N11   O26   1.301002 A    
N5    O13   1.298600 A    
N19   O42   1.300114 A    
Cu1   Cu2   2.665341 S    
N21   O46   1.299579 A    
O2    C2    1.300956 A    
C29   C35   1.405950 A    
N20   O43   1.297230 A    
O5    C3    1.283419 A    
N3    O10   1.300268 A    
C13   C17   1.405949 A    
C34   N2    1.380984 A    
N5    O14   1.300072 A    
N10   O23   1.301110 A    
C18   C22   1.426033 A    
C15   C19   1.408469 A    
C37   C38   1.226288 T    
C16   C20   1.408466 A    
C13   N7    1.436069 S    
N12   O28   1.301005 A    
O8    Cu2   1.973008 S    
N9    O22   1.300884 A    
N14   O31   1.301248 A    
C8    N6    1.458961 S    
C27   C31   1.423588 A    
N7    O18   1.300983 A    
N11   O25   1.301786 A    
C9    C11   1.555444 S    
C6    N4    1.457976 S    
N6    O15   1.298601 A    
N13   O29   1.301247 A    
O5    Cu1   1.969527 S    
C6    C10   1.549179 S    
C20   N14   1.438250 S    
C1    C22   1.494927 S    
N16   O36   1.301177 A    
C19   C22   1.422422 A    
C7    C11   1.533915 S    
C28   N16   1.438516 S    
C30   C36   1.405957 A    
C14   C24   1.399762 A    
C5    C12   1.533975 S    
N13   O30   1.301582 A    
C13   C23   1.399758 A    
C14   C18   1.405946 A    
C6    C11   1.533972 S    
N18   O40   1.300504 A    
C34   N22   1.427562 S    
O1    C1    1.300953 A    
O1    Cu1   1.945695 S    
C15   N9    1.435310 S    
Cu1   N1    2.001820 S    
C5    C7    1.528183 S    
O6    Cu2   1.969526 S    
C27   C35   1.404469 A    
C10   H2    1.109642 S    
N12   O27   1.301784 A    
Cu2   N2    2.001820 S    
N17   O38   1.300505 A    
C15   C24   1.403274 A    
C2    C21   1.494936 S    
C14   N8    1.436073 S    
C20   C21   1.422424 A    
C24   C26   1.436262 S    
C7    N5    1.458960 S    
N9    O21   1.301079 A    
C29   N17   1.435591 S    
C28   C36   1.404545 A    
O4    C1    1.295327 A    
N16   O35   1.301206 A    
N4    O12   1.300270 A    
N7    O17   1.301128 A    
O4    Cu2   1.956017 S    
O2    Cu2   1.945693 S    
O7    C4    1.280978 A    
N22   O48   1.299578 A    
O8    C3    1.280984 A    
C32   N2    1.384168 A    
C28   C32   1.423667 A    
C17   N11   1.436539 S    
C6    C8    1.528185 S    
N18   O39   1.301074 A    
N8    O20   1.300989 A    
C29   C33   1.425123 A    
N15   O33   1.301444 A    
C31   N1    1.384170 A    
C27   N15   1.438390 S    
C33   N21   1.427559 S    
C9    H1    1.109646 S    
