data_mof_unit_pretest_1606.cif
_audit_creation_date              2012-12-11T16:15:10-0500
_audit_creation_method            fapswitch 2.2
_symmetry_space_group_name_H-M    P1
_symmetry_Int_Tables_number       1
_space_group_crystal_system       triclinic
_cell_length_a                    8.228802
_cell_length_b                    14.951691
_cell_length_c                    17.354118
_cell_angle_alpha                 96.677539
_cell_angle_beta                  95.887047
_cell_angle_gamma                 97.930399
_cell_volume                      2085.06604594

loop_
_atom_site_label
_atom_site_type_symbol
_atom_type_description
_atom_site_fract_x
_atom_site_fract_y
_atom_site_fract_z
_atom_type_partial_charge
Ba1   Ba    Ba6+2 0.159600 0.544390 0.464780 1.802869
Ba2   Ba    Ba6+2 0.650580 0.455600 0.535150 1.731705
C1    C     C_3   0.371183 0.776470 0.179085 0.469523
C2    C     C_R   0.888781 0.792702 0.520630 0.031324
C3    C     C_R   0.070499 0.235341 0.526809 -0.395251
C4    C     C_3   0.915027 0.788898 0.293288 0.984036
C5    C     C_R   0.169539 0.173526 0.552557 -0.081898
C6    C     C_R   0.110908 0.080335 0.541215 0.491614
C7    C     C_R   0.946886 0.046485 0.505787 -0.038539
C8    C     C_R   0.853251 0.109976 0.472449 -0.073439
C9    C     C_R   0.875571 0.951621 0.498674 0.056781
C10   C     C_R   0.715431 0.921838 0.456204 -0.100826
C11   C     C_R   0.631304 0.985236 0.421794 -0.063707
C12   C     C_3   0.395931 0.745004 0.259126 0.293206
C13   C     C_R   0.699710 0.076384 0.428462 0.017390
C14   C     C_R   0.954238 0.885369 0.534648 -0.118581
C15   C     C_R   0.736349 0.764877 0.476414 0.344116
C16   C     C_3   0.897508 0.875115 0.256547 -0.235614
C17   C     C_R   0.917060 0.205321 0.482759 0.054029
C18   C     C_R   0.602963 0.533970 0.279854 -0.327746
C19   C     C_R   0.444777 0.487026 0.254322 0.136098
C20   C     C_R   0.385122 0.474645 0.174550 -0.158069
C21   C     C_R   0.485032 0.508487 0.120289 -0.037405
C22   C     C_R   0.647015 0.553123 0.146376 0.586427
C23   C     C_3   0.568318 0.732295 0.653122 0.301125
C24   C     C_R   0.706092 0.564695 0.226404 -0.102541
C25   C     C_R   0.412910 0.514791 0.835601 -0.178957
C26   C     C_R   0.357351 0.508036 0.755848 0.043783
C27   C     C_R   0.095486 0.422770 0.776812 -0.068213
C28   C     C_3   0.765327 0.336368 0.290108 0.852920
C29   C     C_R   0.150690 0.429499 0.857095 0.592115
C30   C     C_R   0.311126 0.474687 0.886472 -0.098071
C31   C     C_1   0.369923 0.485046 0.969148 0.136866
C32   C     C_1   0.421993 0.495337 0.037985 0.180737
C33   C     C_R   0.201898 0.459180 0.726604 -0.373866
C34   C     C_3   0.603070 0.835144 0.675465 -0.377812
C35   C     C_3   0.846289 0.326608 0.215132 -0.205224
C36   C     C_3   0.057909 0.652852 0.701600 0.276864
C37   C     C_3   0.092466 0.676374 0.789981 -0.337465
C38   C     C_3   0.241230 0.269632 0.365153 0.377814
C39   C     C_3   0.205941 0.166758 0.341959 0.510757
C40   C     C_3   0.916613 0.208621 0.734652 0.863719
C41   C     C_3   0.825319 0.113674 0.703302 -0.246154
C42   C     C_3   0.344743 0.210080 0.734560 0.325080
C43   C     C_3   0.424714 0.213152 0.818010 -0.271181
C44   C     C_R   0.643892 0.828577 0.448454 -0.087836
F1    F     F_    0.072556 0.144298 0.284312 -0.688859
F2    F     F_    0.397352 0.709138 0.122104 -0.708167
F3    F     F_    0.014252 0.204425 0.803508 -0.717040
F4    F     F_    0.027965 0.810894 0.359631 -0.688710
F5    F     F_    0.673701 0.675099 0.464514 -0.722241
F6    F     F_    0.222774 0.024786 0.558072 -0.713601
F7    F     F_    0.746733 0.583889 0.094364 -0.668197
F8    F     F_    0.047980 0.394891 0.906355 -0.656160
F9    F     F_    0.598619 0.331177 0.269220 -0.752909
H1    H     H_    0.784958 0.264215 0.176259 0.142465
H2    H     H_    0.524141 0.730166 0.269094 -0.074203
H3    H     H_    0.474863 0.716984 0.600599 0.077060
H4    H     H_    0.488424 0.861060 0.690294 0.149928
H5    H     H_    0.459873 0.839065 0.177200 0.020538
H6    H     H_    0.805081 0.859158 0.203657 0.066138
H7    H     H_    0.996107 0.230272 0.689911 -0.074300
H8    H     H_    0.915487 0.066002 0.693037 0.036679
H9    H     H_    0.743842 0.088384 0.745837 0.137552
H10   H     H_    0.236328 0.155190 0.723340 0.049086
H11   H     H_    0.304832 0.277487 0.729004 -0.035149
H12   H     H_    0.978788 0.320928 0.228352 0.107759
H13   H     H_    0.334027 0.226102 0.859562 0.140481
H14   H     H_    0.531594 0.268924 0.831072 0.152331
H15   H     H_    0.467850 0.147285 0.826056 0.126536
H16   H     H_    0.511206 0.965184 0.388249 0.110779
H17   H     H_    0.063483 0.902757 0.576015 0.168220
H18   H     H_    0.120013 0.307123 0.534874 0.087056
H19   H     H_    0.628324 0.120016 0.398538 0.098443
H20   H     H_    0.262891 0.437022 0.154717 0.116425
H21   H     H_    0.308220 0.681678 0.259379 0.085395
H22   H     H_    0.835021 0.386610 0.183923 0.045640
H23   H     H_    0.949952 0.598078 0.687631 0.062892
H24   H     H_    0.166683 0.628681 0.678781 -0.002990
H25   H     H_    0.177611 0.132075 0.392974 -0.080206
H26   H     H_    0.315999 0.142121 0.319818 0.038972
H27   H     H_    0.684784 0.708240 0.639038 0.026489
H28   H     H_    0.699670 0.853178 0.726633 0.133666
H29   H     H_    0.647091 0.868254 0.625843 0.038194
H30   H     H_    0.748924 0.115419 0.647043 0.080340
H31   H     H_    0.533094 0.553283 0.858248 0.129042
H32   H     H_    0.792937 0.762524 0.310251 -0.226231
H33   H     H_    0.649699 0.541686 0.341197 0.140178
H34   H     H_    0.206436 0.727157 0.805770 0.140219
H35   H     H_    0.158940 0.455358 0.665080 0.075525
H36   H     H_    0.855562 0.926072 0.298861 0.083824
H37   H     H_    0.018256 0.904693 0.239863 0.133475
H38   H     H_    0.816082 0.403959 0.323712 -0.060792
H39   H     H_    0.109201 0.614601 0.817566 0.055436
H40   H     H_    0.986897 0.705118 0.813045 0.138158
H41   H     H_    0.128726 0.294207 0.383253 -0.075841
H42   H     H_    0.341492 0.285229 0.414710 -0.027392
H43   H     H_    0.243324 0.791526 0.167049 0.078678
O1    O     O_2   0.167760 0.722240 0.545330 -0.458545
O2    O     O_2   0.759031 0.436627 0.770528 -0.451563
O3    O     O_3   0.800824 0.267018 0.750512 -0.557000
O4    O     O_3   0.895630 0.608830 0.542770 -0.432188
O5    O     O_3   0.421020 0.453750 0.407560 -0.460151
O6    O     O_2   0.649640 0.543870 0.686710 -0.459648
O7    O     O_3   0.509526 0.691688 0.715991 -0.641019
O8    O     O_2   0.502036 0.174512 0.536337 -0.457591
O9    O     O_3   0.458762 0.190082 0.682809 -0.554598
O10   O     O_3   0.383340 0.666720 0.405900 -0.426179
O11   O     O_2   0.309794 0.827715 0.462007 -0.377651
O12   O     O_3   0.287845 0.309968 0.300444 -0.561866
O13   O     O_3   0.026150 0.731221 0.669677 -0.650229
O14   O     O_3   0.365843 0.813622 0.316022 -0.621730
O15   O     O_2   0.160650 0.456070 0.313260 -0.514595
O16   O     O_3   0.956180 0.620960 0.366010 -0.436869
O17   O     O_2   0.044508 0.561059 0.227303 -0.470752
O18   O     O_3   0.971715 0.725863 0.239577 -0.601452
O19   O     O_2   0.642530 0.277700 0.454650 -0.470044
O20   O     O_3   0.914670 0.391160 0.457170 -0.510195
O21   O     O_3   0.426950 0.333280 0.594040 -0.478928
O22   O     O_3   0.790320 0.262536 0.330365 -0.615248
O23   O     O_3   0.389270 0.546240 0.592370 -0.469572
O24   O     O_3   0.854110 0.379030 0.633930 -0.503760
P1    P     P_3+3 0.994810 0.708030 0.567580 1.055126
P2    P     P_3+3 0.329370 0.428660 0.324010 1.085563
P3    P     P_3+3 0.919566 0.616109 0.264204 1.080464
P4    P     P_3+3 0.815490 0.291960 0.432360 1.021380
P5    P     P_3+3 0.879666 0.377398 0.735117 1.058954
P6    P     P_3+3 0.426042 0.785100 0.408644 1.084319
P7    P     P_3+3 0.474452 0.573225 0.690302 0.972787
P8    P     P_3+3 0.387096 0.215711 0.590878 1.039654

loop_
_geom_bond_atom_site_label_1
_geom_bond_atom_site_label_2
_ccdc_geom_bond_type
O2    P5    D    
C42   H11   S    
C14   H17   S    
C34   H4    S    
Ba1   O1    S    
C39   H25   S    
Ba2   O20   S    
C41   H8    S    
C5    C6    A    
C12   O14   S    
C10   C11   A    
C18   C24   A    
C16   H36   S    
C44   P6    S    
C22   C24   A    
C26   P7    S    
C28   H38   S    
C8    C13   A    
C36   C37   S    
O22   P4    S    
C42   O9    S    
C36   H24   S    
Ba2   O4    S    
C34   H28   S    
C35   H12   S    
C1    F2    S    
O21   P8    S    
Ba1   Ba2   S    
O24   P5    S    
C5    P8    S    
O12   P2    S    
C35   H1    S    
C26   C33   A    
C6    C7    A    
C21   C22   A    
C7    C8    A    
C6    F6    S    
C40   H7    S    
C1    H5    S    
C40   F3    S    
C43   H15   S    
C19   C20   A    
C15   F5    S    
C42   H10   S    
Ba1   O15   S    
C20   H20   S    
C38   H41   S    
O9    P8    S    
O5    P2    S    
Ba2   O19   S    
C41   H9    S    
Ba2   O24   S    
C4    C16   S    
O13   P1    S    
C41   H30   S    
C15   C44   A    
C10   C44   A    
C23   O7    S    
C38   H42   S    
C3    C5    A    
O16   P3    S    
O7    P7    S    
C36   H23   S    
C22   F7    S    
C43   H14   S    
O10   P6    S    
C4    H32   S    
C28   C35   S    
C24   P3    S    
C12   H21   S    
C2    C14   A    
C25   H31   S    
Ba1   P1    S    
C37   H39   S    
C9    C14   A    
C4    O18   S    
O11   P6    D    
C29   C30   A    
Ba2   O6    S    
C8    C17   A    
C9    C10   A    
C21   C32   S    
C39   H26   S    
C43   H13   S    
C31   C32   T    
C39   F1    S    
C4    F4    S    
C7    C9    A    
C37   H40   S    
C1    C12   S    
C2    C15   A    
Ba2   P4    S    
C38   C39   S    
O6    P7    D    
C11   C13   A    
C23   H27   S    
Ba1   O16   S    
O4    P1    S    
C40   O3    S    
C42   C43   S    
O1    P1    D    
C23   H3    S    
O19   P4    D    
Ba2   O23   S    
O8    P8    D    
C12   H2    S    
Ba1   O5    S    
C25   C30   A    
O23   P7    S    
C38   O12   S    
Ba2   O21   S    
C16   H6    S    
C3    C17   A    
C11   H16   S    
C28   F9    S    
C27   C33   A    
C17   P4    S    
O17   P3    D    
O18   P3    S    
C16   H37   S    
C30   C31   S    
C19   P2    S    
C27   P5    S    
Ba1   P2    S    
C27   C29   A    
C23   C34   S    
C1    H43   S    
O15   P2    D    
C28   O22   S    
Ba2   O5    S    
C34   H29   S    
C18   H33   S    
O3    P5    S    
Ba1   O20   S    
C29   F8    S    
C3    H18   S    
Ba1   O23   S    
O14   P6    S    
Ba1   O10   S    
C33   H35   S    
C13   H19   S    
C35   H22   S    
C18   C19   A    
C2    P1    S    
C40   C41   S    
C25   C26   A    
C20   C21   A    
O20   P4    S    
C36   O13   S    
Ba1   O4    S    
C37   H34   S    
