data_mof_unit_pretest_1156.cif
_audit_creation_date              2012-12-11T15:22:31-0500
_audit_creation_method            fapswitch 2.2
_symmetry_space_group_name_H-M    P1
_symmetry_Int_Tables_number       1
_space_group_crystal_system       triclinic
_cell_length_a                    22.831288
_cell_length_b                    7.228428
_cell_length_c                    20.79763
_cell_angle_alpha                 90.015472
_cell_angle_beta                  93.267682
_cell_angle_gamma                 90.026686
_cell_volume                      3426.7417115

loop_
_atom_site_label
_atom_site_type_symbol
_atom_type_description
_atom_site_fract_x
_atom_site_fract_y
_atom_site_fract_z
_atom_type_partial_charge
O1    O     O_R   0.438030 0.494310 0.439340 -0.537850
O2    O     O_R   0.561970 0.994310 0.560660 -0.537999
O3    O     O_R   0.556900 0.822900 0.435960 -0.535616
O4    O     O_R   0.443100 0.322900 0.564040 -0.536159
C1    C     C_R   0.575826 0.655498 0.421070 0.720689
C2    C     C_R   0.424173 0.155477 0.578928 0.718208
O5    O     O_R   0.438170 0.823950 0.431660 -0.542016
O6    O     O_R   0.561830 0.323950 0.568340 -0.540745
O7    O     O_R   0.442390 0.995390 0.556340 -0.532363
O8    O     O_R   0.557610 0.495390 0.443660 -0.532190
C3    C     C_R   0.418257 0.655231 0.415802 0.696211
C4    C     C_R   0.581546 0.155320 0.584428 0.695424
O9    O     O_3   0.501520 0.661170 0.540910 -0.376119
O10   O     O_3   0.498480 0.161170 0.459090 -0.375327
V1    V     V_3+5 0.499720 0.935580 0.492410 1.402597
V2    V     V_3+5 0.500280 0.435580 0.507590 1.402908
C5    C     C_R   0.828952 0.936064 0.857740 -0.179548
C6    C     C_R   0.167380 0.744191 0.137187 -0.174786
C7    C     C_R   0.869001 0.083490 0.865901 -0.110598
C8    C     C_R   0.131697 0.584984 0.133266 -0.114518
C9    C     C_R   0.860983 0.242221 0.827234 -0.184652
C10   C     C_R   0.144089 0.438074 0.176230 -0.174165
C11   C     C_R   0.814045 0.253970 0.780759 0.120702
C12   C     C_R   0.190866 0.450168 0.222945 0.114595
C13   C     C_R   0.773636 0.106398 0.773355 -0.022557
C14   C     C_R   0.226564 0.610132 0.226315 -0.023417
C15   C     C_R   0.780828 0.946529 0.812238 0.058612
C16   C     C_R   0.215005 0.758057 0.183030 0.055844
C17   C     C_R   0.806723 0.411471 0.741640 -0.140283
C18   C     C_R   0.202580 0.304623 0.266437 -0.160428
C19   C     C_R   0.759318 0.424532 0.696194 -0.200773
C20   C     C_R   0.249617 0.315807 0.312371 -0.207651
C21   C     C_R   0.718502 0.279888 0.688719 0.101696
C22   C     C_R   0.285592 0.473329 0.315976 0.104074
C23   C     C_R   0.725898 0.119488 0.727139 0.049050
C24   C     C_R   0.273900 0.621632 0.273029 0.051381
C25   C     C_R   0.685616 0.972379 0.719309 0.055939
C26   C     C_R   0.309530 0.781086 0.276786 0.056231
C27   C     C_R   0.692623 0.814902 0.758359 -0.289434
C28   C     C_R   0.298152 0.926666 0.233348 -0.282887
C29   C     C_R   0.739643 0.801084 0.805209 0.342297
C30   C     C_R   0.251268 0.916540 0.186242 0.335293
C31   C     C_R   0.670685 0.292472 0.643220 -0.218968
C32   C     C_R   0.332946 0.485032 0.361911 -0.213938
C33   C     C_R   0.630758 0.144911 0.634367 -0.081577
C34   C     C_R   0.368557 0.644357 0.366440 -0.082861
C35   C     C_R   0.638767 0.985138 0.672646 -0.193855
C36   C     C_R   0.356220 0.792239 0.323746 -0.199469
H1    H     H_    0.834842 0.814475 0.887866 0.171561
H2    H     H_    0.158311 0.856945 0.103796 0.174845
H3    H     H_    0.891668 0.356382 0.832883 0.130030
H4    H     H_    0.116920 0.314946 0.173880 0.136153
H5    H     H_    0.837376 0.525771 0.746668 0.129637
H6    H     H_    0.175578 0.181194 0.264613 0.135123
H7    H     H_    0.754490 0.548310 0.666994 0.131136
H8    H     H_    0.257954 0.200752 0.345011 0.131810
H9    H     H_    0.665289 0.415649 0.613745 0.125779
H10   H     H_    0.341542 0.370495 0.394743 0.127766
H11   H     H_    0.608091 0.871066 0.666612 0.130374
H12   H     H_    0.383418 0.915281 0.326443 0.130485
H13   H     H_    0.661350 0.702408 0.752507 0.127712
H14   H     H_    0.325812 0.048676 0.236063 0.130227
C37   C     C_3   0.215386 0.305177 0.768178 -0.399572
C38   C     C_3   0.784443 0.805350 0.231564 -0.400075
C39   C     C_3   0.266931 0.038870 0.823137 -0.341912
C40   C     C_3   0.733130 0.537773 0.176980 -0.342314
C41   C     C_3   0.316144 0.046883 0.774400 -0.340168
C42   C     C_3   0.683923 0.545806 0.225722 -0.339859
H15   H     H_    0.299792 0.414548 0.739719 0.146407
H16   H     H_    0.699936 0.914096 0.259876 0.146514
H17   H     H_    0.226232 0.396132 0.810387 0.162778
H18   H     H_    0.773517 0.895690 0.189237 0.162652
H19   H     H_    0.263544 0.896456 0.842718 0.142828
H20   H     H_    0.736644 0.395160 0.157589 0.142775
H21   H     H_    0.279120 0.130127 0.864899 0.151759
H22   H     H_    0.720846 0.628384 0.135101 0.151799
H23   H     H_    0.352725 0.135304 0.794380 0.148625
H24   H     H_    0.647251 0.633530 0.205631 0.148732
H25   H     H_    0.334213 0.905591 0.767828 0.138505
H26   H     H_    0.665996 0.404378 0.232496 0.138571
C43   C     C_1   0.378519 0.146332 0.624684 -0.183981
C44   C     C_1   0.621482 0.646394 0.375315 -0.183880
C45   C     C_3   0.207229 0.102599 0.790947 0.213065
C46   C     C_3   0.792779 0.602580 0.209066 0.213382
C47   C     C_3   0.265169 0.318115 0.720170 -0.341233
C48   C     C_3   0.734651 0.818322 0.279558 -0.341397
C49   C     C_3   0.292262 0.124763 0.708490 0.247843
C50   C     C_3   0.707744 0.624803 0.291517 0.247889
C51   C     C_3   0.242578 0.994410 0.681830 -0.379162
C52   C     C_3   0.757556 0.495362 0.318344 -0.379320
C53   C     C_3   0.192241 0.982719 0.729687 0.239067
C54   C     C_3   0.807888 0.483618 0.270483 0.239245
C55   C     C_1   0.339915 0.137302 0.662520 -0.076202
C56   C     C_1   0.660089 0.637364 0.337482 -0.076007
C57   C     C_1   0.159791 0.091763 0.837285 -0.030909
C58   C     C_1   0.840217 0.591712 0.162727 -0.030941
C59   C     C_1   0.121304 0.083434 0.875277 -0.161147
C60   C     C_1   0.878702 0.583376 0.124733 -0.161744
H27   H     H_    0.151812 0.040461 0.704845 0.113813
H28   H     H_    0.848273 0.542106 0.295231 0.114033
H29   H     H_    0.224415 0.047144 0.634526 0.126828
H30   H     H_    0.775685 0.548920 0.365564 0.126908
H31   H     H_    0.173700 0.357657 0.744533 0.165883
H32   H     H_    0.826083 0.858576 0.255136 0.166101
H33   H     H_    0.247191 0.377153 0.673733 0.151850
H34   H     H_    0.752576 0.878175 0.325908 0.151941
H35   H     H_    0.260897 0.854743 0.672766 0.150090
H36   H     H_    0.739372 0.355603 0.327619 0.150113
O11   O     O_R   0.942420 0.735670 0.056390 -0.533229
O12   O     O_R   0.057580 0.235670 0.943610 -0.532924
O13   O     O_R   0.061840 0.404850 0.068350 -0.538080
O14   O     O_R   0.938160 0.904850 0.931650 -0.542601
C61   C     C_R   0.081803 0.573699 0.084132 0.699736
C62   C     C_R   0.918404 0.073545 0.915630 0.697481
O15   O     O_R   0.943100 0.406010 0.064050 -0.532330
O16   O     O_R   0.056900 0.906010 0.935950 -0.532823
O17   O     O_R   0.938020 0.234710 0.939330 -0.536162
O18   O     O_R   0.061980 0.734710 0.060670 -0.540444
C63   C     C_R   0.924279 0.574458 0.078885 0.714730
C64   C     C_R   0.075724 0.074478 0.921120 0.714511
O19   O     O_3   0.998500 0.567790 0.959120 -0.376117
O20   O     O_3   0.001500 0.067790 0.040880 -0.374806
V3    V     V_3+5 0.000280 0.293330 0.007580 1.434923
V4    V     V_3+5 0.999720 0.793330 0.992420 1.427457
O21   O     O_3   0.179483 0.798161 0.745539 -0.646659
H37   H     H_    0.216612 0.736848 0.760555 0.290038
O22   O     O_3   0.820801 0.299001 0.254878 -0.646563
H38   H     H_    0.783721 0.237076 0.239973 0.290137
O23   O     O_3   0.745849 0.647610 0.844633 -0.651992
H39   H     H_    0.713670 0.559102 0.833391 0.294616
O24   O     O_3   0.240280 0.059485 0.143099 -0.654811
H40   H     H_    0.269546 0.159100 0.151832 0.294098

loop_
_geom_bond_atom_site_label_1
_geom_bond_atom_site_label_2
_ccdc_geom_bond_type
C42   H26   S    
C40   C42   S    
C44   C56   T    
O1    C3    A    
C38   H18   S    
O2    C4    A    
C2    O7    A    
O14   C62   A    
C39   H19   S    
C60   C63   S    
C27   C29   A    
O5    C3    A    
C18   H6    S    
O11   C63   A    
C11   C17   A    
C23   C25   A    
C12   C14   A    
O14   V4    S    
C8    C61   S    
C48   C50   S    
C39   C45   S    
C40   H20   S    
C28   H14   S    
C46   C58   S    
C33   C35   A    
C52   H30   S    
O19   V4    S    
C5    C7    A    
C38   C46   S    
C32   H10   S    
C39   C41   S    
C58   C60   T    
C19   C21   A    
C30   O24   S    
C25   C35   A    
C53   O21   S    
C26   C36   A    
O5    V1    S    
C40   H22   S    
O6    V2    S    
C2    C43   S    
C37   C47   S    
C28   C30   A    
C48   H34   S    
C47   H33   S    
C38   C48   S    
C32   C34   A    
C36   H12   S    
C50   C56   S    
C47   C49   S    
C42   H24   S    
C27   H13   S    
C34   C36   A    
O15   V3    S    
O13   V3    S    
C5    C15   A    
C6    C16   A    
O4    C2    A    
O12   C64   A    
C54   H28   S    
C7    C62   S    
C35   H11   S    
O16   C64   A    
C37   C45   S    
C20   C22   A    
O4    V2    S    
H15   C47   S    
O12   V3    S    
C29   O23   S    
C43   C55   T    
C15   C29   A    
C52   C54   S    
O6    C4    A    
C45   C57   S    
C51   H35   S    
C41   H25   S    
O13   C61   A    
O1    V2    S    
O18   V4    S    
O2    V1    S    
C31   C33   A    
C13   C23   A    
C37   H31   S    
C50   C52   S    
O15   C63   A    
C9    C11   A    
O21   H37   S    
C42   C50   S    
C10   C12   A    
C51   C53   S    
C8    C10   A    
C5    H1    S    
O24   H40   S    
H16   C48   S    
C54   O22   S    
C9    H3    S    
O3    V1    S    
C6    H2    S    
C10   H4    S    
O23   H39   S    
C14   C24   A    
C38   H32   S    
C22   C32   A    
C18   C20   A    
O16   V4    S    
C51   H29   S    
C41   H23   S    
C41   C49   S    
C37   H17   S    
C4    C33   S    
O3    C1    A    
C57   C59   T    
O11   V4    S    
C13   C15   A    
C45   C53   S    
C14   C16   A    
C39   H21   S    
C19   H7    S    
C59   C64   S    
C24   C26   A    
O17   V3    S    
C52   H36   S    
C1    O8    A    
C17   C19   A    
O8    V2    S    
C26   C28   A    
C1    C44   S    
C17   H5    S    
C49   C55   S    
C16   C30   A    
C21   C23   A    
C22   C24   A    
C6    C8    A    
C11   C13   A    
O7    V1    S    
C12   C18   A    
C62   O17   A    
C31   H9    S    
C40   C46   S    
C61   O18   A    
C25   C27   A    
O9    V2    S    
C49   C51   S    
O10   V1    S    
C3    C34   S    
C46   C54   S    
C53   H27   S    
O20   V3    S    
C21   C31   A    
C20   H8    S    
O22   H38   S    
C7    C9    A    
