data_mof_unit_pretest_624.cif
_audit_creation_date              2012-12-11T16:48:30-0500
_audit_creation_method            fapswitch 2.2
_symmetry_space_group_name_H-M    P1
_symmetry_Int_Tables_number       1
_space_group_crystal_system       triclinic
_cell_length_a                    17.340339
_cell_length_b                    24.532556
_cell_length_c                    15.026662
_cell_angle_alpha                 90.07753
_cell_angle_beta                  125.965198
_cell_angle_gamma                 89.58064
_cell_volume                      5173.65627427

loop_
_atom_site_label
_atom_site_type_symbol
_atom_type_description
_atom_site_fract_x
_atom_site_fract_y
_atom_site_fract_z
_atom_type_partial_charge
C1    C     C_R   0.356632 0.347271 0.910902 0.764535
C2    C     C_R   0.435531 0.498821 0.634016 -0.023942
C3    C     C_R   0.058271 0.848105 0.910217 0.598445
C4    C     C_R   0.385407 0.316505 0.000960 -0.340033
C5    C     C_R   0.684027 0.354163 0.000351 -0.373268
C6    C     C_R   0.880456 0.818707 0.004753 -0.412439
C7    C     C_R   0.122045 0.817611 0.001797 -0.325703
C8    C     C_3   0.975199 0.542041 0.374510 -0.186283
C9    C     C_3   0.053905 0.569243 0.784108 -0.193945
C10   C     C_3   0.496689 0.021321 0.365511 -0.207845
C11   C     C_3   0.488327 0.062302 0.713666 -0.181034
C12   C     C_3   0.954844 0.395549 0.245529 0.032114
C13   C     C_R   0.056112 0.999104 0.361995 -0.004719
C14   C     C_3   0.178848 0.403312 0.960386 -0.102834
C15   C     C_3   0.351904 0.902743 0.113237 -0.079483
C16   C     C_3   0.670443 0.905341 0.949430 -0.163634
C17   C     C_3   0.574109 0.774635 0.202385 -0.081752
C18   C     C_3   0.469652 0.783089 0.894890 -0.093371
C19   C     C_3   0.120206 0.245658 0.284573 -0.152638
C20   C     C_3   0.934978 0.313923 0.788022 -0.138361
C21   C     C_3   0.320824 0.355546 0.266830 -0.216689
C22   C     C_3   0.613619 0.441495 0.649820 -0.208153
C23   C     C_3   0.920357 0.901396 0.389465 -0.191192
C24   C     C_R   0.053602 0.997891 0.729295 0.006548
C25   C     C_3   0.221916 0.873074 0.817192 -0.273095
C26   C     C_3   0.612394 0.351154 0.479368 -0.073905
C27   C     C_3   0.449427 0.302456 0.553146 -0.040929
C28   C     C_3   0.167344 0.813080 0.504723 -0.027373
C29   C     C_3   0.027757 0.805853 0.614499 -0.057715
C30   C     C_3   0.212904 0.611547 0.636781 -0.182640
C31   C     C_3   0.704757 0.616012 0.340319 -0.197082
C32   C     C_3   0.709303 0.114968 0.639490 -0.158776
C33   C     C_3   0.239584 0.111096 0.366661 -0.247149
C34   C     C_R   0.175606 0.500510 0.735023 -0.403300
C35   C     C_R   0.816981 0.498767 0.352468 -0.527656
C36   C     C_R   0.674134 0.000977 0.729204 -0.397069
C37   C     C_R   0.324873 0.996728 0.334880 -0.526177
C38   C     C_2   0.922493 0.469864 0.541238 -0.224117
C39   C     C_2   0.017878 0.460768 0.641896 -0.246844
C40   C     C_2   0.425221 0.966990 0.523127 -0.215547
C41   C     C_R   0.685436 0.369817 0.090474 0.647132
C42   C     C_2   0.516962 0.960572 0.629904 -0.340968
C43   C     C_2   0.911546 0.498043 0.457559 0.807920
C44   C     C_2   0.074856 0.503505 0.694200 0.731088
C45   C     C_2   0.418337 0.994239 0.440758 0.822790
C46   C     C_2   0.571809 0.004407 0.680378 0.713631
C47   C     C_R   0.344530 0.767261 0.052024 -0.061940
C48   C     C_R   0.707824 0.734876 0.003902 0.021887
C49   C     C_R   0.908746 0.274862 0.095729 -0.056571
C50   C     C_R   0.175872 0.262264 0.971759 0.010536
C51   C     C_R   0.311921 0.721108 0.986541 0.061149
C52   C     C_R   0.853695 0.847526 0.912674 0.765825
C53   C     C_R   0.738725 0.682636 0.003055 -0.006593
C54   C     C_R   0.872621 0.243853 0.000469 0.099555
C55   C     C_R   0.207515 0.210121 0.012205 0.014373
C56   C     C_R   0.213423 0.710630 0.915210 -0.235771
C57   C     C_R   0.826428 0.674306 0.019988 -0.234773
C58   C     C_R   0.799016 0.268287 0.900464 -0.202240
C59   C     C_R   0.303226 0.195058 0.064132 -0.217910
C60   C     C_R   0.743899 0.310118 0.900492 -0.133115
C61   C     C_R   0.362606 0.229864 0.058534 -0.034507
C62   C     C_R   0.150913 0.740790 0.924143 -0.095319
C63   C     C_R   0.148020 0.848284 0.090963 0.713690
C64   C     C_R   0.875566 0.719513 0.021432 -0.051569
C65   C     C_R   0.760418 0.326903 0.000222 0.149618
C66   C     C_R   0.324799 0.278745 0.000914 0.127902
C67   C     C_R   0.186786 0.781883 0.002606 0.124475
C68   C     C_R   0.835824 0.771539 0.007135 0.137604
C69   C     C_R   0.436464 0.649490 0.089558 -0.160825
C70   C     C_R   0.597047 0.625014 0.908804 -0.118748
C71   C     C_R   0.946059 0.151362 0.091627 -0.149510
C72   C     C_R   0.071997 0.146169 0.910919 -0.145775
C73   C     C_R   0.851056 0.313939 0.095967 -0.173110
C74   C     C_R   0.374407 0.680013 0.996929 0.042545
C75   C     C_R   0.234960 0.297060 0.968106 -0.209316
C76   C     C_R   0.281571 0.798348 0.057234 -0.239437
C77   C     C_R   0.756529 0.779088 0.007303 -0.015290
C78   C     C_3   0.896339 0.304769 0.216545 0.532494
C79   C     C_3   0.152168 0.321386 0.860488 0.397483
C80   C     C_3   0.356617 0.812504 0.176182 0.485175
C81   C     C_3   0.667312 0.811601 0.931065 0.302717
C82   C     C_3   0.426277 0.777523 0.169372 0.367803
C83   C     C_3   0.612846 0.761477 0.925544 0.399692
C84   C     C_3   0.963635 0.264233 0.217240 0.312394
C85   C     C_R   0.685210 0.638926 0.001201 0.066201
C86   C     C_3   0.087550 0.282045 0.866727 0.374420
C87   C     C_R   0.409775 0.447325 0.476652 -0.147479
C88   C     C_R   0.412737 0.447043 0.387420 -0.230282
C89   C     C_R   0.108109 0.948569 0.627350 -0.169905
C90   C     C_R   0.099083 0.950055 0.530885 -0.150747
C91   C     C_R   0.404662 0.496433 0.520750 0.096959
C92   C     C_R   0.412133 0.496005 0.339042 0.108916
C93   C     C_R   0.096311 0.996759 0.669322 0.087903
C94   C     C_R   0.087701 0.998497 0.475742 0.100246
C95   C     C_R   0.382471 0.544246 0.457980 -0.166358
C96   C     C_R   0.890474 0.185071 0.001865 0.012565
C97   C     C_R   0.386115 0.544012 0.367189 -0.174384
C98   C     C_R   0.104659 0.046422 0.628077 -0.152824
C99   C     C_R   0.099678 0.047307 0.531686 -0.173959
C100  C     C_3   0.467705 0.393255 0.420209 0.827288
C101  C     C_3   0.464754 0.394052 0.521427 0.850606
C102  C     C_3   0.091226 0.889500 0.515094 0.840029
C103  C     C_3   0.106637 0.886266 0.628013 0.832299
C104  C     C_R   0.477526 0.453650 0.243823 -0.028465
C105  C     C_R   0.447540 0.454191 0.695974 0.067835
C106  C     C_R   0.046123 0.953947 0.301229 -0.044656
C107  C     C_R   0.145025 0.171429 0.004895 0.091281
C108  C     C_R   0.023999 0.953303 0.757426 -0.083956
C109  C     C_R   0.231307 0.545030 0.752514 0.546165
C110  C     C_R   0.762793 0.544223 0.297166 0.494669
C111  C     C_R   0.731265 0.045345 0.750726 0.564193
C112  C     C_R   0.269005 0.043135 0.287178 0.535009
C113  C     C_R   0.482220 0.544746 0.251652 -0.171117
C114  C     C_R   0.452766 0.544583 0.697208 -0.178739
C115  C     C_R   0.040492 0.044835 0.298989 -0.154722
C116  C     C_R   0.020680 0.044153 0.752029 -0.129657
C117  C     C_R   0.232424 0.454876 0.756942 0.652820
C118  C     C_R   0.452102 0.498523 0.276812 0.031656
C119  C     C_R   0.760963 0.454073 0.297625 0.773096
C120  C     C_R   0.731501 0.955074 0.753722 0.616564
C121  C     C_R   0.266548 0.952621 0.282793 0.698889
C122  C     C_R   0.352624 0.650952 0.908007 -0.069404
C123  C     C_R   0.689127 0.625395 0.092808 -0.132438
C124  C     C_R   0.858568 0.153164 0.910473 0.006813
C125  C     C_R   0.163847 0.144682 0.094790 -0.148146
C126  C     C_R   0.444773 0.347877 0.091282 0.624832
C127  C     C_R   0.594241 0.370008 0.908695 0.668814
C128  C     C_R   0.939797 0.850340 0.093956 0.707500
F1    F     F_    0.322104 0.326253 0.810578 -0.638003
F2    F     F_    0.554389 0.358360 0.802508 -0.712937
F3    F     F_    0.993133 0.833877 0.200364 -0.668426
F4    F     F_    0.000137 0.829036 0.806026 -0.672984
F5    F     F_    0.751427 0.356566 0.195760 -0.654238
F6    F     F_    0.816825 0.824900 0.812994 -0.601585
F7    F     F_    0.183228 0.827138 0.191310 -0.625232
F8    F     F_    0.203737 0.402629 0.738734 -0.670520
F9    F     F_    0.771873 0.405329 0.346284 -0.632294
F10   F     F_    0.702727 0.902797 0.736167 -0.682373
F11   F     F_    0.288353 0.900521 0.319217 -0.630681
F12   F     F_    0.503276 0.329241 0.196069 -0.678495
H1    H     H_    0.185545 0.676109 0.859906 0.167030
H2    H     H_    0.155858 0.311619 0.790821 0.121469
H3    H     H_    0.016710 0.791887 0.537638 0.123026
H4    H     H_    0.179955 0.581818 0.567967 0.153709
H5    H     H_    0.290351 0.615147 0.674844 0.097692
H6    H     H_    0.179424 0.651932 0.601576 0.150323
H7    H     H_    0.680297 0.586263 0.374567 0.141158
H8    H     H_    0.645613 0.628537 0.255744 0.129864
H9    H     H_    0.727899 0.653054 0.392172 0.165696
H10   H     H_    0.665514 0.089106 0.565058 0.169832
H11   H     H_    0.785094 0.114358 0.668915 0.088018
H12   H     H_    0.682675 0.157494 0.615241 0.148775
H13   H     H_    0.341519 0.794244 0.232072 0.098601
H14   H     H_    0.240566 0.080446 0.421995 0.141752
H15   H     H_    0.165602 0.119813 0.294320 0.119599
H16   H     H_    0.269141 0.149419 0.414011 0.166362
H17   H     H_    0.653850 0.821128 0.850301 0.054357
H18   H     H_    0.451041 0.741625 0.225372 -0.045896
H19   H     H_    0.570874 0.740663 0.844045 -0.043317
H20   H     H_    0.957052 0.223554 0.244468 -0.026589
H21   H     H_    0.054556 0.250322 0.801329 -0.045784
H22   H     H_    0.372036 0.582787 0.484693 0.116519
H23   H     H_    0.378472 0.582393 0.327256 0.118710
H24   H     H_    0.105155 0.085212 0.662502 0.116063
H25   H     H_    0.854286 0.633564 0.027730 0.133200
H26   H     H_    0.097566 0.086526 0.497638 0.116729
H27   H     H_    0.472917 0.661352 0.174237 0.082307
H28   H     H_    0.567961 0.633880 0.824073 0.099015
H29   H     H_    0.994450 0.162650 0.176064 0.088120
H30   H     H_    0.035772 0.159722 0.826967 0.088906
H31   H     H_    0.460169 0.411914 0.244300 0.191172
H32   H     H_    0.421512 0.413754 0.665347 0.210093
H33   H     H_    0.067523 0.912765 0.329759 0.230720
H34   H     H_    0.041259 0.911758 0.757592 0.201142
H35   H     H_    0.474194 0.586701 0.266535 0.105098
H36   H     H_    0.774555 0.250958 0.821903 0.114147
H37   H     H_    0.436962 0.586415 0.669147 0.100823
H38   H     H_    0.052417 0.086887 0.324829 0.091624
H39   H     H_    0.028590 0.085970 0.737736 0.097449
H40   H     H_    0.315102 0.666476 0.825324 0.131762
H41   H     H_    0.744953 0.635834 0.176593 0.164820
H42   H     H_    0.829101 0.168659 0.829339 0.104047
H43   H     H_    0.211860 0.157176 0.179246 0.164497
H44   H     H_    0.863478 0.448325 0.531472 0.155986
H45   H     H_    0.045141 0.419731 0.653145 0.222714
H46   H     H_    0.364947 0.944905 0.509188 0.161053
H47   H     H_    0.329849 0.155348 0.102325 0.138166
H48   H     H_    0.544665 0.919432 0.651792 0.210920
H49   H     H_    0.935141 0.581198 0.349059 0.183578
H50   H     H_    0.938618 0.511729 0.306957 0.084814
H51   H     H_    0.045052 0.550171 0.390353 0.140425
H52   H     H_    0.131903 0.572676 0.848963 0.121150
H53   H     H_    0.021964 0.539909 0.810202 0.108585
H54   H     H_    0.021504 0.609876 0.775137 0.171827
H55   H     H_    0.441539 0.049731 0.301676 0.149294
H56   H     H_    0.486831 0.979441 0.332001 0.157395
H57   H     H_    0.566833 0.035809 0.389241 0.150784
H58   H     H_    0.683563 0.323999 0.821546 0.211585
H59   H     H_    0.541262 0.055636 0.803758 0.107300
H60   H     H_    0.426579 0.034629 0.680203 0.124386
H61   H     H_    0.461159 0.104731 0.701322 0.174973
H62   H     H_    0.884477 0.415541 0.186964 0.081415
H63   H     H_    0.990293 0.386175 0.205097 0.122070
H64   H     H_    0.001085 0.424696 0.312616 0.131537
H65   H     H_    0.255738 0.404904 0.995435 0.085112
H66   H     H_    0.167456 0.383265 0.018005 0.152647
H67   H     H_    0.152878 0.445988 0.948660 0.119360
H68   H     H_    0.272979 0.906080 0.060366 0.064529
H69   H     H_    0.435770 0.218026 0.094701 0.143094
H70   H     H_    0.378111 0.889077 0.064870 0.151409
H71   H     H_    0.380022 0.944227 0.143939 0.117902
H72   H     H_    0.611842 0.911907 0.860988 0.126959
H73   H     H_    0.740873 0.907608 0.963755 0.106079
H74   H     H_    0.666720 0.938892 0.996357 0.152894
H75   H     H_    0.549857 0.742731 0.138780 0.147106
H76   H     H_    0.609363 0.755663 0.285009 0.103136
H77   H     H_    0.628001 0.799591 0.203992 0.192836
H78   H     H_    0.430752 0.748321 0.838360 0.093047
H79   H     H_    0.463321 0.819920 0.847730 0.146546
H80   H     H_    0.075759 0.730980 0.872943 0.169457
H81   H     H_    0.435234 0.792695 0.936167 0.164378
H82   H     H_    0.099937 0.233527 0.202096 0.123610
H83   H     H_    0.124282 0.209814 0.332330 0.103466
H84   H     H_    0.192535 0.263448 0.330056 0.171296
H85   H     H_    0.901000 0.273518 0.755402 0.099829
H86   H     H_    0.937486 0.336641 0.725672 0.148774
H87   H     H_    0.889768 0.337745 0.804144 0.152801
H88   H     H_    0.307439 0.387990 0.207805 0.107493
H89   H     H_    0.282987 0.364806 0.304420 0.172858
H90   H     H_    0.290943 0.317185 0.219625 0.185268
H91   H     H_    0.941496 0.714032 0.029573 0.137242
H92   H     H_    0.627137 0.463714 0.721986 0.161615
H93   H     H_    0.585558 0.471037 0.581397 0.146948
H94   H     H_    0.683449 0.426277 0.672519 0.163442
H95   H     H_    0.909812 0.934464 0.333133 0.141834
H96   H     H_    0.922557 0.919034 0.458894 0.155524
H97   H     H_    0.856704 0.874975 0.342974 0.192118
H98   H     H_    0.171479 0.853539 0.829554 0.178451
H99   H     H_    0.227980 0.917343 0.835479 0.129965
H100  H     H_    0.292860 0.854439 0.877513 0.171732
H101  H     H_    0.582498 0.323102 0.408444 0.227703
H102  H     H_    0.849057 0.282817 0.231499 0.083778
H103  H     H_    0.615910 0.330864 0.547669 0.091238
H104  H     H_    0.686608 0.360226 0.509466 0.151727
H105  H     H_    0.509752 0.302842 0.641611 0.203432
H106  H     H_    0.474250 0.287564 0.504198 0.116854
H107  H     H_    0.397110 0.272518 0.542791 0.146094
H108  H     H_    0.105067 0.800614 0.421867 0.203876
H109  H     H_    0.168240 0.791328 0.570015 0.088454
H110  H     H_    0.232228 0.800167 0.511906 0.152870
H111  H     H_    0.966917 0.790507 0.612798 0.201417
H112  H     H_    0.093310 0.786999 0.687092 0.149091
N1    N     N_R   0.395410 0.396350 0.944340 -0.164853
N2    N     N_R   0.474920 0.471030 0.794350 -0.065921
N3    N     N_R   0.025080 0.971030 0.205650 -0.057784
N4    N     N_R   0.974920 0.971030 0.794350 -0.036314
N5    N     N_R   0.320260 0.527820 0.794570 -0.154274
N6    N     N_R   0.679740 0.527820 0.205430 -0.147982
N7    N     N_R   0.820260 0.027820 0.794570 -0.158805
N8    N     N_R   0.179740 0.027820 0.205430 -0.142571
N9    N     N_R   0.524590 0.527840 0.205200 -0.059205
N10   N     N_R   0.475410 0.527840 0.794800 -0.054834
N11   N     N_R   0.024590 0.027840 0.205200 -0.051523
N12   N     N_R   0.604590 0.396350 0.055660 -0.146262
N13   N     N_R   0.975410 0.027840 0.794800 -0.053813
N14   N     N_R   0.320750 0.471000 0.795020 -0.133345
N15   N     N_R   0.679250 0.471000 0.204980 -0.140924
N16   N     N_R   0.820750 0.971000 0.795020 -0.117705
N17   N     N_R   0.179250 0.971000 0.204980 -0.137027
N18   N     N_R   0.393620 0.602490 0.942710 -0.050326
N19   N     N_R   0.606380 0.602490 0.057290 -0.046030
N20   N     N_R   0.893620 0.102490 0.942710 -0.054566
N21   N     N_R   0.106380 0.102490 0.057290 -0.045554
N22   N     N_R   0.451720 0.396350 0.057510 -0.172194
N23   N     N_R   0.895410 0.896350 0.944340 -0.170209
N24   N     N_R   0.548280 0.396350 0.942490 -0.151003
N25   N     N_R   0.951720 0.896350 0.057510 -0.175445
N26   N     N_R   0.048280 0.896350 0.942490 -0.165343
N27   N     N_R   0.104590 0.896350 0.055660 -0.168677
N28   N     N_R   0.449930 0.602500 0.055880 -0.044603
N29   N     N_R   0.550070 0.602500 0.944120 -0.040552
N30   N     N_R   0.949930 0.102500 0.055880 -0.046095
N31   N     N_R   0.050070 0.102500 0.944120 -0.044743
N32   N     N_R   0.525080 0.471030 0.205650 -0.043382
Ni1   Ni    Ni4+2 0.435420 0.434270 0.870230 0.278042
Ni2   Ni    Ni4+2 0.564580 0.434270 0.129770 0.296724
Ni3   Ni    Ni4+2 0.935420 0.934270 0.870230 0.304781
Ni4   Ni    Ni4+2 0.064580 0.934270 0.129770 0.284968
Ni5   Ni    Ni4+2 0.563430 0.564580 0.128740 0.173666
Ni6   Ni    Ni4+2 0.436570 0.564580 0.871260 0.171629
Ni7   Ni    Ni4+2 0.063430 0.064580 0.128740 0.171449
Ni8   Ni    Ni4+2 0.936570 0.064580 0.871260 0.178716
O1    O     O_3   0.991302 0.522570 0.472590 -0.596527
O2    O     O_3   0.565687 0.768997 0.975804 -0.584164
O3    O     O_3   0.057186 0.285300 0.276058 -0.553678
O4    O     O_3   0.026455 0.307853 0.887523 -0.577706
O5    O     O_3   0.419652 0.347859 0.347612 -0.635272
O6    O     O_3   0.554636 0.396105 0.627942 -0.629181
O7    O     O_3   0.001585 0.869402 0.422283 -0.647232
O8    O     O_3   0.197031 0.863047 0.710928 -0.638993
O9    O     O_3   0.560502 0.400697 0.447460 -0.665402
O10   O     O_3   0.403809 0.353933 0.516795 -0.650155
O11   O     O_3   0.170064 0.870172 0.517884 -0.635128
O12   O     O_3   0.034014 0.554286 0.682016 -0.548029
O13   O     O_3   0.028253 0.863368 0.621157 -0.672346
O14   O     O_3   0.196647 0.597133 0.715350 -0.585677
O15   O     O_3   0.782761 0.595576 0.344122 -0.609350
O16   O     O_3   0.700025 0.098595 0.722693 -0.575874
O17   O     O_3   0.296619 0.094402 0.333143 -0.594198
O18   O     O_3   0.497037 0.021539 0.459631 -0.584059
O19   O     O_3   0.530578 0.055977 0.657756 -0.534412
O20   O     O_3   0.945263 0.348526 0.292296 -0.523453
O21   O     O_3   0.126320 0.377165 0.857254 -0.579773
O22   O     O_3   0.385254 0.868074 0.204367 -0.546695
O23   O     O_3   0.659647 0.855408 0.986993 -0.554071
O24   O     O_3   0.498158 0.808919 0.177265 -0.580326

loop_
_geom_bond_atom_site_label_1
_geom_bond_atom_site_label_2
_ccdc_geom_bond_type
C55   C59   A    
N4    N13   A    
N23   Ni3   S    
C33   H16   S    
C125  N21   A    
C20   H87   S    
C110  O15   S    
C47   C76   A    
C1    F1    S    
C15   O22   S    
C9    H53   S    
C79   H2    S    
C8    O1    S    
C18   H79   S    
C58   C60   A    
C11   O19   S    
C12   H63   S    
N8    N17   A    
C80   O22   S    
C28   H109  S    
C22   H94   S    
N15   Ni2   S    
C31   O15   S    
C103  O13   S    
C117  N14   A    
C60   H58   S    
C113  H35   S    
C31   H7    S    
C52   N23   A    
N24   Ni1   S    
N20   N30   A    
C103  O8    S    
N25   Ni4   S    
C87   C91   A    
C29   H112  S    
N3    Ni4   S    
N4    Ni3   S    
C119  F9    S    
C124  H42   S    
C27   H107  S    
N9    N32   A    
C36   C111  A    
C69   C74   A    
C13   C115  A    
C104  H31   S    
C37   C121  A    
C56   H1    S    
N6    Ni5   S    
N3    N11   A    
C60   C65   A    
C14   H66   S    
C49   C73   A    
C27   H106  S    
C120  F10   S    
C37   C45   S    
C68   C77   A    
C71   N30   A    
N11   Ni7   S    
C19   H84   S    
C13   C106  A    
C64   H91   S    
C95   C97   A    
N31   Ni8   S    
N28   Ni5   S    
C13   C94   S    
N12   Ni2   S    
C114  N10   A    
C38   C43   D    
C123  H41   S    
C4    C66   S    
C2    C114  A    
N14   Ni1   S    
C21   H90   S    
C25   O8    S    
C106  H33   S    
C85   C123  A    
C30   O14   S    
C32   H10   S    
C98   C99   A    
C53   C85   S    
N21   Ni7   S    
C6    C52   A    
C100  O5    S    
C75   C79   S    
N19   Ni5   S    
C63   F7    S    
C16   O23   S    
C112  O17   S    
C52   F6    S    
C41   F5    S    
C86   O4    S    
C80   H13   S    
C84   O3    S    
N12   N24   A    
C19   O3    S    
C21   O5    S    
C64   C68   A    
C49   C84   S    
C45   O18   S    
C110  N6    A    
N1    N22   A    
C27   H105  S    
C42   C46   D    
C38   C39   S    
C82   H18   S    
C40   H46   S    
C25   H99   S    
C20   H86   S    
C18   H81   S    
C92   C118  S    
C11   H60   S    
C90   C102  S    
N7    N16   A    
C87   C101  S    
C59   H47   S    
N22   Ni2   S    
C12   H62   S    
C35   C43   S    
C23   H95   S    
C40   C42   S    
C126  N22   A    
C15   H68   S    
C89   C103  S    
C33   O17   S    
C19   H82   S    
C81   C83   S    
C92   C97   A    
C48   C53   A    
C10   O18   S    
C59   C61   A    
C107  C125  A    
C80   C82   S    
C8    H50   S    
C26   H103  S    
C29   O13   S    
C108  H34   S    
C48   C77   A    
C28   O11   S    
C10   H56   S    
C32   H12   S    
C86   H21   S    
C16   H74   S    
C7    C63   A    
C101  O10   S    
C24   C116  A    
C78   O20   S    
C116  H39   S    
C18   H78   S    
C128  F3    S    
C121  N17   A    
C30   H5    S    
C123  N19   A    
C124  N20   A    
C41   N12   A    
C76   C80   S    
C33   H15   S    
C39   C44   D    
C48   C83   S    
C4    C126  A    
C121  F11   S    
N32   Ni2   S    
C6    C128  A    
C24   C93   S    
C112  N8    A    
C63   N27   A    
N7    Ni8   S    
C100  C101  S    
C12   H64   S    
C89   C93   A    
C2    C91   S    
C28   H110  S    
C7    C67   S    
N2    N10   A    
N26   N27   A    
C70   C85   A    
C87   C88   A    
C10   H57   S    
C120  N16   A    
N17   Ni4   S    
C51   C74   S    
C84   H20   S    
C26   H101  S    
C122  H40   S    
C12   O20   S    
C29   H111  S    
C27   O10   S    
C15   H70   S    
C3    C7    A    
C31   H9    S    
C83   O2    S    
N19   N29   A    
C57   H25   S    
C29   H3    S    
C30   H4    S    
C28   H108  S    
N18   N28   A    
C100  O9    S    
C102  O11   S    
C97   H23   S    
N9    Ni5   S    
C71   H29   S    
C24   C108  A    
C17   H76   S    
N29   Ni6   S    
C18   O2    S    
C14   H67   S    
C108  N4    A    
C22   O6    S    
C105  N2    A    
C111  N7    A    
C1    N1    A    
C90   C94   A    
C104  C118  A    
C40   C45   D    
C81   H17   S    
C3    F4    S    
C19   H83   S    
C9    O12   S    
N26   Ni3   S    
C53   C57   A    
C9    H54   S    
C47   C51   A    
C71   C96   A    
C69   N28   A    
C44   O12   S    
C62   H80   S    
C69   H27   S    
C70   H28   S    
C22   H93   S    
C77   C81   S    
C8    H49   S    
C21   H89   S    
C5    C127  A    
C72   N31   A    
C61   H69   S    
C88   C100  S    
C35   C110  A    
C31   H8    S    
C74   C122  A    
N16   Ni3   S    
C20   O4    S    
C23   O7    S    
N2    Ni1   S    
C42   H48   S    
C21   H88   S    
C32   O16   S    
C26   O9    S    
N5    N14   A    
C46   O19   S    
N18   Ni6   S    
C70   N29   A    
C101  O6    S    
C50   C75   A    
C104  N32   A    
C25   H98   S    
C66   C75   A    
C26   H104  S    
C36   C120  A    
C11   H59   S    
C115  H38   S    
C122  N18   A    
N30   Ni7   S    
C14   H65   S    
C79   O21   S    
C89   C90   A    
C117  F8    S    
C79   C86   S    
C105  H32   S    
C125  H43   S    
C35   C119  A    
C127  N24   A    
C38   H44   S    
C126  F12   S    
C78   H102  S    
C62   C67   A    
N23   N25   A    
C23   H97   S    
N1    Ni1   S    
C8    H51   S    
C49   C54   A    
C65   C73   A    
C51   C56   A    
C11   H61   S    
C47   C82   S    
C14   O21   S    
C37   C112  A    
C15   H71   S    
C61   C66   A    
C81   O23   S    
C88   C92   A    
C82   O24   S    
N13   Ni8   S    
C73   C78   S    
C9    H52   S    
C54   C96   S    
C99   H26   S    
C34   C117  A    
C6    C68   S    
N8    Ni7   S    
C102  C103  S    
N6    N15   A    
N5    Ni6   S    
C30   H6    S    
C111  O16   S    
C96   C124  A    
C17   O24   S    
N21   N31   A    
C16   H72   S    
C34   C44   S    
C5    C65   S    
C116  N13   A    
C95   H22   S    
C102  O7    S    
C33   H14   S    
C3    N26   A    
C25   H100  S    
C91   C95   A    
C109  O14   S    
C20   H85   S    
N10   Ni6   S    
C55   C107  S    
C72   H30   S    
C72   C107  A    
C114  H37   S    
C119  N15   A    
C83   H19   S    
C113  N9    A    
C36   C46   S    
C115  N11   A    
C23   H96   S    
C128  N25   A    
C17   H77   S    
C57   C64   A    
C54   C58   A    
C5    C41   A    
C106  N3    A    
C58   H36   S    
C98   H24   S    
C2    C105  A    
C50   C55   A    
C1    C4    A    
N27   Ni4   S    
C43   O1    S    
C127  F2    S    
C10   H55   S    
N20   Ni8   S    
C32   H11   S    
C94   C99   A    
C56   C62   A    
C109  N5    A    
C16   H73   S    
C50   C86   S    
C113  C118  A    
C39   H45   S    
C78   C84   S    
C22   H92   S    
C34   C109  A    
C67   C76   A    
C17   H75   S    
C93   C98   A    
