data_mof_unit_pretest_564.cif
_audit_creation_date              2012-12-10T20:03:05-0500
_audit_creation_method            fapswitch 2.2
_symmetry_space_group_name_H-M    P1
_symmetry_Int_Tables_number       1
_space_group_crystal_system       triclinic
_cell_length_a                    8.568716
_cell_length_b                    18.721557
_cell_length_c                    18.459322
_cell_angle_alpha                 89.354503
_cell_angle_beta                  98.665585
_cell_angle_gamma                 90.180813
_cell_volume                      2927.24619157

loop_
_atom_site_label
_atom_site_type_symbol
_atom_type_description
_atom_site_fract_x
_atom_site_fract_y
_atom_site_fract_z
_atom_type_partial_charge
C1    C     C_R   0.498174 0.364711 0.500303 0.846722
C2    C     C_R   0.498973 0.635254 0.499495 0.863618
C3    C     C_R   0.295103 0.964914 0.555240 0.189490
C4    C     C_R   0.282938 0.034357 0.417554 0.187028
C5    C     C_R   0.297685 0.039332 0.550421 -0.283350
C6    C     C_R   0.287121 0.959905 0.422762 -0.279069
C7    C     C_R   0.302620 0.073852 0.483047 0.056003
C8    C     C_R   0.304014 0.925533 0.491272 0.057529
C9    C     C_R   0.452253 0.559267 0.722339 -0.000739
C10   C     C_R   0.366726 0.518886 0.264245 0.004029
C11   C     C_R   0.451941 0.560326 0.798396 -0.259137
C12   C     C_R   0.363692 0.518507 0.187936 -0.261398
C13   C     C_R   0.499445 0.499636 0.841408 0.221557
C14   C     C_R   0.499521 0.499512 0.158559 0.223745
C15   C     C_R   0.547173 0.439108 0.806223 -0.260622
C16   C     C_R   0.635362 0.480534 0.207318 -0.262906
C17   C     C_R   0.547362 0.440510 0.730129 0.001746
C18   C     C_R   0.632721 0.480546 0.283194 -0.000785
C19   C     C_R   0.400818 0.451969 0.955122 0.115103
C20   C     C_R   0.597425 0.547458 0.044880 0.114014
C21   C     C_R   0.402184 0.451351 0.032294 0.114294
C22   C     C_R   0.598777 0.546957 0.967919 0.115286
C23   C     C_R   0.200865 0.500174 0.480879 0.972499
C24   C     C_R   0.799144 0.500187 0.519117 0.971210
C25   C     C_R   0.499603 0.499471 0.077227 -0.035441
C26   C     C_R   0.499647 0.499537 0.922812 -0.035598
C27   C     C_2   0.035862 0.500554 0.470499 -0.401169
C28   C     C_2   0.964176 0.500438 0.529499 -0.390935
C29   C     C_R   0.311944 0.729238 0.456647 -0.231962
C30   C     C_R   0.320556 0.269005 0.525027 -0.225349
C31   C     C_R   0.259018 0.799118 0.456436 -0.197468
C32   C     C_R   0.266025 0.199299 0.517746 -0.200568
C33   C     C_R   0.353673 0.850852 0.495231 0.107702
C34   C     C_R   0.350777 0.148895 0.484484 0.104461
C35   C     C_R   0.503666 0.832915 0.532601 -0.209095
C36   C     C_R   0.492456 0.168242 0.459918 -0.193394
C37   C     C_R   0.557890 0.762440 0.534076 0.159477
C38   C     C_R   0.547059 0.238738 0.465340 0.161185
C39   C     C_R   0.459568 0.710470 0.495741 -0.035156
C40   C     C_R   0.459438 0.289249 0.498524 -0.060796
H1    H     H_    0.973932 0.500808 0.414545 0.170571
H2    H     H_    0.026198 0.500316 0.585466 0.183388
H3    H     H_    0.585510 0.391411 0.837549 0.138921
H4    H     H_    0.742045 0.465047 0.186739 0.139268
H5    H     H_    0.585628 0.393856 0.703666 0.130165
H6    H     H_    0.737233 0.464713 0.320089 0.129239
H7    H     H_    0.235822 0.689149 0.427673 0.147770
H8    H     H_    0.251727 0.307895 0.549653 0.153052
H9    H     H_    0.144319 0.812901 0.426414 0.143285
H10   H     H_    0.158094 0.184519 0.538112 0.138191
H11   H     H_    0.578777 0.874297 0.559847 0.124302
H12   H     H_    0.561788 0.128007 0.437496 0.128613
H13   H     H_    0.305454 0.070547 0.599955 0.144195
H14   H     H_    0.286564 0.928555 0.373693 0.145773
H15   H     H_    0.413930 0.606042 0.689670 0.132156
H16   H     H_    0.262052 0.534295 0.286341 0.127578
H17   H     H_    0.413537 0.607916 0.823434 0.139076
H18   H     H_    0.256745 0.533659 0.152084 0.136719
N1    N     N_R   0.500020 0.499980 0.689440 -0.088043
N2    N     N_R   0.499980 0.500020 0.310560 -0.086680
O1    O     O_R   0.500010 0.398180 0.560840 -0.628826
O2    O     O_R   0.499990 0.601820 0.439160 -0.610075
O3    O     O_R   0.499930 0.398180 0.439210 -0.598222
O4    O     O_R   0.500070 0.601820 0.560790 -0.629488
O5    O     O_R   0.271780 0.500000 0.546590 -0.609346
O6    O     O_R   0.728220 0.500000 0.453410 -0.623478
O7    O     O_R   0.271710 0.499990 0.424960 -0.636329
O8    O     O_R   0.728290 0.500010 0.575040 -0.618660
Zn1   Zn    Zn3+2 0.500050 0.500000 0.581210 0.932456
Zn2   Zn    Zn3+2 0.499950 0.500000 0.418790 0.937183
N3    N     N_2   0.302018 0.403975 0.909421 -0.301816
H19   H     H_    0.291168 0.353747 0.931529 0.229579
C41   C     C_3   0.152342 0.433836 0.876259 -0.804028
H20   H     H_    0.088776 0.394731 0.837664 0.238878
H21   H     H_    0.170434 0.483488 0.845081 0.257605
H22   H     H_    0.078444 0.445875 0.919061 0.227619
N4    N     N_2   0.696518 0.595338 0.090606 -0.302668
H23   H     H_    0.806085 0.604159 0.075603 0.228858
C42   C     C_3   0.619850 0.660403 0.107829 -0.797575
H24   H     H_    0.703029 0.692339 0.146677 0.238621
H25   H     H_    0.514384 0.648131 0.134080 0.255069
H26   H     H_    0.583462 0.692721 0.057303 0.224766
N5    N     N_2   0.303994 0.403056 0.065292 -0.302384
H27   H     H_    0.194724 0.393690 0.035139 0.229578
C43   C     C_3   0.381965 0.338331 0.094902 -0.798481
H28   H     H_    0.299381 0.306060 0.122873 0.238821
H29   H     H_    0.487090 0.351043 0.135653 0.254733
H30   H     H_    0.419107 0.306146 0.050284 0.225131
N6    N     N_2   0.698041 0.594889 0.935099 -0.300820
H31   H     H_    0.711107 0.644764 0.958282 0.230150
C44   C     C_3   0.846014 0.564382 0.921980 -0.811245
H32   H     H_    0.911747 0.604241 0.893302 0.240816
H33   H     H_    0.824785 0.516602 0.886779 0.256916
H34   H     H_    0.919489 0.549103 0.974671 0.225521
C45   C     C_3   0.719773 0.744574 0.575361 -0.447524
C46   C     C_3   0.838193 0.730625 0.523021 -0.864376
H35   H     H_    0.956224 0.719605 0.555048 0.251655
H36   H     H_    0.802222 0.683708 0.488160 0.255298
H37   H     H_    0.847679 0.778224 0.487446 0.260543
H38   H     H_    0.765544 0.789390 0.611601 0.206655
H39   H     H_    0.712651 0.697283 0.611568 0.218955
C47   C     C_3   0.700182 0.257349 0.437911 -0.431465
C48   C     C_3   0.676462 0.262445 0.354399 -0.834551
H40   H     H_    0.588326 0.304401 0.334696 0.274409
H41   H     H_    0.790102 0.276600 0.335813 0.242115
H42   H     H_    0.635319 0.210464 0.330006 0.246948
H43   H     H_    0.749745 0.308655 0.460727 0.197462
H44   H     H_    0.790002 0.215732 0.456636 0.199066
C49   C     C_3   0.286359 0.929237 0.628689 -0.421355
C50   C     C_3   0.130585 0.889079 0.627748 -0.858373
H45   H     H_    0.029376 0.926074 0.612991 0.257426
H46   H     H_    0.120593 0.844806 0.587842 0.267059
H47   H     H_    0.124771 0.865994 0.682948 0.242604
H48   H     H_    0.386545 0.892019 0.643978 0.201868
H49   H     H_    0.295006 0.969593 0.672852 0.198551
C51   C     C_3   0.260162 0.069826 0.342425 -0.420928
C52   C     C_3   0.103301 0.109829 0.327693 -0.848394
H50   H     H_    0.003846 0.072770 0.332650 0.256140
H51   H     H_    0.101103 0.154278 0.366806 0.265226
H52   H     H_    0.086940 0.132654 0.271285 0.243633
H53   H     H_    0.358410 0.107065 0.336694 0.204561
H54   H     H_    0.260141 0.029325 0.298831 0.198636

loop_
_geom_bond_atom_site_label_1
_geom_bond_atom_site_label_2
_ccdc_geom_bond_type
C38   C40   A    
C41   H20   S    
C19   N3    S    
C45   C46   S    
N4    H23   S    
C37   C45   S    
C51   H54   S    
C20   N4    S    
C29   H7    S    
C30   H8    S    
C35   C37   A    
C17   H5    S    
C52   H51   S    
C20   C25   A    
O1    Zn1   S    
C46   H37   S    
C1    O3    A    
C51   C52   S    
O2    Zn2   S    
C23   O7    A    
C19   C26   A    
C50   H45   S    
C1    C40   S    
C33   C35   A    
C2    C39   S    
C21   N5    S    
O8    Zn1   S    
C46   H36   S    
C31   C33   A    
C47   H44   S    
C9    H15   S    
C23   C27   S    
N6    C44   S    
C10   H16   S    
C16   H4    S    
C36   H12   S    
C24   O6    A    
C38   C47   S    
C12   H18   S    
N4    C42   S    
C41   H21   S    
C31   H9    S    
C4    C7    A    
C18   H6    S    
C2    O4    A    
C43   H29   S    
C51   H53   S    
C4    C6    A    
C3    C8    A    
C52   H52   S    
C44   H32   S    
C5    C7    A    
C24   O8    A    
C45   H38   S    
C6    C8    A    
C43   H28   S    
C9    N1    A    
C32   C34   A    
C10   N2    A    
C44   H33   S    
C27   H1    S    
N5    H27   S    
O3    Zn2   S    
N2    Zn2   S    
C29   C31   A    
C46   H35   S    
C29   C39   A    
C30   C40   A    
C47   H43   S    
C48   H41   S    
O4    Zn1   S    
C9    C11   A    
C50   H47   S    
C32   H10   S    
C10   C12   A    
C49   H48   S    
C17   N1    A    
C18   N2    A    
N5    C43   S    
N1    Zn1   S    
C6    H14   S    
C13   C15   A    
C35   H11   S    
C41   H22   S    
C14   C16   A    
C13   C26   S    
C48   H40   S    
N3    C41   S    
C43   H30   S    
C5    H13   S    
C15   C17   A    
C21   C25   A    
C19   C21   A    
C4    C51   S    
C24   C28   S    
C20   C22   A    
C3    C5    A    
C1    O1    A    
C42   H26   S    
C42   H25   S    
O7    Zn2   S    
C23   O5    A    
C36   C38   A    
C12   C14   A    
C15   H3    S    
N3    H19   S    
C37   C39   A    
C11   H17   S    
C52   H50   S    
C44   H34   S    
C30   C32   A    
C11   C13   A    
O6    Zn2   S    
C3    C49   S    
O5    Zn1   S    
C28   H2    S    
C7    C34   S    
C22   N6    S    
C48   H42   S    
C34   C36   A    
C8    C33   S    
C14   C25   S    
C47   C48   S    
C50   H46   S    
C49   H49   S    
C42   H24   S    
C2    O2    A    
C16   C18   A    
C22   C26   A    
C27   C28   D    
N6    H31   S    
C49   C50   S    
C45   H39   S    
