data_mof_unit_pretest_291.cif
_audit_creation_date              2012-12-10T17:36:47-0500
_audit_creation_method            fapswitch 2.2
_symmetry_space_group_name_H-M    P1
_symmetry_Int_Tables_number       1
_space_group_crystal_system       triclinic
_cell_length_a                    10.730539
_cell_length_b                    12.511726
_cell_length_c                    13.494871
_cell_angle_alpha                 117.669197
_cell_angle_beta                  75.839246
_cell_angle_gamma                 99.071287
_cell_volume                      1553.79066694

loop_
_atom_site_label
_atom_site_type_symbol
_atom_type_description
_atom_site_fract_x
_atom_site_fract_y
_atom_site_fract_z
_atom_type_partial_charge
C1    C     C_R   0.515952 0.854749 0.287480 0.821705
C2    C     C_3   0.022787 0.074002 0.615657 0.077469
C3    C     C_3   0.930415 0.961389 0.582651 0.093146
C4    C     C_3   0.873580 0.004986 0.514469 -0.130701
C5    C     C_R   0.339909 0.294416 0.025984 0.479324
C6    C     C_R   0.459636 0.234348 0.833673 -0.125420
C7    C     C_R   0.649245 0.794160 0.095938 -0.152695
C8    C     C_R   0.676999 0.719822 0.980112 -0.154852
C9    C     C_R   0.601340 0.614772 0.931507 0.402875
C10   C     C_R   0.509556 0.572343 0.003781 0.005536
C11   C     C_R   0.468362 0.658423 0.118460 0.007273
C12   C     C_R   0.738187 0.002444 0.506078 0.893561
C13   C     C_R   0.461111 0.449060 0.970836 0.002458
C14   C     C_R   0.365759 0.418658 0.049378 -0.114893
C15   C     C_R   0.300290 0.513914 0.146512 0.457388
C16   C     C_R   0.355056 0.631419 0.182563 -0.156165
C17   C     C_R   0.509992 0.353809 0.865546 -0.062860
C18   C     C_R   0.378780 0.204687 0.915638 -0.232896
C19   C     C_R   0.539706 0.770264 0.164828 -0.032085
C20   C     C_R   0.748652 0.378219 0.409588 -0.221280
C21   C     C_R   0.296729 0.736877 0.592854 0.109819
C22   C     C_R   0.241413 0.620652 0.550669 -0.161949
C23   C     C_R   0.483244 0.145787 0.712547 0.834208
C24   C     C_R   0.321722 0.524327 0.493756 0.037623
C25   C     C_R   0.452296 0.543307 0.500739 0.021562
C26   C     C_R   0.506285 0.658482 0.514166 0.173797
C27   C     C_R   0.533538 0.451032 0.480308 -0.138028
C28   C     C_R   0.667745 0.475172 0.461445 0.001128
C29   C     C_R   0.716460 0.592538 0.479305 0.126413
C30   C     C_R   0.639254 0.664072 0.466647 0.312239
C31   C     C_R   0.490857 0.341397 0.489563 0.487344
C32   C     C_R   0.696388 0.261750 0.383565 0.571446
C33   C     C_R   0.260147 0.002543 0.502001 0.811113
C34   C     C_3   0.973641 0.936539 0.406332 -0.198305
C35   C     C_3   0.031785 0.892415 0.474618 -0.178264
C36   C     C_3   0.122070 0.006914 0.507185 -0.073960
C37   C     C_3   0.065168 0.051149 0.439092 -0.199150
C38   C     C_3   0.964974 0.118091 0.548460 0.481255
Cu1   Cu    Cu3+1 0.529830 0.098270 0.475420 1.124384
Cu2   Cu    Cu3+1 0.470170 0.901730 0.524580 1.010066
H1    H     H_    0.067678 0.801618 0.443238 0.200815
H2    H     H_    0.585862 0.371166 0.805980 0.227973
H3    H     H_    0.712260 0.872424 0.131029 0.225235
H4    H     H_    0.752603 0.749051 0.926817 0.191956
H5    H     H_    0.307146 0.702326 0.260649 0.160396
H6    H     H_    0.849059 0.388995 0.375864 0.205505
H7    H     H_    0.234790 0.812046 0.634621 0.131290
H8    H     H_    0.953185 0.878908 0.319559 0.226929
H9    H     H_    0.279994 0.435724 0.451280 0.208537
H10   H     H_    0.138045 0.605422 0.558710 0.164287
H11   H     H_    0.116750 0.081012 0.373648 0.220689
H12   H     H_    0.349567 0.110951 0.894921 0.204535
N1    N     N_R   0.575030 0.246270 0.438190 -0.312084
N2    N     N_R   0.425760 0.754330 0.561190 -0.216563
O1    O     O_R   0.537510 0.972500 0.318130 -0.540773
O2    O     O_R   0.487140 0.806530 0.359650 -0.512159
O3    O     O_R   0.708330 0.082950 0.479220 -0.503283
O4    O     O_R   0.657960 0.916980 0.520740 -0.584662
O5    O     O_R   0.512860 0.193470 0.640350 -0.530320
O6    O     O_R   0.462490 0.027500 0.681870 -0.599469
O7    O     O_R   0.342040 0.083020 0.479260 -0.493787
O8    O     O_R   0.291670 0.917050 0.520780 -0.635964
S1    S     S_3+6 0.592759 0.573056 0.789379 -0.013702
O9    O     O_2   0.468666 0.502418 0.765405 -0.254170
O10   O     O_2   0.596233 0.684153 0.772430 -0.278984
O11   O     O_3   0.718680 0.491553 0.700041 -0.515755
H13   H     H_    0.680916 0.419952 0.641344 0.384972
S2    S     S_3+6 0.770657 0.144230 0.255468 0.056469
O12   O     O_2   0.671015 0.080173 0.183030 -0.284947
O13   O     O_2   0.875639 0.197043 0.191860 -0.237372
O14   O     O_3   0.835091 0.045820 0.278508 -0.542748
H14   H     H_    0.901934 0.006558 0.209616 0.362981
C39   C     C_3   0.856496 0.628253 0.478989 -0.729276
H15   H     H_    0.875949 0.717030 0.479969 0.236915
H16   H     H_    0.883588 0.630429 0.554207 0.241040
H17   H     H_    0.916739 0.567179 0.399845 0.297966
S3    S     S_3+6 0.333060 0.336758 0.575404 0.067278
O15   O     O_2   0.323729 0.278697 0.651608 -0.247652
O16   O     O_2   0.283700 0.460181 0.655140 -0.253727
O17   O     O_3   0.234832 0.259762 0.482856 -0.564439
H18   H     H_    0.161592 0.310832 0.507025 0.393495
S4    S     S_3+6 0.680057 0.635615 0.320205 0.037923
O18   O     O_2   0.729230 0.748580 0.307768 -0.289320
O19   O     O_2   0.783406 0.545858 0.253502 -0.219885
O20   O     O_3   0.549630 0.575244 0.261628 -0.527821
H19   H     H_    0.545164 0.488905 0.244532 0.374573
S5    S     S_3+6 0.913730 0.268179 0.610414 -0.003717
O21   O     O_2   0.908933 0.300561 0.517443 -0.321598
O22   O     O_2   0.782455 0.272040 0.682711 -0.340664
O23   O     O_3   0.013136 0.367585 0.693933 -0.489523
H20   H     H_    0.980107 0.447793 0.719748 0.398281
C40   C     C_3   0.050013 0.147670 0.735972 -0.654734
H21   H     H_    0.958822 0.180796 0.797615 0.256467
H22   H     H_    0.094596 0.090359 0.759216 0.203527
H23   H     H_    0.115617 0.226571 0.741311 0.299451
C41   C     C_3   0.852203 0.921643 0.671992 -0.770641
H24   H     H_    0.915262 0.877710 0.694817 0.236014
H25   H     H_    0.811122 0.001445 0.749646 0.250736
H26   H     H_    0.770446 0.858826 0.640440 0.251333
S6    S     S_3+6 0.138363 0.497410 0.209732 0.040881
O24   O     O_2   0.070124 0.607979 0.240613 -0.290639
O25   O     O_2   0.071622 0.389058 0.127909 -0.213011
O26   O     O_3   0.133577 0.484820 0.329285 -0.550683
H27   H     H_    0.074829 0.413939 0.324451 0.395772
S7    S     S_3+6 0.299375 0.244432 0.133495 0.031981
O27   O     O_2   0.337799 0.340701 0.241257 -0.326771
O28   O     O_2   0.157884 0.211915 0.154704 -0.223633
O29   O     O_3   0.380138 0.120538 0.090368 -0.508105
H28   H     H_    0.360883 0.102598 0.156934 0.386747

loop_
_geom_bond_atom_site_label_1
_geom_bond_atom_site_label_2
_ccdc_geom_bond_type
S5    O21   D    
S1    O10   D    
Cu2   O6    S    
C34   C37   S    
C39   H15   S    
C35   C36   S    
C15   S6    S    
C18   H12   S    
C7    C8    A    
C5    S7    S    
S3    O15   D    
C23   O5    A    
S7    O28   D    
C11   C19   A    
C29   C30   A    
C36   C37   S    
C1    O2    A    
C33   O8    A    
C21   N2    A    
C37   H11   S    
C29   C39   S    
C15   C16   A    
Cu1   O3    S    
C41   H26   S    
C33   C36   S    
Cu2   O8    S    
O29   H28   S    
C34   C35   S    
C17   H2    S    
S6    O24   D    
Cu1   O1    S    
C8    C9    A    
Cu2   O2    S    
C41   H25   S    
C3    C41   S    
C7    H3    S    
C4    C12   S    
C9    C10   A    
C22   H10   S    
C12   O4    A    
O11   H13   S    
S1    O11   S    
C13   C14   A    
C39   H16   S    
Cu1   O7    S    
C26   N2    A    
C40   H22   S    
C31   S3    S    
S3    O16   D    
C23   O6    A    
C6    C18   A    
S7    O29   S    
C4    C34   S    
C1    C19   S    
Cu2   O4    S    
C27   C31   A    
C24   C25   A    
Cu1   Cu2   S    
S2    O12   D    
C5    C18   A    
C20   C28   A    
C25   C26   A    
O20   H19   S    
S6    O26   S    
Cu2   N2    S    
C30   S4    S    
C37   C38   S    
C11   C16   A    
C2    C38   S    
C3    C35   S    
Cu1   O5    S    
C41   H24   S    
S6    O25   D    
C31   N1    A    
C2    C40   S    
C5    C14   A    
C12   O3    A    
C33   O7    A    
C4    C38   S    
C26   C30   A    
C7    C19   A    
S5    O22   D    
C39   H17   S    
C22   C24   A    
C34   H8    S    
C3    C4    S    
C32   N1    A    
O26   H27   S    
C20   C32   A    
S3    O17   S    
C2    C36   S    
C24   H9    S    
C6    C17   A    
C28   C29   A    
C9    S1    S    
C8    H4    S    
O17   H18   S    
C10   C13   A    
C16   H5    S    
C13   C17   A    
C25   C27   A    
S4    O20   S    
S7    O27   D    
S4    O19   D    
C32   S2    S    
C38   S5    S    
C2    C3    S    
C1    O1    A    
O14   H14   S    
O23   H20   S    
Cu1   N1    S    
S2    O14   S    
C6    C23   S    
C40   H21   S    
C40   H23   S    
C35   H1    S    
C10   C11   A    
S1    O9    D    
S2    O13   D    
S4    O18   D    
S5    O23   S    
C27   C28   A    
C14   C15   A    
C21   C22   A    
C20   H6    S    
C21   H7    S    
