data_mof_unit_pretest_1745.cif
_audit_creation_date              2012-12-10T19:35:22-0500
_audit_creation_method            fapswitch 2.2
_symmetry_space_group_name_H-M    P1
_symmetry_Int_Tables_number       1
_space_group_crystal_system       triclinic
_cell_length_a                    16.521967
_cell_length_b                    16.824582
_cell_length_c                    19.085864
_cell_angle_alpha                 91.888565
_cell_angle_beta                  91.656109
_cell_angle_gamma                 87.208918
_cell_volume                      5294.24439079

loop_
_atom_site_label
_atom_site_type_symbol
_atom_type_description
_atom_site_fract_x
_atom_site_fract_y
_atom_site_fract_z
_atom_type_partial_charge
C1    C     C_R   0.488398 0.651764 0.496417 0.921811
C2    C     C_R   0.511695 0.347999 0.501290 0.913156
C3    C     C_R   0.481565 0.734761 0.477797 -0.084188
C4    C     C_R   0.519208 0.261969 0.503480 -0.083161
C5    C     C_R   0.546478 0.766951 0.444497 -0.228662
C6    C     C_R   0.452970 0.220196 0.523859 -0.196939
C7    C     C_R   0.540946 0.845042 0.423675 0.408695
C8    C     C_R   0.456677 0.137781 0.520905 0.418666
C9    C     C_R   0.470982 0.892458 0.438891 0.052803
C10   C     C_R   0.527001 0.097033 0.496030 0.052174
C11   C     C_R   0.403983 0.859131 0.467686 -0.157670
C12   C     C_R   0.595046 0.138437 0.480179 -0.156509
C13   C     C_R   0.409061 0.780054 0.486844 -0.165861
C14   C     C_R   0.591224 0.220980 0.483827 -0.150920
C15   C     C_2   0.473607 0.978485 0.440999 -0.081872
C16   C     C_2   0.529521 0.011766 0.482961 -0.105938
C17   C     C_R   0.763152 0.459522 0.466891 0.243335
C18   C     C_R   0.236768 0.541989 0.531684 0.240602
C19   C     C_R   0.847439 0.460242 0.471669 -0.227400
C20   C     C_R   0.152472 0.541701 0.526395 -0.228490
C21   C     C_R   0.885313 0.513313 0.518035 0.090146
C22   C     C_R   0.114736 0.487370 0.481177 0.089422
C23   C     C_R   0.499342 0.499419 0.633663 0.980270
C24   C     C_R   0.500708 0.499698 0.366298 0.968657
C25   C     C_R   0.836969 0.564264 0.560629 -0.291798
C26   C     C_R   0.163135 0.435085 0.439842 -0.290923
C27   C     C_R   0.752363 0.562089 0.555424 0.497111
C28   C     C_R   0.247725 0.437034 0.445331 0.497007
C29   C     C_2   0.974852 0.514462 0.524827 -0.152042
C30   C     C_2   0.025257 0.486357 0.474179 -0.152067
C31   C     C_R   0.499277 0.417045 0.738204 0.128515
C32   C     C_R   0.500272 0.568957 0.254225 0.121269
C33   C     C_R   0.494738 0.411780 0.811631 0.148478
C34   C     C_R   0.502079 0.565186 0.180314 0.144733
C35   C     C_R   0.491301 0.483000 0.853240 -0.136143
C36   C     C_R   0.503096 0.489531 0.145389 -0.138350
C37   C     C_R   0.490044 0.558090 0.822863 0.338828
C38   C     C_R   0.506195 0.418880 0.182745 0.339606
C39   C     C_R   0.492731 0.563022 0.750395 0.296465
C40   C     C_R   0.506493 0.422852 0.255645 0.301193
C41   C     C_R   0.497844 0.493047 0.708788 -0.230723
C42   C     C_R   0.502537 0.497334 0.290728 -0.226526
C43   C     C_R   0.498606 0.483590 0.069607 0.372576
C44   C     C_R   0.492621 0.480278 0.928957 0.365105
H1    H     H_    0.001052 0.461477 0.425319 0.154492
H2    H     H_    0.999277 0.539247 0.573670 0.154572
H3    H     H_    0.864739 0.605526 0.597744 0.186855
H4    H     H_    0.135413 0.393041 0.403421 0.187218
H5    H     H_    0.117217 0.585592 0.556795 0.159364
H6    H     H_    0.882505 0.417489 0.439985 0.158597
H7    H     H_    0.601539 0.731389 0.434163 0.197032
H8    H     H_    0.398082 0.251511 0.541631 0.195991
H9    H     H_    0.643222 0.252531 0.468755 0.170938
H10   H     H_    0.357734 0.755272 0.510876 0.172397
H11   H     H_    0.578399 0.976019 0.507506 0.187737
H12   H     H_    0.423833 0.014067 0.417649 0.191708
H13   H     H_    0.350031 0.895680 0.479708 0.194344
H14   H     H_    0.649700 0.106959 0.462079 0.184569
N1    N     N_R   0.560951 0.454368 0.963767 -0.132696
N2    N     N_R   0.430050 0.508872 0.034796 -0.131631
N3    N     N_R   0.563903 0.455953 0.033345 -0.112609
N4    N     N_R   0.427100 0.507286 0.965230 -0.112608
N5    N     N_R   0.716290 0.510230 0.508970 -0.137927
N6    N     N_R   0.283710 0.489770 0.491030 -0.137617
O1    O     O_R   0.422340 0.612130 0.496770 -0.648793
O2    O     O_R   0.577660 0.387870 0.503230 -0.649838
O3    O     O_R   0.561240 0.618700 0.502530 -0.569496
O4    O     O_R   0.438760 0.381300 0.497470 -0.569170
O5    O     O_R   0.430520 0.496720 0.598980 -0.640893
O6    O     O_R   0.569480 0.503280 0.401020 -0.640239
O7    O     O_R   0.569430 0.503290 0.604740 -0.555231
O8    O     O_R   0.430570 0.496710 0.395260 -0.556454
Zn1   Zn    Zn3+2 0.407250 0.495620 0.496160 1.008388
Zn2   Zn    Zn3+2 0.592750 0.504380 0.503840 1.007981
C45   C     C_3   0.505276 0.343439 0.689931 -0.838387
H15   H     H_    0.560372 0.344958 0.658134 0.231897
H16   H     H_    0.509549 0.286415 0.717277 0.256075
H17   H     H_    0.451064 0.342460 0.654232 0.232546
C46   C     C_3   0.496675 0.647613 0.295640 -0.828191
H18   H     H_    0.443365 0.650512 0.329919 0.230417
H19   H     H_    0.552670 0.651903 0.328756 0.236037
H20   H     H_    0.491128 0.700920 0.263162 0.260219
C47   C     C_3   0.729123 0.400565 0.414411 -0.776113
H21   H     H_    0.748971 0.414070 0.361165 0.230150
H22   H     H_    0.752570 0.339593 0.427110 0.211455
H23   H     H_    0.663306 0.399828 0.412079 0.295402
C48   C     C_3   0.270775 0.602615 0.582606 -0.767800
H24   H     H_    0.246889 0.594065 0.635508 0.227263
H25   H     H_    0.336559 0.599796 0.588253 0.295054
H26   H     H_    0.251479 0.663362 0.565777 0.214760
Cl1   Cl    Cl    0.305695 0.371407 0.391395 -0.497303
Cl2   Cl    Cl    0.694445 0.626697 0.610286 -0.495458
C49   C     C_3   0.491621 0.331118 0.844584 -0.765851
H27   H     H_    0.549358 0.296145 0.835769 0.249589
H28   H     H_    0.482015 0.334419 0.901801 0.250199
H29   H     H_    0.440175 0.298546 0.820966 0.246640
C50   C     C_3   0.505000 0.641109 0.139765 -0.751067
H30   H     H_    0.447804 0.677615 0.146604 0.249328
H31   H     H_    0.557283 0.675475 0.159115 0.248575
H32   H     H_    0.513285 0.630929 0.082762 0.254106
Cl3   Cl    Cl    0.487648 0.646665 0.875748 -0.468569
Cl4   Cl    Cl    0.507238 0.324851 0.138167 -0.461230
Cl5   Cl    Cl    0.489949 0.657230 0.711387 -0.473904
Cl6   Cl    Cl    0.511166 0.334102 0.303348 -0.489536
Cl7   Cl    Cl    0.372894 0.088012 0.549841 -0.590424
Cl8   Cl    Cl    0.623629 0.882546 0.381039 -0.577295

loop_
_geom_bond_atom_site_label_1
_geom_bond_atom_site_label_2
_ccdc_geom_bond_type
C38   C40   A    
C48   H24   S    
C49   H27   S    
C24   C42   S    
C23   O5    A    
C30   H1    S    
C8    Cl7   S    
C50   H30   S    
C24   O6    A    
C39   C41   A    
C43   N3    A    
C29   C30   D    
C35   C37   A    
C2    O4    A    
C33   C35   A    
C44   N1    A    
C15   C16   D    
O2    Zn2   S    
C34   C50   S    
O1    Zn1   S    
N2    N4    A    
O7    Zn2   S    
C17   C19   A    
O6    Zn2   S    
C1    O1    A    
N6    Zn1   S    
C31   C33   A    
O5    Zn1   S    
C22   C30   S    
C25   H3    S    
C18   C20   A    
C3    C13   A    
C26   H4    S    
C12   H14   S    
C40   C42   A    
C49   H28   S    
C50   H31   S    
N1    N3    A    
C23   O7    A    
C4    C6    A    
C5    C7    A    
C6    C8    A    
C44   N4    A    
O4    Zn1   S    
C21   C29   S    
C17   C47   S    
C32   C34   A    
C2    C4    S    
C45   H15   S    
C20   H5    S    
C40   Cl6   S    
C9    C11   A    
C31   C45   S    
C47   H21   S    
C47   H23   S    
C7    Cl8   S    
C27   Cl2   S    
O3    Zn2   S    
C35   C44   S    
C45   H16   S    
C10   C12   A    
C43   N2    A    
C28   N6    A    
C8    C10   A    
C47   H22   S    
C20   C22   A    
C49   H29   S    
C48   H25   S    
C3    C5    A    
C50   H32   S    
C24   O8    A    
C46   H19   S    
C13   H10   S    
C7    C9    A    
C21   C25   A    
C31   C41   A    
C19   C21   A    
C12   C14   A    
O8    Zn1   S    
C2    O2    A    
C33   C49   S    
C46   H20   S    
C39   Cl5   S    
N5    Zn2   S    
C25   C27   A    
C26   C28   A    
C18   C48   S    
C23   C41   S    
C29   H2    S    
C6    H8    S    
C15   H12   S    
C36   C38   A    
C9    C15   S    
C16   H11   S    
C37   C39   A    
C10   C16   S    
C17   N5    A    
C32   C46   S    
C37   Cl3   S    
C11   C13   A    
C19   H6    S    
C18   N6    A    
C1    O3    A    
C28   Cl1   S    
C34   C36   A    
C4    C14   A    
C45   H17   S    
C46   H18   S    
C14   H9    S    
C38   Cl4   S    
C22   C26   A    
C48   H26   S    
C32   C42   A    
C5    H7    S    
C36   C43   S    
C27   N5    A    
C1    C3    S    
C11   H13   S    
