data_mof_unit_pretest_1197.cif
_audit_creation_date              2012-12-10T16:57:43-0500
_audit_creation_method            fapswitch 2.2
_symmetry_space_group_name_H-M    P1
_symmetry_Int_Tables_number       1
_space_group_crystal_system       triclinic
_cell_length_a                    7.847156
_cell_length_b                    8.55527
_cell_length_c                    19.206
_cell_angle_alpha                 92.155834
_cell_angle_beta                  84.983176
_cell_angle_gamma                 93.728885
_cell_volume                      1281.0657694

loop_
_atom_site_label
_atom_site_type_symbol
_atom_type_description
_atom_site_fract_x
_atom_site_fract_y
_atom_site_fract_z
_atom_type_partial_charge
C1    C     C_R   0.545509 0.794404 0.498283 0.965657
C2    C     C_R   0.454491 0.205595 0.501716 0.964986
C3    C     C_2   0.569310 0.958114 0.497324 -0.381281
C4    C     C_2   0.430689 0.041887 0.502677 -0.380890
C5    C     C_R   0.501057 0.500597 0.634205 0.862156
C6    C     C_R   0.498681 0.498182 0.365793 0.862582
C7    C     C_R   0.350385 0.488177 0.752336 -0.196872
C8    C     C_R   0.646302 0.496548 0.246827 -0.197475
C9    C     C_R   0.353598 0.484603 0.824093 -0.210850
C10   C     C_R   0.640796 0.488886 0.175001 -0.209894
C11   C     C_R   0.510247 0.492446 0.854240 0.079759
C12   C     C_R   0.482948 0.475724 0.145704 0.079661
C13   C     C_R   0.666696 0.506964 0.811850 0.219466
C14   C     C_R   0.327775 0.466244 0.189043 0.219845
C15   C     C_R   0.661520 0.510110 0.739543 -0.192887
C16   C     C_R   0.335257 0.474402 0.261320 -0.193161
C17   C     C_R   0.504156 0.499947 0.709743 -0.074212
C18   C     C_R   0.493697 0.490657 0.290261 -0.074445
C19   C     C_R   0.485666 0.475084 0.070057 0.290874
C20   C     C_R   0.504497 0.488025 0.929877 0.290728
H1    H     H_    0.227601 0.479973 0.730271 0.163706
H2    H     H_    0.769836 0.508642 0.268249 0.163657
H3    H     H_    0.233094 0.473532 0.856222 0.163304
H4    H     H_    0.760351 0.496433 0.142126 0.163477
H5    H     H_    0.780624 0.521285 0.706488 0.155911
H6    H     H_    0.217007 0.467046 0.295038 0.155950
H7    H     H_    0.700293 0.009098 0.492244 0.170531
H8    H     H_    0.299706 0.990904 0.507756 0.170502
N1    N     N_R   0.613318 0.401904 0.960954 -0.165833
N2    N     N_R   0.376653 0.560850 0.038949 -0.165472
N3    N     N_R   0.604808 0.396313 0.030093 -0.173037
N4    N     N_R   0.385171 0.566460 0.969851 -0.172734
N5    N     N_2   0.950330 0.457950 0.481240 -0.001757
N6    N     N_2   0.049670 0.542050 0.518760 -0.001861
O1    O     O_R   0.389250 0.738570 0.504600 -0.611266
O2    O     O_R   0.610750 0.261430 0.495400 -0.611501
O3    O     O_R   0.678400 0.711620 0.492580 -0.641382
O4    O     O_R   0.321600 0.288380 0.507420 -0.641715
O5    O     O_R   0.355380 0.513500 0.607880 -0.615851
O6    O     O_R   0.644620 0.486500 0.392120 -0.615575
O7    O     O_R   0.644530 0.486550 0.595850 -0.632703
O8    O     O_R   0.355470 0.513450 0.404150 -0.632599
Zn1   Zn    Zn3+2 0.306930 0.517990 0.508030 0.940650
Zn2   Zn    Zn3+2 0.693070 0.482010 0.491970 0.940748
C21   C     C_3   0.838323 0.524630 0.842059 -0.914327
H9    H     H_    0.943902 0.553951 0.801407 0.226786
H10   H     H_    0.838372 0.620647 0.882601 0.253241
H11   H     H_    0.866311 0.413294 0.865284 0.256408
C22   C     C_3   0.155044 0.442613 0.159990 -0.915615
H12   H     H_    0.051100 0.416360 0.201724 0.227259
H13   H     H_    0.124503 0.550407 0.134508 0.256593
H14   H     H_    0.155024 0.342382 0.121540 0.252699
C23   C     C_3   0.004494 0.307714 0.454990 -0.509853
H15   H     H_    0.905658 0.252814 0.422423 0.177223
H16   H     H_    0.123491 0.319821 0.420071 0.208499
H17   H     H_    0.014680 0.229283 0.498982 0.187759
C24   C     C_3   0.995487 0.692263 0.545030 -0.509428
H18   H     H_    0.094355 0.747175 0.577579 0.177267
H19   H     H_    0.985239 0.770709 0.501049 0.187714
H20   H     H_    0.876528 0.680110 0.579975 0.208874

loop_
_geom_bond_atom_site_label_1
_geom_bond_atom_site_label_2
_ccdc_geom_bond_type
N6    C24   S    
C8    H2    S    
C15   C17   A    
N2    N4    A    
C11   C13   A    
C2    O4    A    
C2    C4    S    
O2    Zn2   S    
C1    O3    A    
C22   H14   S    
C19   N3    A    
C23   H17   S    
O3    Zn2   S    
C23   H16   S    
N5    N6    D    
O4    Zn1   S    
N1    N3    A    
C23   H15   S    
C5    C17   S    
C13   C21   S    
C9    C11   A    
N5    Zn2   S    
C24   H18   S    
C10   C12   A    
C12   C19   S    
C3    H7    S    
C4    H8    S    
C12   C14   A    
C14   C16   A    
C20   N1    A    
C13   C15   A    
N5    C23   S    
C6    C18   S    
O7    Zn2   S    
C6    O6    A    
C11   C20   S    
C15   H5    S    
C14   C22   S    
C24   H19   S    
O8    Zn1   S    
C3    C4    D    
C21   H9    S    
O6    Zn2   S    
O1    Zn1   S    
C1    O1    A    
C16   C18   A    
C22   H12   S    
C20   N4    A    
C21   H10   S    
C2    O2    A    
C1    C3    S    
C7    C9    A    
C5    O5    A    
C5    O7    A    
C9    H3    S    
C24   H20   S    
O5    Zn1   S    
C21   H11   S    
C10   H4    S    
C7    H1    S    
C19   N2    A    
C6    O8    A    
C8    C10   A    
C8    C18   A    
N6    Zn1   S    
C22   H13   S    
C16   H6    S    
C7    C17   A    
