data_mof_unit_pretest_1845.cif
_audit_creation_date              2013-03-05T16:32:50-0500
_audit_creation_method            fapswitch 2.2
_symmetry_space_group_name_H-M    P1
_symmetry_Int_Tables_number       1
_space_group_crystal_system       triclinic
_cell_length_a                    32.098062
_cell_length_b                    32.100279
_cell_length_c                    35.552106
_cell_angle_alpha                 89.708328
_cell_angle_beta                  89.801277
_cell_angle_gamma                 89.993169
_cell_volume                      36630.6570778

loop_
_atom_site_label
_atom_site_type_symbol
_atom_site_description
_atom_site_fract_x
_atom_site_fract_y
_atom_site_fract_z
_atom_type_partial_charge
O1    O     O_R   0.939070 0.534350 0.999910 -0.603874
O2    O     O_R   0.534350 0.060930 0.999910 -0.604208
O3    O     O_R   0.060930 0.465650 0.999910 -0.604948
O4    O     O_R   0.465650 0.939070 0.999910 -0.604733
O5    O     O_R   0.939070 0.465650 0.000090 -0.603926
O6    O     O_R   0.534350 0.939070 0.000090 -0.604270
O7    O     O_R   0.060930 0.534350 0.000090 -0.604919
O8    O     O_R   0.465650 0.060930 0.000090 -0.604639
O9    O     O_R   0.439070 0.034350 0.499910 -0.603885
O10   O     O_R   0.034350 0.560930 0.499910 -0.604207
O11   O     O_R   0.560930 0.965650 0.499910 -0.605005
O12   O     O_R   0.965650 0.439070 0.499910 -0.604580
O13   O     O_R   0.439070 0.965650 0.500090 -0.603924
O14   O     O_R   0.034350 0.439070 0.500090 -0.604221
O15   O     O_R   0.560930 0.034350 0.500090 -0.604820
O16   O     O_R   0.965650 0.560930 0.500090 -0.604686
C1    C     C_R   0.919346 0.500001 0.000080 0.905840
C2    C     C_R   0.499998 0.080656 0.999922 0.904956
C3    C     C_R   0.080653 0.499998 0.999921 0.904040
C4    C     C_R   0.500002 0.919356 0.000003 0.905146
C5    C     C_R   0.419346 0.000001 0.500079 0.905828
C6    C     C_R   0.999998 0.580652 0.500073 0.904988
C7    C     C_R   0.580653 0.999996 0.499919 0.904035
C8    C     C_R   0.000004 0.419345 0.500079 0.904944
O17   O     O_R   0.000060 0.534350 0.944480 -0.616839
O18   O     O_R   0.534350 0.999940 0.944480 -0.616666
O19   O     O_R   0.999940 0.465650 0.944480 -0.615695
O20   O     O_R   0.465650 0.000060 0.944480 -0.615889
O21   O     O_R   0.000060 0.465650 0.055520 -0.616728
O22   O     O_R   0.534350 0.000060 0.055520 -0.616447
O23   O     O_R   0.999940 0.534350 0.055520 -0.615618
O24   O     O_R   0.465650 0.999940 0.055520 -0.615948
O25   O     O_R   0.500060 0.034350 0.444480 -0.616741
O26   O     O_R   0.034350 0.499940 0.444480 -0.616576
O27   O     O_R   0.499940 0.965650 0.444480 -0.615633
O28   O     O_R   0.965650 0.500060 0.444480 -0.615732
O29   O     O_R   0.500060 0.965650 0.555520 -0.616808
O30   O     O_R   0.034350 0.500060 0.555520 -0.616536
O31   O     O_R   0.499940 0.034350 0.555520 -0.615708
O32   O     O_R   0.965650 0.499940 0.555520 -0.616097
C9    C     C_R   0.000065 0.500127 0.926421 0.918943
C10   C     C_R   0.500095 0.999900 0.926418 0.918852
C11   C     C_R   0.000094 0.499873 0.073581 0.919040
C12   C     C_R   0.499962 0.000100 0.073580 0.919226
C13   C     C_R   0.500065 0.000127 0.426421 0.919125
C14   C     C_R   0.000095 0.499901 0.426418 0.919279
C15   C     C_R   0.500094 0.999873 0.573581 0.918859
C16   C     C_R   0.999962 0.500099 0.573580 0.918804
Zn1   Zn    Zn3+2 0.000000 0.545900 0.000000 1.053489
Zn2   Zn    Zn3+2 0.545900 0.000000 0.000000 1.053867
Zn3   Zn    Zn3+2 0.000000 0.454100 0.000000 1.053468
Zn4   Zn    Zn3+2 0.454100 0.000000 0.000000 1.053052
Zn5   Zn    Zn3+2 0.500000 0.045900 0.500000 1.053549
Zn6   Zn    Zn3+2 0.045900 0.500000 0.500000 1.053855
Zn7   Zn    Zn3+2 0.500000 0.954100 0.500000 1.053389
Zn8   Zn    Zn3+2 0.954100 0.500000 0.500000 1.053084
C17   C     C_R   0.962408 0.506090 0.673960 0.297653
C18   C     C_R   0.506119 0.036560 0.673934 0.297644
C19   C     C_R   0.038963 0.504276 0.673155 0.306064
C20   C     C_R   0.503854 0.960030 0.673235 0.306063
C21   C     C_R   0.963241 0.493762 0.326074 0.297678
C22   C     C_R   0.505404 0.963456 0.326003 0.297888
C23   C     C_R   0.039780 0.495890 0.326789 0.306046
C24   C     C_R   0.502918 0.039982 0.326734 0.306145
C25   C     C_R   0.462407 0.006081 0.173960 0.297660
C26   C     C_R   0.006105 0.536563 0.173934 0.297565
C27   C     C_R   0.538962 0.004290 0.173154 0.306003
C28   C     C_R   0.003869 0.460032 0.173235 0.306040
C29   C     C_R   0.463238 0.993779 0.826073 0.297676
C30   C     C_R   0.005393 0.463454 0.826004 0.297808
C31   C     C_R   0.539779 0.995866 0.826789 0.306047
C32   C     C_R   0.002929 0.539980 0.826734 0.306228
C33   C     C_R   0.962542 0.503518 0.634736 -0.217601
C34   C     C_R   0.503621 0.036750 0.634706 -0.217534
C35   C     C_R   0.038009 0.501732 0.634022 -0.220067
C36   C     C_R   0.501410 0.961307 0.634084 -0.220457
C37   C     C_R   0.963112 0.496338 0.365295 -0.217435
C38   C     C_R   0.503255 0.963259 0.365261 -0.217149
C39   C     C_R   0.038565 0.498420 0.365930 -0.220175
C40   C     C_R   0.500833 0.038697 0.365914 -0.220124
C41   C     C_R   0.462541 0.003509 0.134736 -0.217438
C42   C     C_R   0.003607 0.536752 0.134706 -0.217217
C43   C     C_R   0.538009 0.001746 0.134022 -0.220106
C44   C     C_R   0.001424 0.461308 0.134084 -0.220127
C45   C     C_R   0.463111 0.996356 0.865295 -0.217615
C46   C     C_R   0.003244 0.463258 0.865261 -0.217498
C47   C     C_R   0.538565 0.998397 0.865931 -0.220112
C48   C     C_R   0.000843 0.538697 0.865913 -0.220463
H1    H     H_    0.933203 0.503788 0.619776 0.212289
H2    H     H_    0.504092 0.066207 0.619714 0.212311
H3    H     H_    0.067131 0.500575 0.618578 0.212708
H4    H     H_    0.500112 0.932321 0.618667 0.212568
H5    H     H_    0.933676 0.495947 0.380281 0.212281
H6    H     H_    0.503933 0.933804 0.380245 0.212322
H7    H     H_    0.067579 0.499694 0.381350 0.212613
H8    H     H_    0.499573 0.067680 0.381347 0.212606
H9    H     H_    0.433202 0.003769 0.119776 0.212298
H10   H     H_    0.004067 0.566209 0.119714 0.212356
H11   H     H_    0.567131 0.000598 0.118577 0.212670
H12   H     H_    0.000138 0.432321 0.118667 0.212621
H13   H     H_    0.433674 0.995981 0.880280 0.212264
H14   H     H_    0.003914 0.433803 0.880245 0.212284
H15   H     H_    0.567580 0.999654 0.881350 0.212673
H16   H     H_    0.999591 0.567680 0.881347 0.212564
C49   C     C_R   0.000091 0.501423 0.614717 -0.161710
C50   C     C_R   0.501357 0.999378 0.614727 -0.161789
C51   C     C_R   0.000521 0.498579 0.385277 -0.161903
C52   C     C_R   0.501071 0.000627 0.385267 -0.161831
C53   C     C_R   0.500091 0.001425 0.114717 -0.161836
C54   C     C_R   0.001358 0.499378 0.114727 -0.161802
C55   C     C_R   0.500521 0.998577 0.885277 -0.161756
C56   C     C_R   0.001071 0.500626 0.885267 -0.161817
C57   C     C_R   0.000906 0.505963 0.693150 -0.130808
C58   C     C_R   0.505723 0.997921 0.693183 -0.130940
C59   C     C_R   0.001855 0.494049 0.306835 -0.130795
C60   C     C_R   0.504727 0.002095 0.306763 -0.131069
C61   C     C_R   0.500904 0.005966 0.193150 -0.130706
C62   C     C_R   0.005723 0.497923 0.193184 -0.130867
C63   C     C_R   0.501853 0.994046 0.806835 -0.130882
C64   C     C_R   0.004727 0.502093 0.806763 -0.131150
C65   C     C_1   0.001515 0.504202 0.733192 0.206545
C66   C     C_1   0.503919 0.997071 0.733228 0.206143
C67   C     C_1   0.002661 0.495813 0.266787 0.206305
C68   C     C_1   0.502763 0.002945 0.266741 0.206032
C69   C     C_1   0.501514 0.004204 0.233192 0.206566
C70   C     C_1   0.003920 0.497073 0.233228 0.206205
C71   C     C_1   0.502660 0.995811 0.766787 0.206260
C72   C     C_1   0.002763 0.502943 0.766741 0.205962
H17   H     H_    0.789353 0.433423 0.005121 0.201858
H18   H     H_    0.433360 0.210681 0.003722 0.201691
H19   H     H_    0.210664 0.566588 0.003563 0.201626
H20   H     H_    0.566605 0.789391 0.995872 0.201404
H21   H     H_    0.789307 0.566064 0.991347 0.201810
H22   H     H_    0.433395 0.789353 0.003414 0.201273
H23   H     H_    0.210675 0.433227 0.000061 0.201748
H24   H     H_    0.566759 0.210661 0.000104 0.201869
H25   H     H_    0.289351 0.933429 0.505113 0.202018
H26   H     H_    0.933246 0.710647 0.502074 0.201603
H27   H     H_    0.710685 0.065403 0.511295 0.201463
H28   H     H_    0.066376 0.289323 0.506791 0.202093
H29   H     H_    0.289308 0.066061 0.491262 0.201870
H30   H     H_    0.934395 0.289339 0.489389 0.201606
H31   H     H_    0.710652 0.933756 0.492221 0.201650
H32   H     H_    0.066518 0.710717 0.495471 0.201774
C73   C     C_R   0.728497 0.461404 0.000574 0.276145
C74   C     C_R   0.461799 0.271515 0.004601 0.276024
C75   C     C_R   0.271513 0.538148 0.004441 0.276848
C76   C     C_R   0.538297 0.728513 0.997662 0.278319
C77   C     C_R   0.728472 0.537611 0.992664 0.276817
C78   C     C_R   0.461703 0.728495 0.001432 0.277865
C79   C     C_R   0.271519 0.461527 0.002432 0.276202
C80   C     C_R   0.538441 0.271505 0.002523 0.276384
C81   C     C_R   0.228496 0.961408 0.500543 0.276461
C82   C     C_R   0.961491 0.771523 0.499207 0.276411
C83   C     C_R   0.771520 0.037044 0.508847 0.279409
C84   C     C_R   0.038617 0.228487 0.501440 0.276691
C85   C     C_R   0.228471 0.037610 0.492592 0.276427
C86   C     C_R   0.962791 0.228499 0.491451 0.279364
C87   C     C_R   0.771507 0.961408 0.497893 0.275972
C88   C     C_R   0.038061 0.771561 0.495415 0.276155
C89   C     C_R   0.706620 0.499459 0.996337 -0.114990
C90   C     C_R   0.500132 0.293375 0.003845 -0.114670
C91   C     C_R   0.293381 0.499824 0.003715 -0.114679
C92   C     C_R   0.500000 0.706626 0.999535 -0.119386
C93   C     C_R   0.206619 0.999461 0.496292 -0.114668
C94   C     C_R   0.999754 0.793410 0.497056 -0.115070
C95   C     C_R   0.793379 0.999156 0.503651 -0.115040
C96   C     C_R   0.000767 0.206628 0.496166 -0.114762
C97   C     C_R   0.772008 0.537212 0.994205 -0.199675
C98   C     C_R   0.537777 0.227972 0.001035 -0.199169
C99   C     C_R   0.227982 0.462200 0.000958 -0.198853
C100  C     C_R   0.462355 0.772051 0.001915 -0.199384
C101  C     C_R   0.772034 0.462220 0.001992 -0.199375
C102  C     C_R   0.537644 0.772076 0.997309 -0.198983
C103  C     C_R   0.227976 0.537600 0.002938 -0.199699
C104  C     C_R   0.462357 0.227983 0.003080 -0.199349
C105  C     C_R   0.272008 0.037212 0.494137 -0.199401
C106  C     C_R   0.037545 0.728010 0.496822 -0.198911
C107  C     C_R   0.727969 0.962323 0.496503 -0.199116
C108  C     C_R   0.963113 0.272030 0.493027 -0.200333
C109  C     C_R   0.272033 0.962224 0.501966 -0.198683
C110  C     C_R   0.037732 0.272020 0.502864 -0.198161
C111  C     C_R   0.727985 0.036753 0.507285 -0.200118
C112  C     C_R   0.962196 0.727971 0.500554 -0.199525
C113  C     C_R   0.793459 0.499817 0.998809 0.030690
C114  C     C_R   0.500042 0.206540 0.001327 0.030637
C115  C     C_R   0.206540 0.499931 0.001230 0.030669
C116  C     C_R   0.500001 0.793506 0.999664 0.030751
C117  C     C_R   0.293459 0.999820 0.498768 0.030289
C118  C     C_R   0.999915 0.706545 0.499320 0.030739
C119  C     C_R   0.706539 0.999689 0.501184 0.030843
C120  C     C_R   0.000285 0.293462 0.498676 0.030202
C121  C     C_1   0.662080 0.499681 0.998307 0.141736
C122  C     C_1   0.500078 0.337918 0.001835 0.140609
C123  C     C_1   0.337920 0.499894 0.001719 0.140685
C124  C     C_1   0.500001 0.662062 0.999606 0.144780
C125  C     C_1   0.162080 0.999683 0.498283 0.140401
C126  C     C_1   0.999852 0.837933 0.498938 0.140789
C127  C     C_1   0.837920 0.999495 0.501689 0.142864
C128  C     C_1   0.000457 0.162084 0.498167 0.142161
C129  C     C_1   0.837853 0.499934 0.999524 0.033993
C130  C     C_1   0.500011 0.162148 0.000562 0.033721
C131  C     C_1   0.162146 0.499966 0.000500 0.033474
C132  C     C_1   0.500006 0.837891 0.999794 0.033516
C133  C     C_1   0.337853 0.999937 0.499498 0.033983
C134  C     C_1   0.999963 0.662145 0.499834 0.033659
C135  C     C_1   0.662145 0.999869 0.500471 0.033694
C136  C     C_1   0.000120 0.337854 0.499440 0.034040
C137  C     C_1   0.875133 0.499991 0.999881 -0.138668
C138  C     C_1   0.499998 0.124870 0.000162 -0.139094
C139  C     C_1   0.124867 0.499987 0.000131 -0.139445
C140  C     C_1   0.500007 0.875161 0.999902 -0.138949
C141  C     C_1   0.375133 0.999992 0.499868 -0.138640
C142  C     C_1   0.999988 0.624864 0.500026 -0.139080
C143  C     C_1   0.624866 0.999965 0.500116 -0.139441
C144  C     C_1   0.000032 0.375132 0.499839 -0.139060
C145  C     C_1   0.624804 0.499853 0.999490 -0.042034
C146  C     C_1   0.500036 0.375194 0.000604 -0.042758
C147  C     C_1   0.375196 0.499950 0.000518 -0.042845
C148  C     C_1   0.499999 0.624777 0.999720 -0.040015
C149  C     C_1   0.124805 0.999854 0.499482 -0.042987
C150  C     C_1   0.999930 0.875201 0.499951 -0.042047
C151  C     C_1   0.875195 0.999763 0.500510 -0.041857
C152  C     C_1   0.000214 0.124808 0.499395 -0.042948
O33   O     O_R   0.500090 0.438950 0.968600 -0.608733
O34   O     O_R   0.438950 0.499910 0.968600 -0.609039
O35   O     O_R   0.499910 0.561050 0.968600 -0.601464
O36   O     O_R   0.561050 0.500090 0.968600 -0.596247
O37   O     O_R   0.500090 0.561050 0.031400 -0.602227
O38   O     O_R   0.438950 0.500090 0.031400 -0.593962
O39   O     O_R   0.499910 0.438950 0.031400 -0.594305
O40   O     O_R   0.561050 0.499910 0.031400 -0.606500
O41   O     O_R   0.000090 0.938950 0.468600 -0.594348
O42   O     O_R   0.938950 0.999910 0.468600 -0.605227
O43   O     O_R   0.999910 0.061050 0.468600 -0.594557
O44   O     O_R   0.061050 0.000090 0.468600 -0.592640
O45   O     O_R   0.000090 0.061050 0.531400 -0.607511
O46   O     O_R   0.938950 0.000090 0.531400 -0.596831
O47   O     O_R   0.999910 0.938950 0.531400 -0.608702
O48   O     O_R   0.061050 0.999910 0.531400 -0.610205
C153  C     C_R   0.500000 0.419388 0.000112 0.899169
C154  C     C_R   0.419389 0.499999 0.000084 0.899085
C155  C     C_R   0.499999 0.580602 0.999913 0.898665
C156  C     C_R   0.580612 0.499997 0.999916 0.899304
C157  C     C_R   0.999998 0.919390 0.500062 0.899371
C158  C     C_R   0.919388 0.999991 0.500083 0.898275
C159  C     C_R   0.000007 0.080613 0.499888 0.897729
C160  C     C_R   0.080612 0.999997 0.499915 0.898699
Zn9   Zn    Zn3+2 0.500000 0.500000 0.958130 1.090098
Zn10  Zn    Zn3+2 0.500000 0.500000 0.041870 1.100521
Zn11  Zn    Zn3+2 0.000000 0.000000 0.458130 1.106518
Zn12  Zn    Zn3+2 1.000000 0.000000 0.541870 1.086014
N1    N     N_R   0.923134 0.508565 0.693647 0.224744
O49   O     O_R   0.889655 0.492887 0.678782 -0.324357
O50   O     O_R   0.919582 0.530166 0.724368 -0.335420
N2    N     N_R   0.508796 0.075665 0.693568 0.224428
O51   O     O_R   0.493240 0.109329 0.678654 -0.324870
O52   O     O_R   0.530497 0.078880 0.724268 -0.336127
N3    N     N_R   0.078681 0.504807 0.691976 0.229768
O53   O     O_R   0.110786 0.486538 0.676854 -0.320730
O54   O     O_R   0.084239 0.527289 0.721897 -0.309550
N4    N     N_R   0.504108 0.920166 0.692116 0.229926
O55   O     O_R   0.485780 0.888265 0.676933 -0.320587
O56   O     O_R   0.526374 0.914276 0.722196 -0.308934
N5    N     N_R   0.924100 0.491118 0.306435 0.224593
O57   O     O_R   0.890477 0.506736 0.321304 -0.324418
O58   O     O_R   0.920811 0.469400 0.275780 -0.335422
N6    N     N_R   0.508029 0.924357 0.306337 0.224676
O59   O     O_R   0.492656 0.890661 0.321441 -0.324096
O60   O     O_R   0.529526 0.921183 0.275381 -0.335931
N7    N     N_R   0.079619 0.495526 0.307920 0.230054
O61   O     O_R   0.111575 0.513836 0.323049 -0.320033
O62   O     O_R   0.085427 0.473175 0.277921 -0.308592
N8    N     N_R   0.502881 0.079848 0.307855 0.230044
O63   O     O_R   0.484546 0.111680 0.323270 -0.320025
O64   O     O_R   0.524910 0.085827 0.277509 -0.308503
N9    N     N_R   0.423132 0.008544 0.193648 0.224869
O65   O     O_R   0.389658 0.992856 0.178782 -0.323611
O66   O     O_R   0.419574 0.030144 0.224368 -0.334943
N10   N     N_R   0.008767 0.575669 0.193568 0.224587
O67   O     O_R   0.993196 0.609326 0.178654 -0.324096
O68   O     O_R   0.030467 0.578892 0.224268 -0.335511
N11   N     N_R   0.578680 0.004833 0.191975 0.229871
O69   O     O_R   0.610791 0.986575 0.176853 -0.320408
O70   O     O_R   0.584231 0.027317 0.221897 -0.308933
N12   N     N_R   0.004138 0.420168 0.192117 0.230088
O71   O     O_R   0.985824 0.388259 0.176933 -0.319753
O72   O     O_R   0.026407 0.414287 0.222197 -0.308506
N13   N     N_R   0.424097 0.991158 0.806434 0.224433
O73   O     O_R   0.390482 0.006794 0.821302 -0.325027
O74   O     O_R   0.420796 0.969441 0.775779 -0.336073
N14   N     N_R   0.008008 0.424354 0.806337 0.224510
O75   O     O_R   0.992625 0.390663 0.821441 -0.324758
O76   O     O_R   0.029504 0.421173 0.775382 -0.336334
N15   N     N_R   0.579618 0.995478 0.807921 0.230005
O77   O     O_R   0.611585 0.013770 0.823050 -0.320354
O78   O     O_R   0.585414 0.973125 0.777921 -0.308899
N16   N     N_R   0.002904 0.579847 0.807854 0.229884
O79   O     O_R   0.984578 0.611684 0.823269 -0.320755
O80   O     O_R   0.024934 0.585819 0.777509 -0.309175
N17   N     N_R   0.707256 0.421946 0.003692 0.231722
O81   O     O_R   0.672967 0.415107 0.985304 -0.329583
O82   O     O_R   0.724548 0.391075 0.021663 -0.309390
N18   N     N_R   0.422280 0.292771 0.006654 0.230409
O83   O     O_R   0.418299 0.327015 0.025768 -0.326127
O84   O     O_R   0.388999 0.275530 0.992870 -0.310736
N19   N     N_R   0.292763 0.577650 0.006452 0.231768
O85   O     O_R   0.327052 0.581471 0.025548 -0.329987
O86   O     O_R   0.275476 0.611044 0.992649 -0.309361
N20   N     N_R   0.577880 0.707324 0.996058 0.232471
O87   O     O_R   0.583903 0.672778 0.014562 -0.337208
O88   O     O_R   0.609574 0.724972 0.979519 -0.307445
N21   N     N_R   0.707206 0.576808 0.987619 0.231908
O89   O     O_R   0.672932 0.579017 0.968268 -0.331974
O90   O     O_R   0.724466 0.611248 0.998831 -0.308308
N22   N     N_R   0.422123 0.707286 0.002968 0.232348
O91   O     O_R   0.416132 0.672985 0.984405 -0.334708
O92   O     O_R   0.390406 0.724713 0.019508 -0.308403
N23   N     N_R   0.292776 0.421947 0.002374 0.230009
O93   O     O_R   0.327054 0.416679 0.021249 -0.325437
O94   O     O_R   0.275505 0.389669 0.986835 -0.312056
N24   N     N_R   0.578026 0.292749 0.002429 0.231731
O95   O     O_R   0.583132 0.327004 0.021279 -0.328359
O96   O     O_R   0.610440 0.275489 0.986877 -0.309722
N25   N     N_R   0.207254 0.921952 0.503666 0.229634
O97   O     O_R   0.172986 0.915101 0.485250 -0.325010
O98   O     O_R   0.224532 0.891091 0.521664 -0.313142
N26   N     N_R   0.921913 0.792760 0.500244 0.231478
O99   O     O_R   0.916253 0.827241 0.481544 -0.327438
O100  O     O_R   0.889959 0.775301 0.516533 -0.310695
N27   N     N_R   0.792780 0.075880 0.515463 0.231464
O101  O     O_R   0.827027 0.076906 0.534917 -0.339752
O102  O     O_R   0.775532 0.110961 0.505622 -0.308999
N28   N     N_R   0.077925 0.207230 0.505605 0.229471
O103  O     O_R   0.085550 0.173000 0.487376 -0.325461
O104  O     O_R   0.108012 0.224462 0.524416 -0.314664
N29   N     N_R   0.207205 0.076803 0.487517 0.231170
O105  O     O_R   0.172918 0.078990 0.468183 -0.328105
O106  O     O_R   0.224475 0.111258 0.498683 -0.308988
N30   N     N_R   0.923838 0.207255 0.485312 0.231474
O107  O     O_R   0.922484 0.173029 0.465898 -0.338482
O108  O     O_R   0.888923 0.224499 0.495558 -0.309490
N31   N     N_R   0.792753 0.922181 0.493204 0.231679
O109  O     O_R   0.827049 0.914239 0.511289 -0.327733
O110  O     O_R   0.775463 0.892430 0.474028 -0.310725
N32   N     N_R   0.077519 0.792838 0.492540 0.230860
O111  O     O_R   0.081007 0.827309 0.473367 -0.327584
O112  O     O_R   0.111151 0.775421 0.505599 -0.309153

loop_
_geom_bond_atom_site_label_1
_geom_bond_atom_site_label_2
_geom_bond_distance
_ccdc_geom_bond_type
N24   O96   1.301582 A    
O25   C13   1.275241 A    
N29   O105  1.301301 A    
C7    C143  1.419187 S    
N17   O81   1.301309 A    
O39   C153  1.280141 A    
O18   Zn2   2.009640 S    
N7    O61   1.301576 A    
C114  C130  1.425404 S    
C38   C52   1.399256 A    
N8    O63   1.301576 A    
C146  C153  1.418646 S    
C86   C108  1.398788 A    
O24   Zn4   2.009618 S    
C124  C148  1.196832 T    
C118  C134  1.425265 S    
C78   C100  1.398510 A    
C83   C95   1.416609 A    
C9    C56   1.463348 S    
C74   C104  1.398824 A    
C21   C59   1.413585 A    
C18   N2    1.442129 S    
C11   C54   1.463517 S    
C88   C94   1.416650 A    
H26   C112  1.084046 S    
C13   C52   1.463348 S    
C23   C59   1.412456 A    
C134  C142  1.196722 T    
C42   H10   1.083149 S    
H17   C101  1.084044 S    
C110  C120  1.393083 A    
C151  C158  1.418561 S    
C78   N22   1.442190 S    
N20   O88   1.301612 A    
C59   C67   1.424770 S    
C44   H12   1.083177 S    
N30   O107  1.301299 A    
C65   C72   1.194027 T    
C27   N11   1.442009 S    
O17   C9    1.275241 A    
C67   C70   1.194123 T    
C29   C63   1.413583 A    
C88   N32   1.442088 S    
N22   O91   1.301248 A    
C30   N14   1.442125 S    
C94   C126  1.431115 S    
C26   C42   1.397211 A    
C80   C98   1.398839 A    
C152  C159  1.418713 S    
C16   C49   1.463383 S    
O36   C156  1.280092 A    
C19   C57   1.412390 A    
C132  C140  1.196422 T    
O13   C5    1.271428 A    
C31   N15   1.442028 S    
C88   C106  1.398744 A    
C47   H15   1.083179 S    
C73   N17   1.442090 S    
H32   C106  1.084050 S    
O26   Zn6   2.009640 S    
O7    C3    1.271485 A    
H29   C105  1.084044 S    
C87   N31   1.442090 S    
N16   O79   1.301576 A    
O27   C13   1.276652 A    
O31   C15   1.276689 A    
O36   Zn9   1.995900 S    
O32   C16   1.276777 A    
C2    C138  1.419342 S    
N3    O54   1.301306 A    
C17   C57   1.413591 A    
C31   C63   1.412458 A    
C34   H2    1.083151 S    
N14   O76   1.301352 A    
N12   O72   1.301309 A    
O41   C157  1.279912 A    
C73   C89   1.416600 A    
C38   H6    1.083152 S    
O11   C7    1.271423 A    
C87   C95   1.416590 A    
C4    C140  1.418688 S    
C81   N25   1.442071 S    
O4    C4    1.271276 A    
C107  C119  1.393073 A    
O5    Zn3   1.990522 S    
O34   Zn9   1.993361 S    
N23   O94   1.301614 A    
C27   C43   1.394487 A    
O44   C160  1.280066 A    
C20   C58   1.412466 A    
O9    C5    1.271484 A    
C123  C147  1.197084 T    
N15   O78   1.301309 A    
C121  C145  1.197078 T    
C101  C113  1.393046 A    
O23   C11   1.276687 A    
C77   C97   1.398750 A    
C125  C149  1.197084 T    
N1    O49   1.301584 A    
C150  C157  1.418497 S    
C83   C111  1.398706 A    
N21   O90   1.301604 A    
H25   C109  1.084046 S    
C84   C96   1.416581 A    
C79   C99   1.398787 A    
O45   C159  1.281538 A    
O14   C8    1.271409 A    
C66   C71   1.194124 T    
N25   O98   1.301639 A    
C23   N7    1.442027 S    
O2    Zn2   1.990640 S    
C28   C62   1.412469 A    
C33   C49   1.399360 A    
H30   C108  1.084049 S    
C30   C64   1.413593 A    
N2    O52   1.301362 A    
O28   C14   1.276670 A    
O26   C14   1.275210 A    
H31   C107  1.084044 S    
O29   C15   1.275297 A    
O8    Zn4   1.990759 S    
O30   C16   1.275036 A    
C35   H3    1.083182 S    
O35   Zn9   1.996620 S    
N18   O84   1.301587 A    
H22   C100  1.084070 S    
N9    O65   1.301586 A    
C14   C51   1.463521 S    
C131  C139  1.196727 T    
C129  C137  1.196722 T    
C48   H16   1.083180 S    
O19   Zn3   2.006523 S    
O17   Zn1   2.010220 S    
C148  C155  1.418034 S    
C76   C92   1.417133 A    
C20   N4    1.442030 S    
N10   O67   1.301582 A    
C85   C93   1.416639 A    
C84   C110  1.398863 A    
N28   O103  1.301312 A    
C119  C135  1.425269 S    
C116  C132  1.424792 S    
H28   C110  1.084044 S    
O16   Zn8   1.990759 S    
O38   C154  1.280094 A    
N32   O112  1.301595 A    
C32   C64   1.412467 A    
N13   O73   1.301580 A    
C89   C121  1.431135 S    
H20   C102  1.084075 S    
O6    Zn2   1.990726 S    
O3    C3    1.271474 A    
N5    O58   1.301363 A    
H24   C98   1.084041 S    
N31   O110  1.301609 A    
C5    C141  1.419217 S    
C46   H14   1.083154 S    
C29   C45   1.397259 A    
C18   C34   1.397212 A    
O21   Zn3   2.010229 S    
C36   C50   1.399475 A    
C81   C93   1.416587 A    
O47   Zn12  1.996627 S    
C22   C38   1.397141 A    
N26   O99   1.301309 A    
O42   Zn11  1.993361 S    
C92   C124  1.430487 S    
C85   N29   1.442105 S    
N4    O55   1.301570 A    
C78   C92   1.417102 A    
O12   C8    1.271502 A    
O1    C1    1.271487 A    
C6    C142  1.419194 S    
C145  C156  1.418532 S    
C75   C91   1.416624 A    
C47   C55   1.399466 A    
C8    C144  1.419325 S    
N8    O64   1.301293 A    
C17   N1    1.442158 S    
C103  C115  1.393011 A    
O29   Zn7   2.010229 S    
C57   C65   1.424596 S    
N11   O69   1.301568 A    
C18   C58   1.413583 A    
C95   C127  1.431169 S    
C61   C69   1.424601 S    
C63   C71   1.424771 S    
C24   C60   1.412467 A    
C19   N3    1.442011 S    
C86   C96   1.416631 A    
O10   C6    1.271413 A    
C74   C90   1.416620 A    
O18   C10   1.275215 A    
C3    C139  1.419204 S    
O15   Zn5   1.990534 S    
N30   O108  1.301600 A    
C1    C137  1.419200 S    
C106  C118  1.392981 A    
C75   C103  1.398777 A    
O5    C1    1.271425 A    
O33   C153  1.281504 A    
C115  C131  1.425284 S    
N22   O92   1.301615 A    
C113  C129  1.425276 S    
H21   C97   1.084045 S    
C45   H13   1.083148 S    
C109  C117  1.393053 A    
C117  C133  1.425297 S    
O32   Zn8   2.009618 S    
O33   Zn9   1.992904 S    
O45   Zn12  1.992897 S    
H23   C99   1.084044 S    
C82   N26   1.442095 S    
C79   N23   1.442083 S    
C81   C109  1.398788 A    
C12   C53   1.463384 S    
N24   O95   1.301315 A    
O22   Zn2   2.007109 S    
C133  C141  1.196726 T    
C43   H11   1.083183 S    
O21   C11   1.275300 A    
C24   C40   1.394700 A    
O22   C12   1.275037 A    
N16   O80   1.301296 A    
O23   Zn1   2.006506 S    
N29   O106  1.301620 A    
N17   O82   1.301612 A    
N19   O85   1.301305 A    
C28   C44   1.394793 A    
N15   O77   1.301572 A    
O3    Zn3   1.990599 S    
C24   N8    1.442032 S    
O8    C2    1.271459 A    
N27   O101  1.301297 A    
C39   H7    1.083178 S    
O28   Zn8   2.007094 S    
C93   C125  1.431137 S    
C84   N28   1.442047 S    
C25   C41   1.397378 A    
O30   Zn6   2.007109 S    
C91   C123  1.431143 S    
C15   C50   1.463517 S    
C98   C114  1.393039 A    
C135  C143  1.196713 T    
C39   C51   1.399468 A    
C27   C61   1.412391 A    
C28   N12   1.442030 S    
C41   C53   1.399362 A    
O48   Zn12  1.993362 S    
C25   N9    1.442157 S    
C127  C151  1.197094 T    
O11   Zn7   1.990599 S    
O41   Zn11  1.992904 S    
C40   C52   1.399448 A    
N20   O87   1.301242 A    
O16   C6    1.271400 A    
C96   C128  1.431310 S    
O40   C156  1.281484 A    
C87   C107  1.398842 A    
C45   C55   1.399322 A    
C32   N16   1.442032 S    
C64   C72   1.424597 S    
C77   N21   1.442079 S    
C149  C160  1.418553 S    
O6    C4    1.271291 A    
C147  C154  1.418541 S    
O47   C157  1.281654 A    
C33   H1    1.083146 S    
O42   C158  1.281501 A    
O35   C155  1.280762 A    
N21   O89   1.301304 A    
O31   Zn5   2.006506 S    
H19   C103  1.084045 S    
C20   C36   1.394794 A    
N25   O97   1.301307 A    
C76   C102  1.398513 A    
O34   C154  1.281528 A    
N23   O93   1.301306 A    
C48   C56   1.399448 A    
N6    O59   1.301586 A    
O48   C160  1.281520 A    
C82   C94   1.416641 A    
C80   C90   1.416616 A    
O13   Zn7   1.990522 S    
N31   O109  1.301309 A    
O2    C2    1.271439 A    
O43   Zn11  1.996620 S    
C122  C146  1.197152 T    
C23   C39   1.394749 A    
O4    Zn4   1.990672 S    
C42   C54   1.399302 A    
N14   O75   1.301584 A    
C126  C150  1.197071 T    
N10   O68   1.301362 A    
C86   N30   1.442053 S    
N12   O71   1.301573 A    
O37   C155  1.280591 A    
N28   O104  1.301622 A    
C17   C33   1.397378 A    
C75   N19   1.442095 S    
C102  C116  1.392775 A    
C77   C89   1.416629 A    
C60   C68   1.424601 S    
C82   C112  1.398785 A    
C43   C53   1.399397 A    
C26   N10   1.442127 S    
C80   N24   1.442094 S    
C40   H8    1.083185 S    
N5    O57   1.301582 A    
O37   Zn10  1.992897 S    
C22   N6    1.442128 S    
O15   C7    1.271530 A    
C136  C144  1.196793 T    
C120  C136  1.425396 S    
O46   C158  1.280133 A    
C130  C138  1.196807 T    
O43   C159  1.280167 A    
C32   C48   1.394703 A    
O25   Zn5   2.010220 S    
C105  C117  1.393014 A    
O27   Zn7   2.006523 S    
C128  C152  1.197176 T    
C37   C51   1.399322 A    
O7    Zn1   1.990534 S    
N26   O100  1.301595 A    
C108  C120  1.392998 A    
C21   C37   1.397259 A    
N1    O50   1.301357 A    
N4    O56   1.301311 A    
H18   C104  1.084043 S    
C44   C54   1.399475 A    
N19   O86   1.301608 A    
C46   C56   1.399258 A    
C10   C55   1.463523 S    
C22   C60   1.413592 A    
C34   C50   1.399301 A    
O19   C9    1.276652 A    
N2    O51   1.301580 A    
C90   C122  1.431271 S    
O24   C12   1.276773 A    
C85   C105  1.398773 A    
N27   O102  1.301597 A    
C21   N5    1.442133 S    
O12   Zn8   1.990672 S    
C36   H4    1.083177 S    
C83   N27   1.442037 S    
N18   O83   1.301314 A    
O14   Zn6   1.990726 S    
C73   C101  1.398803 A    
C79   C91   1.416601 A    
N9    O66   1.301356 A    
C31   C47   1.394751 A    
O40   Zn10  1.993362 S    
O44   Zn11  1.995900 S    
N3    O53   1.301568 A    
C30   C46   1.397137 A    
C19   C35   1.394486 A    
H27   C111  1.084049 S    
C37   H5    1.083149 S    
C76   N20   1.442187 S    
N7    O62   1.301306 A    
C112  C118  1.393018 A    
C25   C61   1.413591 A    
N6    O60   1.301349 A    
C111  C119  1.392948 A    
C104  C114  1.393025 A    
C99   C115  1.393030 A    
C97   C113  1.392982 A    
O20   Zn4   2.007094 S    
N32   O111  1.301302 A    
C41   H9    1.083145 S    
C100  C116  1.392775 A    
O20   C10   1.276669 A    
N13   O74   1.301363 A    
C29   N13   1.442133 S    
O10   Zn6   1.990640 S    
O46   Zn12  1.995896 S    
C58   C66   1.424768 S    
O9    Zn5   1.990630 S    
C26   C62   1.413581 A    
C68   C69   1.194024 T    
C62   C70   1.424769 S    
C35   C49   1.399395 A    
O38   Zn10  1.995896 S    
O39   Zn10  1.996627 S    
O1    Zn1   1.990630 S    
C74   N18   1.442083 S    
N11   O70   1.301308 A    
