data_mof_unit_pretest_438.cif
_audit_creation_date              2012-12-10T17:12:34-0500
_audit_creation_method            fapswitch 2.2
_symmetry_space_group_name_H-M    P1
_symmetry_Int_Tables_number       1
_space_group_crystal_system       triclinic
_cell_length_a                    23.447256
_cell_length_b                    10.729718
_cell_length_c                    10.004521
_cell_angle_alpha                 90.253692
_cell_angle_beta                  90.238549
_cell_angle_gamma                 90.10595
_cell_volume                      2516.91097476

loop_
_atom_site_label
_atom_site_type_symbol
_atom_type_description
_atom_site_fract_x
_atom_site_fract_y
_atom_site_fract_z
_atom_type_partial_charge
C1    C     C_R   0.498961 0.262599 0.499577 0.934760
C2    C     C_R   0.121872 0.608395 0.538417 0.679705
C3    C     C_R   0.233982 0.530244 0.393194 0.309966
C4    C     C_R   0.389261 0.503750 0.499708 0.999229
C5    C     C_R   0.293594 0.551862 0.392358 0.313387
C6    C     C_R   0.326723 0.505713 0.500620 -0.284477
C7    C     C_R   0.299855 0.458824 0.614666 -0.282646
C8    C     C_R   0.241197 0.456580 0.623653 0.436623
C9    C     C_R   0.208104 0.490118 0.512997 0.019182
C10   C     C_R   0.766181 0.458484 0.401701 0.375950
C11   C     C_R   0.706456 0.443223 0.396064 0.269981
C12   C     C_R   0.968263 0.280378 0.551616 -0.079122
C13   C     C_R   0.673228 0.493496 0.502168 -0.252816
C14   C     C_R   0.700204 0.545020 0.615119 -0.194060
C15   C     C_R   0.758884 0.548816 0.624263 -0.113730
C16   C     C_R   0.501887 0.737362 0.500192 0.977839
C17   C     C_R   0.791838 0.506721 0.518178 0.134776
C18   C     C_2   0.504059 0.932685 0.386984 -0.143768
C19   C     C_2   0.508611 0.868763 0.500683 -0.278043
C20   C     C_2   0.506992 0.066740 0.387894 -0.112274
C21   C     C_2   0.494773 0.130868 0.498662 -0.305810
C22   C     C_2   0.530417 0.576892 0.926302 0.431153
C23   C     C_R   0.027224 0.277473 0.547073 -0.081140
C24   C     C_2   0.526139 0.583646 0.076010 -0.101048
C25   C     C_R   0.610727 0.496000 0.500069 0.947225
C26   C     C_R   0.880662 0.619580 0.530826 0.631498
C27   C     C_R   0.880127 0.397366 0.545033 0.599134
C28   C     C_R   0.939390 0.394535 0.548297 -0.010693
C29   C     C_R   0.970103 0.508041 0.545335 -0.053923
C30   C     C_R   0.940783 0.623162 0.541655 -0.189547
C31   C     C_R   0.058434 0.388742 0.541618 -0.027991
C32   C     C_R   0.030156 0.505178 0.544162 -0.060524
C33   C     C_R   0.061832 0.617520 0.543695 -0.196851
C34   C     C_R   0.032493 0.733306 0.547606 0.377672
C35   C     C_R   0.972464 0.736044 0.546634 0.370747
C36   C     C_R   0.117549 0.385950 0.530900 0.679929
Cl1   Cl    Cl    0.577834 0.681833 0.851058 -0.563762
Cl2   Cl    Cl    0.068842 0.878743 0.551300 -0.378048
Cl3   Cl    Cl    0.938936 0.884190 0.555889 -0.411735
Cl4   Cl    Cl    0.209964 0.412228 0.776141 -0.441279
Cl5   Cl    Cl    0.810292 0.424530 0.263278 -0.434345
H1    H     H_    0.945378 0.192629 0.554490 0.237723
H2    H     H_    0.048212 0.187600 0.546699 0.237947
H3    H     H_    0.484218 0.423675 0.101276 0.173840
H4    H     H_    0.324536 0.426293 0.699388 0.227467
H5    H     H_    0.636794 0.216945 0.394660 0.344736
H6    H     H_    0.110758 0.472398 0.175445 0.398451
H7    H     H_    0.394724 0.783761 0.266038 0.377046
H8    H     H_    0.675842 0.582545 0.697602 0.242844
H9    H     H_    0.779009 0.585906 0.713651 0.198959
H10   H     H_    0.497976 0.886745 0.290940 0.178825
H11   H     H_    0.518733 0.911732 0.596166 0.173279
H12   H     H_    0.518279 0.112767 0.295112 0.211007
H13   H     H_    0.480286 0.087940 0.590345 0.163881
H14   H     H_    0.470238 0.447065 0.897285 0.139430
H15   H     H_    0.547337 0.660451 0.126813 0.189206
N1    N     N_R   0.852423 0.508147 0.531929 -0.346652
N2    N     N_R   0.147563 0.494605 0.527096 -0.328954
N3    N     N_2   0.500610 0.501330 0.852150 -0.212083
N4    N     N_2   0.500630 0.501360 0.147810 -0.183825
O1    O     O_R   0.499990 0.319060 0.613040 -0.621199
O2    O     O_R   0.583840 0.500020 0.613040 -0.586768
O3    O     O_R   0.583850 0.500060 0.386900 -0.545353
O4    O     O_2   0.850167 0.724963 0.516026 -0.439910
O5    O     O_2   0.653016 0.440623 0.158522 -0.225083
O6    O     O_2   0.716710 0.265255 0.201518 -0.177424
O7    O     O_3   0.620140 0.268330 0.322390 -0.544195
O8    O     O_2   0.167245 0.676705 0.242148 -0.202360
O9    O     O_2   0.225894 0.523415 0.122980 -0.156892
O10   O     O_3   0.136843 0.444382 0.247362 -0.543910
O11   O     O_2   0.349245 0.573295 0.159085 -0.262436
O12   O     O_2   0.850071 0.290132 0.552657 -0.484279
O13   O     O_2   0.282298 0.741035 0.213564 -0.168366
O14   O     O_3   0.377737 0.736273 0.340686 -0.562771
O15   O     O_2   0.145083 0.275808 0.522024 -0.458344
O16   O     O_2   0.155027 0.711027 0.543805 -0.423804
O17   O     O_R   0.500010 0.319100 0.386900 -0.590273
O18   O     O_R   0.416150 0.499940 0.613100 -0.628985
O19   O     O_R   0.416160 0.499980 0.386960 -0.554668
O20   O     O_R   0.499990 0.680900 0.613100 -0.571581
O21   O     O_R   0.500010 0.680940 0.386960 -0.625873
S1    S     S_3+6 0.674831 0.353550 0.264182 0.111118
S2    S     S_3+6 0.191167 0.546891 0.246449 0.134567
S3    S     S_3+6 0.325130 0.651516 0.270270 0.116448
Zn1   Zn    Zn3+2 0.499990 0.499970 0.650990 1.035828
Zn2   Zn    Zn3+2 0.500010 0.500030 0.349010 1.062262

loop_
_geom_bond_atom_site_label_1
_geom_bond_atom_site_label_2
_ccdc_geom_bond_type
C1    C21   S    
H14   N3    S    
C1    O17   A    
C7    C8    A    
C12   C23   A    
C29   C30   A    
C30   C35   A    
C12   C28   A    
C3    C9    A    
C7    H4    S    
C28   C29   A    
C34   C35   A    
C29   C32   A    
C36   N2    A    
C21   H13   S    
C14   H8    S    
C10   C17   A    
C23   H2    S    
C9    N2    S    
C25   O3    A    
C15   H9    S    
C26   O4    S    
C12   H1    S    
C19   H11   S    
C8    C9    A    
O13   S3    D    
O21   Zn2   S    
C13   C14   A    
C10   Cl5   S    
C13   C25   S    
C18   H10   S    
C11   S1    S    
O2    Zn1   S    
H7    O14   S    
C4    O19   A    
C4    C6    S    
C27   N1    A    
C22   N3    D    
C5    S3    S    
N4    Zn2   S    
C18   C19   D    
C22   Cl1   S    
C16   O20   A    
C23   C31   A    
C35   Cl3   S    
N3    Zn1   S    
H6    O10   S    
C4    O18   A    
O20   Zn1   S    
O9    S2    D    
C36   O15   S    
O6    S1    D    
C31   C32   A    
C14   C15   A    
C24   N4    D    
C33   C34   A    
O10   S2    S    
O1    Zn1   S    
C2    C33   A    
O17   Zn2   S    
C26   C30   A    
O3    Zn2   S    
C3    S2    S    
C22   C24   S    
C2    O16   S    
O18   Zn1   S    
O11   S3    D    
C15   C17   A    
C34   Cl2   S    
O8    S2    D    
O14   S3    S    
C20   H12   S    
C3    C5    A    
C1    O1    A    
C2    N2    A    
C6    C7    A    
C24   H15   S    
C32   C33   A    
H5    O7    S    
C11   C13   A    
O5    S1    D    
C5    C6    A    
H3    N4    S    
C16   C19   S    
C16   O21   A    
C18   C20   S    
C25   O2    A    
C26   N1    A    
C10   C11   A    
C20   C21   D    
O7    S1    S    
C27   C28   A    
C31   C36   A    
C8    Cl4   S    
O19   Zn2   S    
C27   O12   S    
C17   N1    S    
