data_mof_unit_pretest_1587.cif
_audit_creation_date              2013-03-05T16:39:53-0500
_audit_creation_method            fapswitch 2.2
_symmetry_space_group_name_H-M    P1
_symmetry_Int_Tables_number       1
_space_group_crystal_system       triclinic
_cell_length_a                    27.399642
_cell_length_b                    27.201072
_cell_length_c                    18.745495
_cell_angle_alpha                 90.338792
_cell_angle_beta                  90.158355
_cell_angle_gamma                 90.067761
_cell_volume                      13970.7029359

loop_
_atom_site_label
_atom_site_type_symbol
_atom_site_description
_atom_site_fract_x
_atom_site_fract_y
_atom_site_fract_z
_atom_type_partial_charge
O1    O     O_R   0.050900 0.449080 0.560840 -0.562916
O2    O     O_R   0.949100 0.550920 0.439160 -0.567091
O3    O     O_R   0.949100 0.550920 0.560840 -0.568764
O4    O     O_R   0.050900 0.449080 0.439160 -0.567748
O5    O     O_R   0.949100 0.449080 0.439160 -0.568678
O6    O     O_R   0.050900 0.550920 0.560840 -0.567837
O7    O     O_R   0.050900 0.550920 0.439160 -0.563172
O8    O     O_R   0.949100 0.449080 0.560840 -0.567840
O9    O     O_R   0.550900 0.949080 0.560840 -0.563347
O10   O     O_R   0.449100 0.050920 0.439160 -0.567140
O11   O     O_R   0.449100 0.050920 0.560840 -0.568907
O12   O     O_R   0.550900 0.949080 0.439160 -0.568085
O13   O     O_R   0.449100 0.949080 0.439160 -0.568047
O14   O     O_R   0.550900 0.050920 0.560840 -0.567772
O15   O     O_R   0.550900 0.050920 0.439160 -0.563077
O16   O     O_R   0.449100 0.949080 0.560840 -0.568141
C1    C     C_R   0.067226 0.433429 0.499771 0.974006
C2    C     C_R   0.932937 0.566700 0.499946 0.973581
C3    C     C_R   0.933078 0.433109 0.499902 0.974787
C4    C     C_R   0.067430 0.566405 0.500402 0.972046
C5    C     C_R   0.567259 0.933476 0.499753 0.973436
C6    C     C_R   0.432926 0.066677 0.499935 0.973371
C7    C     C_R   0.433114 0.933057 0.499889 0.974622
C8    C     C_R   0.567422 0.066424 0.500395 0.972053
Zn1   Zn    Zn3+2 1.000000 0.500000 0.581210 1.155692
Zn2   Zn    Zn3+2 1.000000 0.500000 0.418790 1.155772
Zn3   Zn    Zn3+2 0.500000 0.000000 0.581210 1.155375
Zn4   Zn    Zn3+2 0.500000 0.000000 0.418790 1.155963
C9    C     C_R   0.023876 0.536081 0.728702 0.483669
C10   C     C_R   0.024099 0.464207 0.271300 0.484002
C11   C     C_R   0.976163 0.463860 0.727849 0.482234
C12   C     C_R   0.976012 0.536052 0.272092 0.481257
C13   C     C_R   0.523735 0.036168 0.728707 0.483427
C14   C     C_R   0.524068 0.964179 0.271321 0.484486
C15   C     C_R   0.476326 0.963744 0.727816 0.481861
C16   C     C_R   0.476026 0.036055 0.272088 0.481496
C17   C     C_R   0.026909 0.534157 0.803530 -0.169017
C18   C     C_R   0.027052 0.466283 0.196508 -0.169589
C19   C     C_R   0.972576 0.466079 0.802597 -0.170953
C20   C     C_R   0.972351 0.533912 0.197303 -0.170575
C21   C     C_R   0.526758 0.034250 0.803535 -0.169178
C22   C     C_R   0.527049 0.966260 0.196531 -0.169521
C23   C     C_R   0.472699 0.965944 0.802562 -0.170835
C24   C     C_R   0.472361 0.033902 0.197302 -0.170513
H1    H     H_    0.049624 0.560657 0.831337 0.236627
H2    H     H_    0.049932 0.440047 0.168751 0.236615
H3    H     H_    0.949858 0.439522 0.829643 0.236564
H4    H     H_    0.949514 0.560370 0.170198 0.236715
H5    H     H_    0.549380 0.060827 0.831347 0.236721
H6    H     H_    0.549928 0.940013 0.168795 0.236584
H7    H     H_    0.450087 0.939282 0.829577 0.236718
H8    H     H_    0.449511 0.060348 0.170197 0.236673
C25   C     C_R   0.104139 0.644997 0.462789 0.256835
C26   C     C_R   0.855338 0.397231 0.544319 0.297590
C27   C     C_R   0.907566 0.350125 0.462464 0.253174
C28   C     C_R   0.148696 0.592461 0.546781 0.302178
C29   C     C_R   0.904353 0.648587 0.537512 0.253459
C30   C     C_R   0.147345 0.404364 0.453698 0.302705
C31   C     C_R   0.101034 0.353816 0.538131 0.257137
C32   C     C_R   0.854133 0.599655 0.454658 0.297586
C33   C     C_R   0.604401 0.144776 0.462143 0.257160
C34   C     C_R   0.355847 0.896777 0.545229 0.298349
C35   C     C_R   0.407224 0.850313 0.461464 0.253433
C36   C     C_R   0.648516 0.092671 0.547199 0.302687
C37   C     C_R   0.404400 0.148711 0.536730 0.253462
C38   C     C_R   0.647577 0.904727 0.454013 0.302351
C39   C     C_R   0.600987 0.853754 0.537524 0.256689
C40   C     C_R   0.353814 0.099170 0.455141 0.296802
C41   C     C_R   0.141095 0.679762 0.468385 -0.076954
C42   C     C_R   0.823221 0.357600 0.545621 -0.107587
C43   C     C_R   0.876783 0.309962 0.469457 -0.062840
C44   C     C_R   0.186713 0.626277 0.546878 -0.099458
C45   C     C_R   0.871816 0.687297 0.530798 -0.067635
C46   C     C_R   0.183598 0.368688 0.453063 -0.102606
C47   C     C_R   0.136129 0.317332 0.532014 -0.072435
C48   C     C_R   0.820347 0.637744 0.453490 -0.104193
C49   C     C_R   0.641381 0.179519 0.467666 -0.077350
C50   C     C_R   0.323792 0.857114 0.546733 -0.107389
C51   C     C_R   0.376580 0.810056 0.468671 -0.063423
C52   C     C_R   0.686545 0.126475 0.547349 -0.099253
C53   C     C_R   0.371692 0.187275 0.530038 -0.067649
C54   C     C_R   0.683936 0.869160 0.453502 -0.102704
C55   C     C_R   0.636201 0.817378 0.531540 -0.072526
C56   C     C_R   0.319895 0.137140 0.453997 -0.103943
H9    H     H_    0.137868 0.714093 0.439701 0.202738
H10   H     H_    0.789485 0.360616 0.575349 0.205525
H11   H     H_    0.885308 0.275961 0.441772 0.204205
H12   H     H_    0.219472 0.618708 0.577404 0.205024
H13   H     H_    0.878878 0.721518 0.558913 0.203648
H14   H     H_    0.216503 0.374716 0.422370 0.205182
H15   H     H_    0.131589 0.283250 0.560933 0.203162
H16   H     H_    0.786816 0.633370 0.423307 0.205391
H17   H     H_    0.638352 0.213672 0.438495 0.202641
H18   H     H_    0.290357 0.859938 0.577226 0.205337
H19   H     H_    0.384802 0.776257 0.440273 0.204444
H20   H     H_    0.719138 0.119068 0.578339 0.204904
H21   H     H_    0.378839 0.221674 0.557636 0.203554
H22   H     H_    0.716957 0.875387 0.423164 0.205195
H23   H     H_    0.631553 0.783159 0.560083 0.202898
H24   H     H_    0.286208 0.132514 0.424273 0.205437
C57   C     C_R   0.182947 0.669752 0.508363 0.074953
C58   C     C_R   0.833908 0.314179 0.508816 0.073378
C59   C     C_R   0.829141 0.681331 0.490990 0.074366
C60   C     C_R   0.177991 0.325366 0.491525 0.074421
C61   C     C_R   0.683011 0.169718 0.508245 0.075075
C62   C     C_R   0.334114 0.813964 0.509044 0.073355
C63   C     C_R   0.328783 0.180951 0.490890 0.074405
C64   C     C_R   0.678262 0.825679 0.491579 0.074612
N1    N     N_R   0.000000 0.500000 0.689440 -0.183253
N2    N     N_R   0.000000 0.500000 0.310560 -0.183320
N3    N     N_R   0.500000 0.000000 0.689440 -0.183607
N4    N     N_R   0.500000 0.000000 0.310560 -0.183085
C65   C     C_R   0.001957 0.455610 0.962067 0.312746
C66   C     C_R   0.001644 0.544716 0.037934 0.313042
C67   C     C_R   0.996995 0.544712 0.962831 0.312561
C68   C     C_R   0.997170 0.455576 0.037102 0.312227
C69   C     C_R   0.502038 0.955591 0.962067 0.312682
C70   C     C_R   0.501564 0.044694 0.037925 0.312997
C71   C     C_R   0.496866 0.044678 0.962830 0.312511
C72   C     C_R   0.497240 0.955549 0.037101 0.312255
C73   C     C_R   0.999609 0.500185 0.842290 0.075829
C74   C     C_R   0.999513 0.500061 0.157678 0.075781
C75   C     C_R   0.499580 0.000165 0.842280 0.075613
C76   C     C_R   0.499524 0.000044 0.157684 0.075890
C77   C     C_R   0.107670 0.601049 0.502077 -0.236085
C78   C     C_R   0.897249 0.393948 0.500302 -0.241786
C79   C     C_R   0.895861 0.604560 0.499140 -0.242737
C80   C     C_R   0.106244 0.397522 0.498589 -0.233996
C81   C     C_R   0.607684 0.101061 0.502038 -0.235996
C82   C     C_R   0.397305 0.893854 0.500262 -0.241720
C83   C     C_R   0.395770 0.104437 0.499069 -0.242706
C84   C     C_R   0.606321 0.897636 0.498497 -0.234123
C85   C     C_R   0.242145 0.722383 0.574454 0.195026
C86   C     C_R   0.780147 0.255851 0.443411 0.198147
C87   C     C_R   0.780659 0.256179 0.574394 0.195330
C88   C     C_R   0.243567 0.720075 0.443526 0.199082
C89   C     C_R   0.774185 0.737890 0.425462 0.195529
C90   C     C_R   0.237251 0.273311 0.556390 0.198486
C91   C     C_R   0.234594 0.270409 0.425483 0.195547
C92   C     C_R   0.773340 0.737157 0.556437 0.198534
C93   C     C_R   0.741739 0.222864 0.574339 0.195202
C94   C     C_R   0.279729 0.756285 0.443522 0.197997
C95   C     C_R   0.281171 0.755579 0.574481 0.195278
C96   C     C_R   0.744047 0.219573 0.443475 0.198959
C97   C     C_R   0.273415 0.237074 0.425326 0.195604
C98   C     C_R   0.737287 0.773378 0.556511 0.198608
C99   C     C_R   0.735315 0.771169 0.425563 0.195360
C100  C     C_R   0.273266 0.237052 0.556323 0.198611
C101  C     C_R   0.798492 0.273998 0.508894 -0.191221
C102  C     C_R   0.223523 0.704621 0.508896 -0.191486
C103  C     C_R   0.217023 0.288890 0.491053 -0.192056
C104  C     C_R   0.792195 0.719967 0.490921 -0.191915
C105  C     C_R   0.298605 0.773855 0.509020 -0.190941
C106  C     C_R   0.723589 0.204581 0.508802 -0.191683
C107  C     C_R   0.717368 0.789274 0.491136 -0.191913
C108  C     C_R   0.291765 0.219506 0.490789 -0.192088
C109  C     C_R   0.999388 0.500132 0.076771 -0.166498
C110  C     C_R   0.999507 0.500170 0.923196 -0.166501
C111  C     C_R   0.499394 0.000109 0.076773 -0.166393
C112  C     C_R   0.499476 0.000144 0.923189 -0.166260
Cl1   Cl    Cl    0.049671 0.589091 0.691854 -0.387141
Cl2   Cl    Cl    0.050509 0.411438 0.307972 -0.386595
Cl3   Cl    Cl    0.952058 0.409897 0.690240 -0.392560
Cl4   Cl    Cl    0.952026 0.589950 0.309675 -0.392697
Cl5   Cl    Cl    0.549411 0.089227 0.691830 -0.386505
Cl6   Cl    Cl    0.550331 0.911343 0.308026 -0.386891
Cl7   Cl    Cl    0.452569 0.909648 0.690139 -0.391810
Cl8   Cl    Cl    0.452030 0.089949 0.309676 -0.393094
N5    N     N_R   0.062651 0.655574 0.418872 0.220954
O17   O     O_R   0.057744 0.633038 0.357896 -0.260299
O18   O     O_R   0.037447 0.695255 0.430838 -0.269104
N6    N     N_R   0.844699 0.439574 0.588322 0.246445
O19   O     O_R   0.855951 0.483755 0.568055 -0.331875
O20   O     O_R   0.819934 0.434347 0.646952 -0.267627
N7    N     N_R   0.949526 0.345564 0.417570 0.219047
O21   O     O_R   0.949184 0.366547 0.355425 -0.260097
O22   O     O_R   0.981227 0.311079 0.429965 -0.280375
N8    N     N_R   0.152521 0.550588 0.593147 0.244723
O23   O     O_R   0.140275 0.506883 0.571278 -0.345339
O24   O     O_R   0.173943 0.555165 0.654899 -0.265706
N9    N     N_R   0.946301 0.654927 0.582357 0.219849
O25   O     O_R   0.947347 0.633553 0.644210 -0.260502
O26   O     O_R   0.976398 0.690905 0.570177 -0.274581
N10   N     N_R   0.153096 0.446413 0.407994 0.246124
O27   O     O_R   0.141170 0.490267 0.429449 -0.344162
O28   O     O_R   0.175463 0.441664 0.347177 -0.265901
N11   N     N_R   0.059910 0.345450 0.583495 0.221532
O29   O     O_R   0.057474 0.368394 0.644437 -0.259526
O30   O     O_R   0.032827 0.306738 0.573198 -0.272157
N12   N     N_R   0.845359 0.557185 0.409981 0.245672
O31   O     O_R   0.857063 0.513263 0.430814 -0.333405
O32   O     O_R   0.821491 0.561899 0.350276 -0.268160
N13   N     N_R   0.563157 0.155144 0.417629 0.221554
O33   O     O_R   0.558566 0.132283 0.356854 -0.260633
O34   O     O_R   0.537982 0.194957 0.428775 -0.268162
N14   N     N_R   0.345588 0.938854 0.589913 0.246084
O35   O     O_R   0.355704 0.983226 0.569230 -0.330671
O36   O     O_R   0.322078 0.933169 0.649555 -0.267685
N15   N     N_R   0.448556 0.846143 0.415253 0.220588
O37   O     O_R   0.447497 0.867975 0.353740 -0.260623
O38   O     O_R   0.480123 0.811206 0.425599 -0.277942
N16   N     N_R   0.652146 0.050969 0.593907 0.244620
O39   O     O_R   0.640355 0.007133 0.572041 -0.344812
O40   O     O_R   0.673059 0.055837 0.655987 -0.266037
N17   N     N_R   0.446685 0.155453 0.580759 0.219062
O41   O     O_R   0.448306 0.134461 0.642858 -0.260138
O42   O     O_R   0.476602 0.191405 0.567543 -0.275030
N18   N     N_R   0.653339 0.946874 0.408518 0.245910
O43   O     O_R   0.641191 0.990646 0.430048 -0.344977
O44   O     O_R   0.675851 0.942295 0.347790 -0.265583
N19   N     N_R   0.559535 0.845086 0.582087 0.220477
O45   O     O_R   0.556953 0.867088 0.643734 -0.258227
O46   O     O_R   0.531926 0.807005 0.569905 -0.274506
N20   N     N_R   0.344967 0.056481 0.410936 0.245578
O47   O     O_R   0.357139 0.012715 0.431878 -0.334214
O48   O     O_R   0.320675 0.060832 0.351537 -0.267934
N21   N     N_R   0.221234 0.707072 0.640976 0.242894
O49   O     O_R   0.248544 0.687243 0.689856 -0.241143
O50   O     O_R   0.174816 0.712865 0.652810 -0.267320
N22   N     N_R   0.797461 0.274811 0.376715 0.238937
O51   O     O_R   0.816508 0.245384 0.329449 -0.241770
O52   O     O_R   0.792924 0.321315 0.362267 -0.283514
N23   N     N_R   0.801242 0.272957 0.640911 0.245084
O53   O     O_R   0.773293 0.291141 0.690475 -0.239815
O54   O     O_R   0.848219 0.271734 0.651090 -0.264040
N24   N     N_R   0.226639 0.699575 0.377014 0.241248
O55   O     O_R   0.210623 0.728131 0.326678 -0.241327
O56   O     O_R   0.226622 0.652198 0.366975 -0.281877
N25   N     N_R   0.794824 0.721652 0.358920 0.244489
O57   O     O_R   0.766988 0.703136 0.309199 -0.240337
O58   O     O_R   0.841701 0.724149 0.348584 -0.265523
N26   N     N_R   0.221025 0.294068 0.622928 0.240725
O59   O     O_R   0.204614 0.265757 0.673198 -0.241278
O60   O     O_R   0.222540 0.341386 0.633345 -0.282155
N27   N     N_R   0.213147 0.285575 0.359083 0.243784
O61   O     O_R   0.240245 0.304298 0.309206 -0.240469
O62   O     O_R   0.166366 0.281232 0.348639 -0.265739
N28   N     N_R   0.790466 0.717597 0.623012 0.239719
O63   O     O_R   0.808621 0.746703 0.671642 -0.241721
O64   O     O_R   0.787229 0.670714 0.635593 -0.283663
N29   N     N_R   0.720447 0.207964 0.640800 0.242940
O65   O     O_R   0.747504 0.188569 0.690347 -0.241094
O66   O     O_R   0.673948 0.213745 0.651945 -0.267352
N30   N     N_R   0.296551 0.775780 0.376885 0.238764
O67   O     O_R   0.315235 0.746733 0.328819 -0.241721
O68   O     O_R   0.291919 0.822403 0.363309 -0.283362
N31   N     N_R   0.302261 0.771775 0.640957 0.245048
O69   O     O_R   0.274716 0.789664 0.691225 -0.239868
O70   O     O_R   0.349304 0.770340 0.650411 -0.263761
N32   N     N_R   0.727580 0.198547 0.377059 0.241401
O71   O     O_R   0.711927 0.226700 0.326005 -0.241315
O72   O     O_R   0.727587 0.151096 0.367832 -0.281781
N33   N     N_R   0.293679 0.220448 0.358736 0.244441
O73   O     O_R   0.265564 0.201654 0.309577 -0.240423
O74   O     O_R   0.340493 0.222908 0.347790 -0.265721
N34   N     N_R   0.720690 0.793759 0.623095 0.240745
O75   O     O_R   0.704056 0.765156 0.672860 -0.241297
O76   O     O_R   0.722079 0.841024 0.634053 -0.282156
N35   N     N_R   0.714177 0.786632 0.359102 0.243688
O77   O     O_R   0.741485 0.805709 0.309754 -0.240568
O78   O     O_R   0.667465 0.782200 0.348075 -0.265905
N36   N     N_R   0.290742 0.217843 0.622926 0.239828
O79   O     O_R   0.309134 0.247204 0.671040 -0.241729
O80   O     O_R   0.287624 0.171022 0.636032 -0.283793
Cl9   Cl    Cl    0.014614 0.398980 0.918837 -0.360790
Cl10  Cl    Cl    0.013876 0.601447 0.081324 -0.361684
Cl11  Cl    Cl    0.984576 0.601363 0.920391 -0.362650
Cl12  Cl    Cl    0.984946 0.398827 0.079384 -0.361975
Cl13  Cl    Cl    0.514868 0.898991 0.918864 -0.360955
Cl14  Cl    Cl    0.513763 0.101446 0.081276 -0.361693
Cl15  Cl    Cl    0.484252 0.101298 0.920421 -0.362888
Cl16  Cl    Cl    0.485071 0.898781 0.079361 -0.361675

loop_
_geom_bond_atom_site_label_1
_geom_bond_atom_site_label_2
_geom_bond_distance
_ccdc_geom_bond_type
C53   C63   1.394146 A    
C39   C55   1.387129 A    
N12   O31   1.299412 A    
N18   O44   1.301639 A    
C23   C75   1.396575 A    
C6    C83   1.447145 S    
O2    C2    1.294692 A    
C14   N4    1.386023 A    
N5    O17   1.300388 A    
C34   C82   1.418412 A    
C36   N16   1.440407 S    
C39   C84   1.411340 A    
C14   C22   1.406042 A    
C34   N14   1.442672 S    
C25   C41   1.387991 A    
N22   O52   1.301202 A    
C66   C67   1.413223 A    
C22   C76   1.396463 A    
N7    O22   1.300679 A    
C35   C51   1.386546 A    
N17   O41   1.300283 A    
N30   O67   1.301251 A    
C30   C80   1.420421 A    
C26   C78   1.418476 A    
O10   C6    1.294395 A    
C10   C18   1.406037 A    
O7    Zn2   1.998876 S    
N16   O40   1.301706 A    
O12   Zn4   2.004286 S    
C99   N35   1.437804 S    
N23   O54   1.301183 A    
C60   C103  1.459694 S    
C9    N1    1.385703 A    
N6    O19   1.299551 A    
C50   H18   1.083698 S    
C5    C84   1.448710 S    
C66   Cl10  1.771322 S    
C93   N29   1.437421 S    
N33   O73   1.301367 A    
N10   O28   1.301647 A    
N20   O48   1.301710 A    
N8    O24   1.301672 A    
C95   C105  1.411029 A    
O6    Zn1   2.003473 S    
C37   N17   1.431637 S    
C44   C57   1.392969 A    
C29   C45   1.386559 A    
C87   N23   1.438701 S    
C76   C111  1.516732 S    
C34   C50   1.390858 A    
C57   C102  1.460495 S    
C16   Cl8   1.752268 S    
C56   C63   1.395108 A    
N10   O27   1.299024 A    
O13   C7    1.298429 A    
O3    C2    1.298769 A    
C30   N10   1.441855 S    
N29   O65   1.301354 A    
C35   C82   1.413235 A    
O14   C8    1.294096 A    
C12   N2    1.385971 A    
C70   C71   1.413202 A    
N30   O68   1.301229 A    
C88   C94   1.396260 A    
C37   C83   1.411734 A    
C23   H7    1.082251 S    
C36   C52   1.388875 A    
C97   C108  1.411076 A    
C8    C81   1.450018 S    
C48   H16   1.083714 S    
C98   C107  1.410590 A    
N23   O53   1.301434 A    
C90   C100  1.395981 A    
C71   C112  1.419373 A    
N13   O34   1.300816 A    
N34   O76   1.301266 A    
C16   N4    1.385902 A    
C72   C111  1.419353 A    
C15   Cl7   1.752337 S    
N27   O61   1.301297 A    
O13   Zn4   2.003477 S    
C39   N19   1.431892 S    
C13   N3    1.385598 A    
C54   C64   1.393794 A    
O14   Zn3   2.003473 S    
C52   H20   1.083750 S    
C15   C23   1.405873 A    
C92   C104  1.411084 A    
C63   C108  1.459845 S    
C52   C61   1.392964 A    
O9    Zn3   2.002633 S    
Zn1   N1    2.028823 S    
C29   N9    1.431751 S    
C65   C68   1.413039 A    
C24   H8    1.082234 S    
O16   Zn3   1.998880 S    
N17   O42   1.300684 A    
C61   C106  1.460430 S    
Zn3   N3    2.028823 S    
N15   O37   1.300398 A    
C94   C105  1.411491 A    
C55   H23   1.083902 S    
C69   C112  1.419534 A    
O1    Zn1   2.002633 S    
O8    Zn1   1.998880 S    
N27   O62   1.301253 A    
C97   N33   1.438306 S    
C70   C111  1.419563 A    
C31   C47   1.387152 A    
C21   H5    1.082290 S    
N22   O51   1.301249 A    
C44   H12   1.083723 S    
C67   Cl11  1.771311 S    
C4    C77   1.449698 S    
N8    O23   1.298623 A    
C38   C84   1.420182 A    
O7    C4    1.300560 A    
N31   O70   1.301256 A    
C68   Cl12  1.771409 S    
N28   O64   1.301236 A    
O4    Zn2   2.004286 S    
C85   C95   1.398725 A    
O8    C3    1.295081 A    
C18   H2    1.082358 S    
N16   O39   1.298730 A    
C54   H22   1.083664 S    
C67   C110  1.419348 A    
C40   C56   1.390446 A    
C26   N6    1.443207 S    
O3    Zn1   2.004286 S    
C88   C102  1.410379 A    
C89   N25   1.438325 S    
N9    O26   1.300655 A    
C92   C98   1.396024 A    
N33   O74   1.301259 A    
N20   O47   1.299360 A    
N18   O43   1.298989 A    
C91   C103  1.411325 A    
N36   O80   1.301243 A    
C28   C44   1.388825 A    
N32   O71   1.301337 A    
N9    O25   1.300398 A    
C86   C101  1.411361 A    
O12   C5    1.294041 A    
C24   C76   1.396512 A    
C85   N21   1.437430 S    
C7    C82   1.448264 S    
N29   O66   1.301192 A    
C56   H24   1.083665 S    
C40   C83   1.418846 A    
C66   C109  1.419540 A    
C51   H19   1.083870 S    
N25   O57   1.301408 A    
C41   H9    1.083915 S    
C9    Cl1   1.751522 S    
C2    C79   1.447520 S    
C38   C54   1.389509 A    
C38   N18   1.441688 S    
C37   C53   1.386509 A    
N19   O45   1.300380 A    
C26   C42   1.391149 A    
C27   C78   1.412741 A    
O11   Zn3   2.004286 S    
C62   C105  1.460940 S    
N34   O75   1.301304 A    
C31   C80   1.412021 A    
C92   N28   1.437325 S    
C11   N1    1.385915 A    
C89   C104  1.411085 A    
C28   C77   1.420602 A    
C15   N3    1.385762 A    
C31   N11   1.432317 S    
C27   N7    1.431727 S    
C55   C64   1.395146 A    
C18   C74   1.396370 A    
C25   C77   1.411086 A    
C59   C104  1.460046 S    
C22   H6    1.082327 S    
C43   H11   1.083849 S    
O4    C1    1.294454 A    
C19   H3    1.082281 S    
C96   N32   1.438256 S    
O15   C8    1.300528 A    
N19   O46   1.300668 A    
C43   C58   1.393460 A    
C10   N2    1.386103 A    
N24   O55   1.301312 A    
O16   C7    1.295435 A    
C32   C48   1.390423 A    
C73   C110  1.516634 S    
C94   N30   1.436838 S    
C91   N27   1.437841 S    
C47   C60   1.394868 A    
C65   C110  1.419504 A    
C17   C73   1.396650 A    
C69   C72   1.413046 A    
C10   Cl2   1.751517 S    
C17   H1    1.082315 S    
N35   O77   1.301319 A    
C95   N31   1.438674 S    
C33   N13   1.432197 S    
C40   N20   1.442438 S    
C25   N5    1.432172 S    
C30   C46   1.389510 A    
C46   C60   1.393651 A    
N5    O18   1.300778 A    
O10   Zn4   2.002633 S    
C20   H4    1.082262 S    
C33   C49   1.387973 A    
Zn2   N2    2.028823 S    
N28   O63   1.301271 A    
C91   C97   1.398518 A    
N12   O32   1.301760 A    
O11   C6    1.298851 A    
C98   N34   1.437890 S    
N26   O60   1.301270 A    
O1    C1    1.299755 A    
C90   N26   1.437886 S    
C89   C99   1.398556 A    
C32   C79   1.418922 A    
C13   Cl5   1.751535 S    
C85   C102  1.411722 A    
N14   O35   1.299693 A    
N35   O78   1.301246 A    
C19   C73   1.396432 A    
O2    Zn2   2.002633 S    
C29   C79   1.412085 A    
C69   Cl13  1.771394 S    
N31   O69   1.301426 A    
C42   C58   1.396069 A    
C1    C80   1.449044 S    
N36   O79   1.301256 A    
O5    C3    1.298510 A    
C47   H15   1.083904 S    
C41   C57   1.396120 A    
C90   C103  1.410592 A    
N21   O50   1.301250 A    
C20   C74   1.396459 A    
C3    C78   1.447805 S    
N24   O56   1.301277 A    
C49   C61   1.396096 A    
C72   Cl16  1.771398 S    
C33   C81   1.411291 A    
C50   C62   1.396019 A    
C13   C21   1.406190 A    
C21   C75   1.396745 A    
C88   N24   1.438242 S    
N21   O49   1.301310 A    
C45   H13   1.083905 S    
C68   C109  1.419316 A    
N25   O58   1.301241 A    
N7    O21   1.300287 A    
C87   C101  1.411025 A    
C28   N8    1.440569 S    
O9    C5    1.299960 A    
O15   Zn4   1.998876 S    
C64   C107  1.459859 S    
C53   H21   1.083891 S    
O6    C4    1.293889 A    
C48   C59   1.395154 A    
C11   C19   1.405860 A    
C86   N22   1.436826 S    
C46   H14   1.083714 S    
C12   Cl4   1.752216 S    
C49   H17   1.083925 S    
N26   O59   1.301286 A    
N6    O20   1.301660 A    
C74   C109  1.516640 S    
C35   N15   1.431897 S    
C45   C59   1.394166 A    
C12   C20   1.406117 A    
C99   C107  1.411404 A    
C96   C106  1.410428 A    
C93   C106  1.411647 A    
C65   Cl9   1.771383 S    
N11   O30   1.300651 A    
N14   O36   1.301778 A    
C16   C24   1.406079 A    
C58   C101  1.460730 S    
C86   C96   1.396380 A    
O5    Zn2   2.003477 S    
C87   C93   1.398601 A    
C36   C81   1.420598 A    
C51   C62   1.393608 A    
C32   N12   1.442399 S    
N13   O33   1.300416 A    
C75   C112  1.516707 S    
C11   Cl3   1.752358 S    
C9    C17   1.406209 A    
N15   O38   1.300776 A    
C71   Cl15  1.771339 S    
N11   O29   1.300419 A    
C100  C108  1.411004 A    
C100  N36   1.437379 S    
C14   Cl6   1.751630 S    
N32   O72   1.301236 A    
Zn4   N4    2.028823 S    
C27   C43   1.386445 A    
C70   Cl14  1.771319 S    
C42   H10   1.083605 S    
