data_mof_unit_pretest_1307.cif
_audit_creation_date              2012-12-10T19:53:43-0500
_audit_creation_method            fapswitch 2.2
_symmetry_space_group_name_H-M    P1
_symmetry_Int_Tables_number       1
_space_group_crystal_system       triclinic
_cell_length_a                    18.202504
_cell_length_b                    18.2045
_cell_length_c                    47.261434
_cell_angle_alpha                 89.992562
_cell_angle_beta                  90.080533
_cell_angle_gamma                 89.635608
_cell_volume                      15660.570136

loop_
_atom_site_label
_atom_site_type_symbol
_atom_type_description
_atom_site_fract_x
_atom_site_fract_y
_atom_site_fract_z
_atom_type_partial_charge
C1    C     C_R   0.999871 0.859072 0.000000 0.923531
C2    C     C_R   0.140923 0.000057 0.000017 0.927749
C3    C     C_R   0.000129 0.140928 0.999998 0.924856
C4    C     C_R   0.859077 0.999945 0.999986 0.926602
C5    C     C_R   0.499861 0.359074 0.500000 0.924466
C6    C     C_R   0.640921 0.500090 0.500018 0.925446
C7    C     C_R   0.500121 0.640928 0.499999 0.923413
C8    C     C_R   0.359077 0.499931 0.499985 0.925567
C9    C     C_R   0.525667 0.934708 0.868960 0.341739
C10   C     C_R   0.066842 0.498068 0.868255 0.341851
C11   C     C_R   0.487585 0.062933 0.868133 0.340253
C12   C     C_R   0.933454 0.504732 0.868117 0.341805
C13   C     C_R   0.557475 0.017399 0.131370 0.361279
C14   C     C_R   0.067144 0.512225 0.131209 0.360177
C15   C     C_R   0.431268 0.971877 0.129732 0.376780
C16   C     C_R   0.934689 0.494734 0.131514 0.363609
C17   C     C_R   0.030795 0.437177 0.368920 0.360853
C18   C     C_R   0.565959 0.992323 0.368133 0.343191
C19   C     C_R   0.983908 0.562496 0.368244 0.330304
C20   C     C_R   0.432781 0.002940 0.368193 0.341529
C21   C     C_R   0.061746 0.538213 0.630132 0.370336
C22   C     C_R   0.568076 0.989009 0.631234 0.344374
C23   C     C_R   0.947255 0.468551 0.631310 0.359087
C24   C     C_R   0.434727 0.996543 0.631815 0.359669
C25   C     C_R   0.515579 0.932842 0.898331 0.310607
C26   C     C_R   0.066492 0.490440 0.897816 0.304625
C27   C     C_R   0.492569 0.065810 0.897740 0.301494
C28   C     C_R   0.933566 0.511169 0.897732 0.304451
C29   C     C_R   0.557807 0.023505 0.101737 0.248084
C30   C     C_R   0.064911 0.520510 0.101681 0.286829
C31   C     C_R   0.434354 0.971618 0.100071 0.298358
C32   C     C_R   0.935950 0.484689 0.102053 0.287899
C33   C     C_R   0.019523 0.434292 0.398336 0.275613
C34   C     C_R   0.565772 0.986387 0.397773 0.301925
C35   C     C_R   0.988520 0.565554 0.397851 0.301284
C36   C     C_R   0.433504 0.010893 0.397748 0.306198
C37   C     C_R   0.058282 0.539280 0.600470 0.300082
C38   C     C_R   0.567897 0.000358 0.601944 0.309980
C39   C     C_R   0.947755 0.463849 0.601666 0.254710
C40   C     C_R   0.434056 0.990165 0.602167 0.288432
C41   C     C_R   0.502654 0.999561 0.913130 -0.397674
C42   C     C_R   0.999972 0.500495 0.912946 -0.394501
C43   C     C_R   0.497038 0.998679 0.086209 -0.372009
C44   C     C_R   0.000311 0.501768 0.086784 -0.391778
C45   C     C_R   0.002521 0.499943 0.413164 -0.386209
C46   C     C_R   0.499763 0.999121 0.412932 -0.393285
C47   C     C_R   0.002053 0.501084 0.586327 -0.375528
C48   C     C_R   0.500589 0.997265 0.586917 -0.403194
C49   C     C_R   0.507440 0.998449 0.853863 -0.027121
C50   C     C_R   0.000214 0.501639 0.853362 -0.030363
C51   C     C_R   0.493608 0.994043 0.145278 -0.007264
C52   C     C_R   0.001198 0.503680 0.146258 -0.027293
C53   C     C_R   0.008530 0.499668 0.353897 -0.005755
C54   C     C_R   0.499256 0.997143 0.353318 -0.034199
C55   C     C_R   0.005016 0.503764 0.645437 -0.001691
C56   C     C_R   0.501901 0.992455 0.646334 -0.027598
C57   C     C_1   0.782594 0.999676 0.999971 -0.187498
C58   C     C_1   0.999542 0.782589 0.999992 -0.196886
C59   C     C_1   0.217403 0.000368 0.000041 -0.184277
C60   C     C_1   0.000453 0.217411 0.999989 -0.195301
C61   C     C_1   0.282594 0.499661 0.499966 -0.182425
C62   C     C_1   0.499553 0.282590 0.499998 -0.191237
C63   C     C_1   0.717403 0.500367 0.500054 -0.186505
C64   C     C_1   0.500424 0.717412 0.499999 -0.193898
C65   C     C_1   0.717740 0.999550 0.999989 -0.187983
C66   C     C_1   0.999448 0.717739 0.999980 -0.186213
C67   C     C_1   0.282256 0.000513 0.000012 -0.189831
C68   C     C_1   0.000547 0.282261 0.999983 -0.184549
C69   C     C_1   0.217739 0.499544 0.499984 -0.180730
C70   C     C_1   0.499463 0.217738 0.499997 -0.184784
C71   C     C_1   0.782259 0.500474 0.500055 -0.182937
C72   C     C_1   0.500523 0.782263 0.500004 -0.184959
C73   C     C_R   0.500453 0.999946 0.944387 0.993922
C74   C     C_R   0.999965 0.500081 0.944329 0.972593
C75   C     C_R   0.499282 0.999834 0.055372 1.068663
C76   C     C_R   0.000063 0.500449 0.055576 0.976158
C77   C     C_R   0.000277 0.500002 0.444398 1.000815
C78   C     C_R   0.499943 0.999866 0.444324 0.972548
C79   C     C_R   0.000406 0.500139 0.555412 1.063835
C80   C     C_R   0.500103 0.999507 0.555626 0.976760
C81   C     C_R   0.641271 0.999822 0.000010 0.944445
C82   C     C_R   0.999798 0.641275 0.999972 0.908504
C83   C     C_R   0.358729 0.000193 0.999981 0.947206
C84   C     C_R   0.000201 0.358725 0.999981 0.910047
C85   C     C_R   0.141271 0.499822 0.500007 0.947936
C86   C     C_R   0.499804 0.141274 0.500001 0.914498
C87   C     C_R   0.858729 0.500181 0.500030 0.946890
C88   C     C_R   0.500194 0.858726 0.500009 0.912886
C89   C     C_R   0.971351 0.446009 0.190963 0.597518
C90   C     C_R   0.524794 0.936386 0.189553 0.546161
C91   C     C_R   0.032960 0.561022 0.190925 0.611645
C92   C     C_R   0.461715 0.051788 0.189481 0.637031
C93   C     C_R   0.971536 0.560735 0.808797 0.608402
C94   C     C_R   0.555199 0.040972 0.809264 0.606939
C95   C     C_R   0.029698 0.443004 0.808866 0.606949
C96   C     C_R   0.459861 0.951609 0.809913 0.605513
C97   C     C_R   0.467136 0.938777 0.691159 0.622181
C98   C     C_R   0.039844 0.448007 0.689706 0.646659
C99   C     C_R   0.542505 0.045380 0.690493 0.592141
C100  C     C_R   0.968542 0.558530 0.689605 0.532970
C101  C     C_R   0.471198 0.056379 0.308737 0.618177
C102  C     C_R   0.052096 0.547954 0.309530 0.604239
C103  C     C_R   0.526521 0.937315 0.308767 0.605065
C104  C     C_R   0.963939 0.451410 0.309681 0.610303
C105  C     C_R   0.041268 0.557930 0.220427 -0.204561
C106  C     C_R   0.463820 0.055019 0.219240 -0.199926
C107  C     C_R   0.964298 0.448650 0.220468 -0.209650
C108  C     C_R   0.527417 0.935646 0.219291 -0.169488
C109  C     C_R   0.035638 0.444091 0.779213 -0.201331
C110  C     C_R   0.462238 0.945121 0.780360 -0.205287
C111  C     C_R   0.967007 0.560178 0.779087 -0.197633
C112  C     C_R   0.552917 0.044179 0.779607 -0.206946
C113  C     C_R   0.550322 0.042945 0.720012 -0.208058
C114  C     C_R   0.968324 0.560705 0.719329 -0.172235
C115  C     C_R   0.462905 0.941497 0.720780 -0.207678
C116  C     C_R   0.037253 0.444419 0.719445 -0.208162
C117  C     C_R   0.530869 0.937608 0.279047 -0.196384
C118  C     C_R   0.964522 0.448182 0.280018 -0.199140
C119  C     C_R   0.466151 0.055773 0.279040 -0.187507
C120  C     C_R   0.047669 0.553839 0.279971 -0.202570
C121  C     C_R   0.003671 0.502702 0.235367 -0.137752
C122  C     C_R   0.496472 0.995743 0.234193 -0.135070
C123  C     C_R   0.001576 0.502176 0.764199 -0.135705
C124  C     C_R   0.507561 0.993853 0.765096 -0.133631
C125  C     C_R   0.507046 0.992668 0.735306 -0.135258
C126  C     C_R   0.002344 0.502407 0.734317 -0.135539
C127  C     C_R   0.497936 0.996431 0.264084 -0.140335
C128  C     C_R   0.005312 0.501562 0.265132 -0.132512
C129  C     C_R   0.085226 0.608726 0.235273 0.404552
C130  C     C_R   0.433673 0.115120 0.234430 0.391861
C131  C     C_R   0.919632 0.398599 0.235367 0.410255
C132  C     C_R   0.560713 0.877163 0.234404 0.368003
C133  C     C_R   0.073777 0.388430 0.764237 0.402921
C134  C     C_R   0.419515 0.892721 0.765691 0.405717
C135  C     C_R   0.929980 0.616317 0.763918 0.391837
C136  C     C_R   0.595475 0.095066 0.764118 0.400880
C137  C     C_R   0.598705 0.090292 0.734617 0.406911
C138  C     C_R   0.935002 0.619154 0.734368 0.375158
C139  C     C_R   0.416252 0.894388 0.736150 0.402131
C140  C     C_R   0.069507 0.385471 0.734685 0.399083
C141  C     C_R   0.566683 0.880663 0.263954 0.392699
C142  C     C_R   0.923846 0.394907 0.264882 0.398264
C143  C     C_R   0.430486 0.112841 0.264032 0.377182
C144  C     C_R   0.084959 0.609540 0.264875 0.400621
N1    N     N_R   0.001835 0.503613 0.176688 -0.310897
N2    N     N_R   0.492706 0.993820 0.175557 -0.307217
N3    N     N_R   0.000397 0.501784 0.822955 -0.309165
N4    N     N_R   0.507500 0.997069 0.823596 -0.305658
N5    N     N_R   0.503563 0.992273 0.676691 -0.307479
N6    N     N_R   0.005282 0.503852 0.675699 -0.305266
N7    N     N_R   0.499035 0.996931 0.322890 -0.313061
N8    N     N_R   0.008946 0.499028 0.323614 -0.303942
O1    O     O_R   0.999960 0.892740 0.023680 -0.624933
O2    O     O_R   0.107260 0.999960 0.023680 -0.614019
O3    O     O_R   0.000040 0.107260 0.023680 -0.621862
O4    O     O_R   0.892740 0.000040 0.023680 -0.619186
O5    O     O_R   0.999960 0.107260 0.976320 -0.618149
O6    O     O_R   0.107260 0.000040 0.976320 -0.619625
O7    O     O_R   0.000040 0.892740 0.976320 -0.617550
O8    O     O_R   0.892740 0.999960 0.976320 -0.618575
O9    O     O_R   0.499960 0.392740 0.523680 -0.618099
O10   O     O_R   0.607260 0.499960 0.523680 -0.618899
O11   O     O_R   0.500040 0.607260 0.523680 -0.619713
O12   O     O_R   0.392740 0.500040 0.523680 -0.612382
O13   O     O_R   0.499960 0.607260 0.476320 -0.619123
O14   O     O_R   0.607260 0.500040 0.476320 -0.618930
O15   O     O_R   0.500040 0.392740 0.476320 -0.620269
O16   O     O_R   0.392740 0.499960 0.476320 -0.621199
O17   O     O_R   0.500020 0.060670 0.958090 -0.596113
O18   O     O_R   0.939330 0.500020 0.958090 -0.586023
O19   O     O_R   0.499980 0.939330 0.958090 -0.595235
O20   O     O_R   0.060670 0.499980 0.958090 -0.585759
O21   O     O_R   0.500020 0.939330 0.041910 -0.642690
O22   O     O_R   0.939330 0.499980 0.041910 -0.582708
O23   O     O_R   0.499980 0.060670 0.041910 -0.623745
O24   O     O_R   0.060670 0.500020 0.041910 -0.579818
O25   O     O_R   0.000020 0.560670 0.458090 -0.599171
O26   O     O_R   0.439330 0.000020 0.458090 -0.585155
O27   O     O_R   0.999980 0.439330 0.458090 -0.595109
O28   O     O_R   0.560670 0.999980 0.458090 -0.585733
O29   O     O_R   0.000020 0.439330 0.541910 -0.622267
O30   O     O_R   0.439330 0.999980 0.541910 -0.583143
O31   O     O_R   0.999980 0.560670 0.541910 -0.637962
O32   O     O_R   0.560670 0.000020 0.541910 -0.585151
O33   O     O_R   0.607320 0.060650 0.000010 -0.646501
O34   O     O_R   0.939350 0.607320 0.000010 -0.634758
O35   O     O_R   0.392680 0.939350 0.000010 -0.645306
O36   O     O_R   0.060650 0.392680 0.000010 -0.633990
O37   O     O_R   0.607320 0.939350 0.999990 -0.612649
O38   O     O_R   0.939350 0.392680 0.999990 -0.631313
O39   O     O_R   0.392680 0.060650 0.999990 -0.610654
O40   O     O_R   0.060650 0.607320 0.999990 -0.630297
O41   O     O_R   0.107320 0.560650 0.500010 -0.648419
O42   O     O_R   0.439350 0.107320 0.500010 -0.632158
O43   O     O_R   0.892680 0.439350 0.500010 -0.644556
O44   O     O_R   0.560650 0.892680 0.500010 -0.632428
O45   O     O_R   0.107320 0.439350 0.499990 -0.613857
O46   O     O_R   0.439350 0.892680 0.499990 -0.634365
O47   O     O_R   0.892680 0.560650 0.499990 -0.616489
O48   O     O_R   0.560650 0.107320 0.499990 -0.633039
O49   O     O_2   0.949111 0.385944 0.176651 -0.528295
O50   O     O_2   0.553133 0.880027 0.174496 -0.575653
O51   O     O_2   0.054575 0.621192 0.176566 -0.529394
O52   O     O_2   0.428658 0.105485 0.174365 -0.517894
O53   O     O_2   0.948527 0.620002 0.823547 -0.532135
O54   O     O_2   0.605126 0.080338 0.823843 -0.540365
O55   O     O_2   0.051808 0.383365 0.823631 -0.534748
O56   O     O_2   0.409877 0.913827 0.825035 -0.541903
O57   O     O_2   0.436312 0.882712 0.676837 -0.530119
O58   O     O_2   0.076880 0.396793 0.674710 -0.521193
O59   O     O_2   0.572298 0.101011 0.675614 -0.538229
O60   O     O_2   0.933326 0.610869 0.674482 -0.574544
O61   O     O_2   0.449518 0.116143 0.323495 -0.524411
O62   O     O_2   0.099353 0.590081 0.324281 -0.541022
O63   O     O_2   0.548167 0.877546 0.323549 -0.529811
O64   O     O_2   0.917925 0.408608 0.324678 -0.545468
Zn1   Zn    Zn3+2 0.000000 0.000000 0.031620 0.969058
Zn2   Zn    Zn3+2 0.000000 1.000000 0.968380 0.971892
Zn3   Zn    Zn3+2 0.500000 0.500000 0.531620 0.975918
Zn4   Zn    Zn3+2 0.500000 0.500000 0.468380 0.969079
Zn5   Zn    Zn3+2 0.500000 0.080980 0.000000 0.961002
Zn6   Zn    Zn3+2 0.919020 0.500000 0.000000 0.973474
Zn7   Zn    Zn3+2 0.500000 0.919020 0.000000 0.953490
Zn8   Zn    Zn3+2 0.080980 0.500000 0.000000 0.976858
Zn9   Zn    Zn3+2 1.000000 0.580980 0.500000 0.946921
Zn10  Zn    Zn3+2 0.419020 0.000000 0.500000 0.971240
Zn11  Zn    Zn3+2 0.000000 0.419020 0.500000 0.956795
Zn12  Zn    Zn3+2 0.580980 0.000000 0.500000 0.970468
O65   O     O_3   0.129089 0.658569 0.221128 -0.607603
C145  C     C_3   0.195036 0.623573 0.212299 0.171119
H1    H     H_    0.208179 0.644089 0.190785 0.190815
H2    H     H_    0.191089 0.562532 0.210359 0.108965
C146  C     C_3   0.257987 0.643365 0.232353 -0.350319
H3    H     H_    0.260674 0.704020 0.234748 0.239581
H4    H     H_    0.247778 0.618830 0.253487 0.253075
C147  C     C_3   0.331586 0.614888 0.221318 -0.995868
H5    H     H_    0.330645 0.554079 0.219417 0.272601
H6    H     H_    0.375989 0.630407 0.236259 0.275435
H7    H     H_    0.343790 0.639213 0.200314 0.265486
O66   O     O_3   0.402347 0.174865 0.220711 -0.600524
C148  C     C_3   0.457368 0.226882 0.214083 0.164234
H8    H     H_    0.440904 0.254060 0.193977 0.184819
H9    H     H_    0.512587 0.201718 0.210180 0.115612
C149  C     C_3   0.462631 0.285635 0.237194 -0.353806
H10   H     H_    0.407030 0.308426 0.241642 0.245283
H11   H     H_    0.484822 0.260723 0.256895 0.252002
C150  C     C_3   0.513311 0.347899 0.228309 -0.990124
H12   H     H_    0.569436 0.326167 0.224182 0.273867
H13   H     H_    0.516393 0.389239 0.245534 0.278582
H14   H     H_    0.492015 0.375276 0.208929 0.268088
O67   O     O_3   0.871118 0.352226 0.221571 -0.604251
C151  C     C_3   0.809700 0.392975 0.211486 0.165905
H15   H     H_    0.784475 0.361083 0.193990 0.177479
H16   H     H_    0.825018 0.447025 0.202254 0.147060
C152  C     C_3   0.751870 0.404093 0.234687 -0.377604
H17   H     H_    0.732369 0.349740 0.242186 0.245777
H18   H     H_    0.776300 0.433836 0.252892 0.239635
C153  C     C_3   0.686685 0.448963 0.223686 -0.984898
H19   H     H_    0.704966 0.504372 0.216915 0.269216
H20   H     H_    0.645334 0.455615 0.240753 0.282708
H21   H     H_    0.660599 0.420769 0.205454 0.268353
O68   O     O_3   0.594654 0.819617 0.220318 -0.601653
C154  C     C_3   0.547912 0.757987 0.220689 0.161856
H22   H     H_    0.495707 0.770455 0.209231 0.136019
H23   H     H_    0.534923 0.741093 0.242776 0.155660
C155  C     C_3   0.586913 0.694073 0.205929 -0.318872
H24   H     H_    0.600054 0.709955 0.183801 0.242269
H25   H     H_    0.639281 0.681635 0.217142 0.222812
C156  C     C_3   0.539510 0.625252 0.205561 -0.990256
H26   H     H_    0.526140 0.607966 0.227491 0.273574
H27   H     H_    0.569896 0.579861 0.194991 0.272365
H28   H     H_    0.487797 0.635842 0.193706 0.270238
O69   O     O_3   0.113710 0.334240 0.778127 -0.605830
C157  C     C_3   0.183128 0.362012 0.786367 0.162768
H29   H     H_    0.201196 0.330699 0.805344 0.184167
H30   H     H_    0.181205 0.420895 0.792859 0.125192
C158  C     C_3   0.240129 0.350858 0.762886 -0.365547
H31   H     H_    0.240801 0.292288 0.756247 0.245237
H32   H     H_    0.225242 0.385169 0.744286 0.246876
C159  C     C_3   0.316823 0.372505 0.772831 -0.990433
H33   H     H_    0.317537 0.431339 0.779070 0.270134
H34   H     H_    0.356727 0.364010 0.755368 0.280028
H35   H     H_    0.334114 0.338282 0.791150 0.265696
O70   O     O_3   0.377154 0.841566 0.779852 -0.604630
C160  C     C_3   0.421734 0.781470 0.788501 0.162208
H36   H     H_    0.397139 0.758542 0.808082 0.184199
H37   H     H_    0.479021 0.797453 0.794147 0.121944
C161  C     C_3   0.422857 0.721300 0.765845 -0.367623
H38   H     H_    0.365574 0.706020 0.760315 0.246981
H39   H     H_    0.450425 0.742055 0.746508 0.246022
C162  C     C_3   0.464139 0.653180 0.776203 -0.983664
H40   H     H_    0.521664 0.667331 0.781721 0.270603
H41   H     H_    0.464970 0.610999 0.759237 0.279515
H42   H     H_    0.436657 0.629749 0.795098 0.264809
O71   O     O_3   0.890459 0.671110 0.777576 -0.600248
C163  C     C_3   0.819725 0.644872 0.784790 0.169016
H43   H     H_    0.800531 0.676872 0.803408 0.183740
H44   H     H_    0.819961 0.586087 0.791459 0.122374
C164  C     C_3   0.765088 0.656688 0.760443 -0.366255
H45   H     H_    0.767087 0.714822 0.753304 0.244634
H46   H     H_    0.780112 0.620717 0.742347 0.243915
C165  C     C_3   0.686868 0.638432 0.769502 -0.998677
H47   H     H_    0.683448 0.580054 0.776200 0.269971
H48   H     H_    0.648760 0.647389 0.751442 0.280555
H49   H     H_    0.669402 0.674315 0.787292 0.266389
O72   O     O_3   0.637536 0.148092 0.777427 -0.595811
C166  C     C_3   0.592203 0.208139 0.785539 0.167540
H50   H     H_    0.618010 0.234224 0.804305 0.183334
H51   H     H_    0.536021 0.191343 0.792284 0.125723
C167  C     C_3   0.587012 0.265399 0.761841 -0.367910
H52   H     H_    0.643175 0.282811 0.755669 0.248698
H53   H     H_    0.559621 0.241067 0.743073 0.245774
C168  C     C_3   0.542781 0.332556 0.771262 -0.984948
H54   H     H_    0.486118 0.316285 0.777174 0.269137
H55   H     H_    0.539539 0.372833 0.753652 0.278761
H56   H     H_    0.569522 0.359253 0.789685 0.264900
O73   O     O_3   0.648454 0.134589 0.720527 -0.600147
C169  C     C_3   0.708695 0.091611 0.710874 0.161523
H57   H     H_    0.735018 0.122002 0.693247 0.175214
H58   H     H_    0.691612 0.037807 0.701924 0.141594
C170  C     C_3   0.766026 0.079755 0.734285 -0.372392
H59   H     H_    0.786335 0.133851 0.741753 0.247889
H60   H     H_    0.740833 0.050630 0.752458 0.238926
C171  C     C_3   0.830664 0.033707 0.723604 -0.988042
H61   H     H_    0.811601 0.978521 0.716893 0.266497
H62   H     H_    0.871615 0.026589 0.740831 0.283699
H63   H     H_    0.857581 0.061257 0.705429 0.270236
O74   O     O_3   0.902840 0.677853 0.720345 -0.598078
C172  C     C_3   0.953716 0.736093 0.719308 0.153722
H64   H     H_    0.002788 0.719825 0.706622 0.133132
H65   H     H_    0.971724 0.752275 0.740978 0.149929
C173  C     C_3   0.916912 0.802488 0.705334 -0.312715
H66   H     H_    0.897605 0.787114 0.683819 0.244882
H67   H     H_    0.868577 0.819643 0.718127 0.219401
C174  C     C_3   0.969526 0.867084 0.702977 -0.986198
H68   H     H_    0.987631 0.884836 0.724344 0.273177
H69   H     H_    0.941174 0.913962 0.692506 0.274118
H70   H     H_    0.018281 0.851474 0.690163 0.266446
O75   O     O_3   0.366002 0.849744 0.722588 -0.603775
C175  C     C_3   0.302274 0.891232 0.715573 0.174218
H71   H     H_    0.287679 0.878481 0.693310 0.187500
H72   H     H_    0.309606 0.952151 0.716516 0.102335
C176  C     C_3   0.238596 0.869072 0.734793 -0.354679
H73   H     H_    0.231248 0.808561 0.733877 0.236830
H74   H     H_    0.251377 0.884587 0.756973 0.258885
C177  C     C_3   0.167121 0.906927 0.725979 -0.987004
H75   H     H_    0.172699 0.967522 0.727548 0.272425
H76   H     H_    0.122106 0.889207 0.740204 0.274291
H77   H     H_    0.152527 0.892011 0.703905 0.272811
O76   O     O_3   0.101650 0.326159 0.721007 -0.601796
C178  C     C_3   0.047247 0.273658 0.714152 0.155778
H78   H     H_    0.065171 0.245476 0.694461 0.182445
H79   H     H_    0.992328 0.298550 0.709415 0.119736
C179  C     C_3   0.040416 0.216130 0.737658 -0.349652
H80   H     H_    0.095671 0.193374 0.742784 0.247467
H81   H     H_    0.017323 0.242179 0.756964 0.249306
C180  C     C_3   0.989989 0.153571 0.728794 -0.986017
H82   H     H_    0.934118 0.175127 0.723984 0.272697
H83   H     H_    0.985877 0.113161 0.746309 0.280114
H84   H     H_    0.012262 0.125117 0.709836 0.267291
O77   O     O_3   0.606686 0.826269 0.277699 -0.604960
C181  C     C_3   0.677323 0.852964 0.284872 0.171414
H85   H     H_    0.696380 0.822013 0.303795 0.183795
H86   H     H_    0.677095 0.912105 0.291043 0.121623
C182  C     C_3   0.732081 0.839815 0.260739 -0.370446
H87   H     H_    0.730238 0.781248 0.254136 0.245255
H88   H     H_    0.717063 0.874670 0.242301 0.244184
C183  C     C_3   0.810209 0.858739 0.269773 -1.003149
H89   H     H_    0.813481 0.917467 0.276011 0.270919
H90   H     H_    0.848397 0.848923 0.251844 0.280012
H91   H     H_    0.827660 0.823825 0.287875 0.266680
O78   O     O_3   0.883463 0.341434 0.278623 -0.597784
C184  C     C_3   0.929828 0.281573 0.286058 0.169094
H92   H     H_    0.908590 0.258187 0.306145 0.185230
H93   H     H_    0.987932 0.297718 0.290320 0.124482
C185  C     C_3   0.927401 0.221792 0.263286 -0.361513
H94   H     H_    0.869313 0.207196 0.258829 0.248106
H95   H     H_    0.952647 0.242633 0.243494 0.250091
C186  C     C_3   0.969128 0.153000 0.272684 -0.981210
H96   H     H_    0.027594 0.166222 0.276937 0.271195
H97   H     H_    0.966794 0.110945 0.255698 0.277335
H98   H     H_    0.944085 0.129824 0.292128 0.264039
O79   O     O_3   0.392937 0.167966 0.278178 -0.603409
C187  C     C_3   0.318303 0.147805 0.280216 0.156363
H99   H     H_    0.312519 0.092179 0.289847 0.130083
H100  H     H_    0.292238 0.148064 0.258873 0.154632
C188  C     C_3   0.278193 0.203118 0.299043 -0.296855
H101  H     H_    0.303539 0.202575 0.320455 0.246602
H102  H     H_    0.283827 0.259156 0.289977 0.225026
C189  C     C_3   0.196787 0.184766 0.301658 -1.007115
H103  H     H_    0.169992 0.186590 0.280539 0.267542
H104  H     H_    0.169348 0.225513 0.315626 0.271466
H105  H     H_    0.189862 0.129219 0.310985 0.270452
O80   O     O_3   0.124938 0.663404 0.278613 -0.605607
C190  C     C_3   0.077286 0.720374 0.287885 0.167016
H106  H     H_    0.102019 0.744664 0.307221 0.186153
H107  H     H_    0.021719 0.700590 0.294151 0.123847
C191  C     C_3   0.070242 0.780614 0.265394 -0.368235
H108  H     H_    0.125876 0.798745 0.258824 0.247940
H109  H     H_    0.041137 0.758666 0.246568 0.246603
C192  C     C_3   0.027170 0.846570 0.276650 -0.986783
H110  H     H_    0.971555 0.829411 0.283527 0.270792
H111  H     H_    0.021281 0.888483 0.259715 0.279388
H112  H     H_    0.056418 0.871621 0.294855 0.265583
O81   O     O_3   0.547262 0.871900 0.854646 -0.626846
C193  C     C_3   0.622916 0.876192 0.848128 0.105644
H113  H     H_    0.655084 0.851969 0.865888 0.164226
H114  H     H_    0.642319 0.933570 0.844598 0.150011
C194  C     C_3   0.637706 0.832384 0.821121 -0.361115
H115  H     H_    0.620751 0.774396 0.824249 0.222483
H116  H     H_    0.604690 0.856099 0.803504 0.218153
C195  C     C_3   0.718800 0.834337 0.813035 -0.941151
H117  H     H_    0.736801 0.891911 0.809769 0.274316
H118  H     H_    0.727287 0.803634 0.793016 0.268348
H119  H     H_    0.752854 0.808491 0.829875 0.267853
O82   O     O_3   0.132653 0.496488 0.853676 -0.620043
C196  C     C_3   0.157013 0.569351 0.850079 0.100602
H120  H     H_    0.172887 0.593111 0.870921 0.167448
H121  H     H_    0.113576 0.604513 0.840200 0.147789
C197  C     C_3   0.223965 0.569051 0.830607 -0.347203
H122  H     H_    0.267715 0.533516 0.839849 0.229949
H123  H     H_    0.208208 0.546176 0.809677 0.214959
C198  C     C_3   0.254011 0.646371 0.826396 -0.947782
H124  H     H_    0.211390 0.682634 0.816840 0.273483
H125  H     H_    0.302005 0.644186 0.811950 0.263333
H126  H     H_    0.271897 0.669858 0.846958 0.266566
O83   O     O_3   0.467456 0.124718 0.852882 -0.626937
C199  C     C_3   0.391041 0.122700 0.847735 0.103412
H127  H     H_    0.361170 0.141471 0.866981 0.167251
H128  H     H_    0.371701 0.066546 0.841963 0.151130
C200  C     C_3   0.372882 0.174089 0.823101 -0.356665
H129  H     H_    0.390587 0.230811 0.828356 0.224726
H130  H     H_    0.403308 0.155600 0.803972 0.219075
C201  C     C_3   0.290744 0.174510 0.816588 -0.947750
H131  H     H_    0.271823 0.118169 0.811440 0.273170
H132  H     H_    0.279698 0.210389 0.798079 0.267937
H133  H     H_    0.259301 0.195818 0.835000 0.267921
O84   O     O_3   0.867765 0.506822 0.853396 -0.618899
C202  C     C_3   0.843808 0.434067 0.849108 0.101369
H134  H     H_    0.827230 0.409272 0.869669 0.166722
H135  H     H_    0.887692 0.399467 0.839279 0.148283
C203  C     C_3   0.777627 0.435130 0.829184 -0.345434
H136  H     H_    0.733254 0.469728 0.838458 0.229557
H137  H     H_    0.794014 0.459490 0.808590 0.215274
C204  C     C_3   0.748377 0.357872 0.824036 -0.949441
H138  H     H_    0.791634 0.322574 0.814419 0.274584
H139  H     H_    0.700899 0.360614 0.809302 0.262269
H140  H     H_    0.729950 0.332910 0.844248 0.266699
O85   O     O_3   0.617126 0.039650 0.147354 -0.641630
C205  C     C_3   0.674898 0.987652 0.144919 0.147858
H141  H     H_    0.711895 0.004142 0.127366 0.170202
H142  H     H_    0.655128 0.930719 0.140672 0.167185
C206  C     C_3   0.718647 0.986720 0.172574 -0.331994
H143  H     H_    0.744181 0.041339 0.175931 0.220613
H144  H     H_    0.681009 0.975804 0.190568 0.242775
C207  C     C_3   0.778592 0.927728 0.172240 -0.938822
H145  H     H_    0.753905 0.872406 0.169832 0.282292
H146  H     H_    0.809537 0.929148 0.192500 0.267465
H147  H     H_    0.817430 0.937622 0.154559 0.261613
O86   O     O_3   0.132711 0.521166 0.145690 -0.619412
C208  C     C_3   0.176388 0.456909 0.143395 0.102740
H148  H     H_    0.234717 0.473885 0.145234 0.165283
H149  H     H_    0.171036 0.428706 0.122529 0.151856
C209  C     C_3   0.159068 0.403591 0.167545 -0.405337
H150  H     H_    0.160921 0.433279 0.188087 0.225173
H151  H     H_    0.102964 0.381258 0.164593 0.242546
C210  C     C_3   0.213733 0.339747 0.168386 -0.893336
H152  H     H_    0.212313 0.308854 0.148126 0.270521
H153  H     H_    0.199099 0.301828 0.185870 0.274900
H154  H     H_    0.270249 0.360327 0.172120 0.258923
O87   O     O_3   0.364056 0.959807 0.142679 -0.581335
C211  C     C_3   0.365551 0.894725 0.159009 0.091329
H155  H     H_    0.380737 0.908242 0.181141 0.147764
H156  H     H_    0.404674 0.852528 0.150644 0.124587
C212  C     C_3   0.288345 0.862269 0.159486 -0.311424
H157  H     H_    0.249541 0.902991 0.168790 0.240224
H158  H     H_    0.270050 0.850191 0.137543 0.223411
C213  C     C_3   0.285941 0.791816 0.176892 -0.986460
H159  H     H_    0.321716 0.749087 0.167196 0.258764
H160  H     H_    0.228694 0.771275 0.177480 0.287168
H161  H     H_    0.304461 0.802395 0.198915 0.265842
O88   O     O_3   0.869555 0.486982 0.146312 -0.623097
C214  C     C_3   0.826277 0.551481 0.143755 0.096287
H162  H     H_    0.767918 0.535054 0.146090 0.167078
H163  H     H_    0.830834 0.578430 0.122621 0.152198
C215  C     C_3   0.845081 0.606107 0.167335 -0.387586
H164  H     H_    0.844545 0.577600 0.188129 0.222253
H165  H     H_    0.900987 0.628278 0.163748 0.241559
C216  C     C_3   0.790360 0.669939 0.168146 -0.940699
H166  H     H_    0.790590 0.699966 0.147684 0.268059
H167  H     H_    0.805812 0.708652 0.185278 0.273134
H168  H     H_    0.734120 0.649396 0.172408 0.258445
O89   O     O_3   0.056688 0.376395 0.354263 -0.632871
C217  C     C_3   0.132535 0.365644 0.359686 0.107786
H169  H     H_    0.142605 0.305540 0.361327 0.159448
H170  H     H_    0.152067 0.390103 0.380001 0.152861
C218  C     C_3   0.177748 0.395818 0.335072 -0.378603
H171  H     H_    0.160456 0.368836 0.315063 0.228044
H172  H     H_    0.167754 0.455781 0.333035 0.251158
C219  C     C_3   0.259739 0.382651 0.339721 -0.937895
H173  H     H_    0.278823 0.413091 0.358699 0.270422
H174  H     H_    0.290795 0.402292 0.321015 0.271819
H175  H     H_    0.271238 0.323209 0.342704 0.261259
O90   O     O_3   0.631550 0.988256 0.353467 -0.618250
C220  C     C_3   0.658402 0.060167 0.349711 0.100957
H176  H     H_    0.673496 0.084461 0.370552 0.167161
H177  H     H_    0.616683 0.096022 0.339139 0.146092
C221  C     C_3   0.726770 0.057017 0.331008 -0.345300
H178  H     H_    0.768729 0.020666 0.340981 0.230016
H179  H     H_    0.711956 0.033629 0.310061 0.214741
C222  C     C_3   0.759433 0.133212 0.326655 -0.946805
H180  H     H_    0.718722 0.170176 0.316298 0.273219
H181  H     H_    0.808637 0.128977 0.312876 0.263436
H182  H     H_    0.776163 0.157205 0.347275 0.266719
O91   O     O_3   0.959799 0.622996 0.353056 -0.628070
C223  C     C_3   0.883904 0.615724 0.347560 0.101906
H183  H     H_    0.852266 0.631934 0.366729 0.167699
H184  H     H_    0.868727 0.558469 0.341534 0.149392
C224  C     C_3   0.862952 0.666338 0.323001 -0.360674
H185  H     H_    0.876865 0.723997 0.328468 0.224163
H186  H     H_    0.894870 0.650208 0.303922 0.218385
C225  C     C_3   0.781137 0.661667 0.316201 -0.941773
H187  H     H_    0.766085 0.604391 0.310665 0.272218
H188  H     H_    0.768137 0.697557 0.297866 0.268271
H189  H     H_    0.748001 0.680126 0.334625 0.268675
O92   O     O_3   0.366959 0.007102 0.353615 -0.613911
C226  C     C_3   0.340889 0.935190 0.349123 0.103938
H190  H     H_    0.324284 0.910222 0.369650 0.164123
H191  H     H_    0.383492 0.899737 0.338928 0.146495
C227  C     C_3   0.274112 0.938784 0.329530 -0.342377
H192  H     H_    0.230930 0.974067 0.339247 0.228545
H193  H     H_    0.290463 0.963699 0.309027 0.215051
C228  C     C_3   0.242720 0.862546 0.324017 -0.950369
H194  H     H_    0.284718 0.826647 0.313916 0.273655
H195  H     H_    0.194760 0.867155 0.309574 0.263492
H196  H     H_    0.224422 0.837105 0.344156 0.267177
O93   O     O_3   0.125769 0.561576 0.643230 -0.586885
C229  C     C_3   0.113074 0.625657 0.659444 0.088324
H197  H     H_    0.101114 0.609896 0.681621 0.146556
H198  H     H_    0.066994 0.660188 0.651065 0.133437
C230  C     C_3   0.183127 0.671434 0.659907 -0.307464
H199  H     H_    0.227912 0.639383 0.670236 0.239204
H200  H     H_    0.200589 0.684260 0.637956 0.226730
C231  C     C_3   0.171502 0.743082 0.676031 -1.001421
H201  H     H_    0.128538 0.777129 0.665550 0.260363
H202  H     H_    0.223595 0.774273 0.676271 0.282010
H203  H     H_    0.154765 0.731728 0.698192 0.265422
O94   O     O_3   0.633727 0.978245 0.645460 -0.618885
C232  C     C_3   0.646037 0.901847 0.648542 0.103625
H204  H     H_    0.672749 0.880359 0.629038 0.168631
H205  H     H_    0.594318 0.870515 0.652286 0.142308
C233  C     C_3   0.696556 0.888433 0.673902 -0.365699
H206  H     H_    0.748870 0.918622 0.670911 0.228215
H207  H     H_    0.669311 0.909278 0.693371 0.215659
C234  C     C_3   0.713325 0.806761 0.677725 -0.936772
H208  H     H_    0.661631 0.775414 0.680400 0.270330
H209  H     H_    0.747549 0.798588 0.696924 0.264538
H210  H     H_    0.743757 0.785170 0.659113 0.268942
O95   O     O_3   0.893495 0.434090 0.647039 -0.641935
C235  C     C_3   0.828050 0.476332 0.646300 0.131072
H211  H     H_    0.793390 0.457625 0.628332 0.172849
H212  H     H_    0.838066 0.536482 0.643831 0.167952
C236  C     C_3   0.786416 0.464511 0.673981 -0.336491
H213  H     H_    0.771523 0.405612 0.675970 0.225740
H214  H     H_    0.822437 0.479179 0.692115 0.234334
C237  C     C_3   0.716734 0.511432 0.675256 -0.939813
H215  H     H_    0.730697 0.570697 0.674188 0.279425
H216  H     H_    0.687684 0.500981 0.695493 0.267642
H217  H     H_    0.679482 0.497451 0.657444 0.263625
O96   O     O_3   0.369453 0.997288 0.646846 -0.623025
C238  C     C_3   0.336442 0.067762 0.645544 0.111131
H218  H     H_    0.276012 0.059951 0.646497 0.166559
H219  H     H_    0.347640 0.097812 0.625425 0.148671
C239  C     C_3   0.360182 0.114045 0.670998 -0.404218
H220  H     H_    0.352714 0.081943 0.690793 0.226476
H221  H     H_    0.419199 0.127975 0.668907 0.242459
C240  C     C_3   0.315695 0.185167 0.673008 -0.895285
H222  H     H_    0.322916 0.218478 0.653527 0.270483
H223  H     H_    0.334902 0.217660 0.691445 0.270584
H224  H     H_    0.256468 0.172913 0.675903 0.263900
O97   O     O_3   0.525894 0.867252 0.912826 -0.599875
C241  C     C_3   0.468206 0.817533 0.906667 0.150850
H225  H     H_    0.491167 0.760981 0.908173 0.151930
H226  H     H_    0.445423 0.823019 0.884856 0.175596
C242  C     C_3   0.405827 0.825288 0.928219 -0.353702
H227  H     H_    0.427533 0.814875 0.949851 0.244916
H228  H     H_    0.382963 0.882002 0.927395 0.220703
C243  C     C_3   0.344174 0.771059 0.922166 -0.968412
H229  H     H_    0.320452 0.781242 0.900840 0.272165
H230  H     H_    0.300048 0.777927 0.938167 0.276139
H231  H     H_    0.365282 0.713739 0.923263 0.264340
O98   O     O_3   0.132273 0.478609 0.911977 -0.599942
C244  C     C_3   0.156700 0.405224 0.907830 0.143581
H232  H     H_    0.217712 0.405339 0.908428 0.155760
H233  H     H_    0.141081 0.381736 0.886874 0.169726
C245  C     C_3   0.128887 0.355499 0.931633 -0.364214
H234  H     H_    0.148186 0.377058 0.952319 0.255250
H235  H     H_    0.067849 0.355209 0.931604 0.210888
C246  C     C_3   0.156679 0.276782 0.928139 -0.945162
H236  H     H_    0.137012 0.253473 0.907792 0.270070
H237  H     H_    0.135601 0.242421 0.945732 0.277344
H238  H     H_    0.217685 0.275201 0.928610 0.265295
O99   O     O_3   0.479680 0.131717 0.911696 -0.603287
C247  C     C_3   0.537856 0.181672 0.906691 0.147507
H239  H     H_    0.514499 0.238127 0.907748 0.151737
H240  H     H_    0.563310 0.176307 0.885350 0.174170
C248  C     C_3   0.597478 0.174168 0.929453 -0.351502
H241  H     H_    0.573068 0.184693 0.950619 0.245186
H242  H     H_    0.620522 0.117491 0.929143 0.220506
C249  C     C_3   0.659717 0.228472 0.924573 -0.967635
H243  H     H_    0.686123 0.218177 0.903756 0.271973
H244  H     H_    0.701775 0.221800 0.941436 0.275984
H245  H     H_    0.638391 0.285759 0.925189 0.264496
O100  O     O_3   0.867699 0.522380 0.911833 -0.599860
C250  C     C_3   0.843079 0.595826 0.907986 0.143161
H246  H     H_    0.782063 0.595502 0.908414 0.156033
H247  H     H_    0.858855 0.620105 0.887197 0.169466
C251  C     C_3   0.870471 0.644806 0.932111 -0.363444
H248  H     H_    0.850946 0.622508 0.952629 0.255163
H249  H     H_    0.931508 0.645222 0.932269 0.210981
C252  C     C_3   0.842556 0.723579 0.928921 -0.945986
H250  H     H_    0.862441 0.747619 0.908752 0.269919
H251  H     H_    0.863328 0.757387 0.946746 0.277186
H252  H     H_    0.781542 0.725018 0.929211 0.265506
O101  O     O_3   0.619139 0.049297 0.087716 -0.643668
C253  C     C_3   0.617968 0.126888 0.088337 0.131458
H253  H     H_    0.630761 0.146951 0.110029 0.173728
H254  H     H_    0.563345 0.149167 0.081670 0.150383
C254  C     C_3   0.676078 0.155783 0.067939 -0.329601
H255  H     H_    0.731322 0.136387 0.074809 0.223677
H256  H     H_    0.665285 0.133949 0.046390 0.248138
C255  C     C_3   0.675300 0.239583 0.066792 -0.995114
H257  H     H_    0.620492 0.260064 0.059925 0.270840
H258  H     H_    0.716912 0.258756 0.051352 0.273309
H259  H     H_    0.688565 0.262758 0.087921 0.262929
O102  O     O_3   0.127020 0.543866 0.087374 -0.604126
C256  C     C_3   0.138065 0.619909 0.092340 0.140916
H260  H     H_    0.197887 0.630745 0.090636 0.149838
H261  H     H_    0.121765 0.637999 0.114010 0.179152
C257  C     C_3   0.098008 0.666423 0.070019 -0.372681
H262  H     H_    0.123708 0.656791 0.049030 0.244853
H263  H     H_    0.039351 0.650321 0.068796 0.213026
C258  C     C_3   0.101449 0.748105 0.077110 -0.952587
H264  H     H_    0.070804 0.759533 0.096952 0.273492
H265  H     H_    0.076155 0.780525 0.059705 0.283334
H266  H     H_    0.159215 0.765719 0.079836 0.269160
O103  O     O_3   0.373108 0.951716 0.084519 -0.598520
C259  C     C_3   0.372656 0.874441 0.081544 0.109341
H267  H     H_    0.366546 0.847168 0.102401 0.131084
H268  H     H_    0.424351 0.854199 0.071596 0.149118
C260  C     C_3   0.307869 0.852379 0.062880 -0.302964
H269  H     H_    0.255647 0.868917 0.073322 0.225207
H270  H     H_    0.311379 0.881358 0.042276 0.242983
C261  C     C_3   0.307430 0.769697 0.057519 -0.999641
H271  H     H_    0.358952 0.752271 0.046810 0.270222
H272  H     H_    0.260310 0.755554 0.043646 0.276545
H273  H     H_    0.301972 0.739402 0.077808 0.259378
O104  O     O_3   0.873057 0.461580 0.088153 -0.605292
C262  C     C_3   0.861803 0.385659 0.093275 0.140188
H274  H     H_    0.801849 0.375204 0.091835 0.153475
H275  H     H_    0.878875 0.367700 0.114896 0.178611
C263  C     C_3   0.900796 0.338795 0.070830 -0.373655
H276  H     H_    0.876754 0.351082 0.049729 0.248792
H277  H     H_    0.960219 0.352162 0.070335 0.211640
C264  C     C_3   0.893017 0.256928 0.076962 -0.948603
H278  H     H_    0.920094 0.242883 0.097351 0.274537
H279  H     H_    0.919618 0.224667 0.059826 0.281356
H280  H     H_    0.834237 0.241593 0.078068 0.269156
O105  O     O_3   0.032284 0.369133 0.412860 -0.613300
C265  C     C_3   0.977910 0.316431 0.405996 0.137849
H281  H     H_    0.003446 0.261127 0.408161 0.147611
H282  H     H_    0.957503 0.320162 0.383796 0.178459
C266  C     C_3   0.912842 0.321659 0.426449 -0.341831
H283  H     H_    0.932505 0.312629 0.448456 0.242822
H284  H     H_    0.887513 0.377257 0.425070 0.220640
C267  C     C_3   0.854536 0.264502 0.419531 -0.971041
H285  H     H_    0.832820 0.273246 0.397800 0.273054
H286  H     H_    0.808370 0.269544 0.434756 0.275129
H287  H     H_    0.878135 0.208232 0.421150 0.264014
O106  O     O_3   0.631363 0.973566 0.411939 -0.600757
C268  C     C_3   0.653933 0.899428 0.408280 0.142913
H288  H     H_    0.714958 0.898175 0.408421 0.156002
H289  H     H_    0.636692 0.874955 0.387683 0.169053
C269  C     C_3   0.626216 0.851922 0.432753 -0.363453
H290  H     H_    0.647119 0.874343 0.453066 0.255398
H291  H     H_    0.565192 0.853122 0.433189 0.210673
C270  C     C_3   0.651954 0.772367 0.429816 -0.944611
H292  H     H_    0.630657 0.748238 0.409860 0.270041
H293  H     H_    0.631011 0.739668 0.447898 0.277081
H294  H     H_    0.712926 0.769345 0.429831 0.265275
O107  O     O_3   0.970941 0.630295 0.411890 -0.604533
C271  C     C_3   0.024717 0.684833 0.406651 0.150166
H295  H     H_    0.996545 0.739133 0.407084 0.151622
H296  H     H_    0.051460 0.680457 0.385513 0.174207
C272  C     C_3   0.083905 0.683798 0.429727 -0.349108
H297  H     H_    0.057902 0.692939 0.450706 0.243133
H298  H     H_    0.112005 0.629416 0.429884 0.222897
C273  C     C_3   0.141069 0.743376 0.424763 -0.973085
H299  H     H_    0.169009 0.734659 0.404139 0.271977
H300  H     H_    0.182949 0.741277 0.441856 0.275665
H301  H     H_    0.114607 0.798529 0.424902 0.264586
O108  O     O_3   0.368193 0.024929 0.411870 -0.599144
C274  C     C_3   0.345915 0.098923 0.407531 0.144083
H302  H     H_    0.284908 0.100562 0.407955 0.155639
H303  H     H_    0.362452 0.121782 0.386591 0.169472
C275  C     C_3   0.374882 0.148047 0.431331 -0.365569
H304  H     H_    0.354802 0.127206 0.451996 0.255317
H305  H     H_    0.435915 0.146614 0.431455 0.210229
C276  C     C_3   0.349307 0.227466 0.427645 -0.949913
H306  H     H_    0.369774 0.250013 0.407305 0.269223
H307  H     H_    0.371179 0.261413 0.445233 0.278205
H308  H     H_    0.288353 0.230748 0.427965 0.263948
O109  O     O_3   0.114178 0.571371 0.585082 -0.596577
C277  C     C_3   0.099928 0.647581 0.582776 0.122316
H309  H     H_    0.108645 0.675034 0.603419 0.136324
H310  H     H_    0.042518 0.659111 0.575732 0.140587
C278  C     C_3   0.152679 0.680558 0.561218 -0.309775
H311  H     H_    0.210156 0.669669 0.568040 0.228613
H312  H     H_    0.144175 0.654002 0.540342 0.249621
C279  C     C_3   0.140617 0.763218 0.558127 -1.011050
H313  H     H_    0.083710 0.774956 0.550824 0.270067
H314  H     H_    0.179629 0.785410 0.542285 0.274694
H315  H     H_    0.150173 0.791257 0.578673 0.263673
O110  O     O_3   0.634050 0.008967 0.587862 -0.596377
C280  C     C_3   0.662656 0.079876 0.593382 0.147708
H316  H     H_    0.722866 0.077523 0.589643 0.152148
H317  H     H_    0.655528 0.097517 0.615814 0.178644
C281  C     C_3   0.629165 0.137360 0.573307 -0.370535
H318  H     H_    0.642998 0.122756 0.551113 0.251546
H319  H     H_    0.568430 0.138390 0.575530 0.212667
C282  C     C_3   0.658126 0.214010 0.579670 -0.962528
H320  H     H_    0.642145 0.231115 0.601379 0.277156
H321  H     H_    0.634608 0.253908 0.564302 0.276410
H322  H     H_    0.718811 0.214653 0.577860 0.270804
O111  O     O_3   0.892431 0.427343 0.587452 -0.638857
C283  C     C_3   0.907435 0.351111 0.588121 0.147499
H323  H     H_    0.894222 0.328513 0.609378 0.174405
H324  H     H_    0.966198 0.338799 0.583129 0.146536
C284  C     C_3   0.859567 0.313095 0.566040 -0.332425
H325  H     H_    0.800710 0.323243 0.570998 0.225964
H326  H     H_    0.871207 0.336516 0.544808 0.250750
C285  C     C_3   0.874334 0.230492 0.565331 -1.004859
H327  H     H_    0.932695 0.219331 0.559890 0.271707
H328  H     H_    0.838922 0.204588 0.549044 0.272530
H329  H     H_    0.861833 0.205550 0.586218 0.265521
O112  O     O_3   0.367901 0.980131 0.588149 -0.603911
C286  C     C_3   0.343293 0.907043 0.592183 0.136827
H330  H     H_    0.282631 0.907093 0.589556 0.150609
H331  H     H_    0.354156 0.885496 0.613891 0.177571
C287  C     C_3   0.376660 0.855128 0.570015 -0.360857
H332  H     H_    0.357808 0.872143 0.548618 0.251121
H333  H     H_    0.437563 0.857874 0.570711 0.211998
C288  C     C_3   0.354024 0.775806 0.575256 -0.963189
H334  H     H_    0.376248 0.756222 0.595838 0.275620
H335  H     H_    0.375995 0.740154 0.558136 0.278275
H336  H     H_    0.293350 0.771516 0.575527 0.270161

loop_
_geom_bond_atom_site_label_1
_geom_bond_atom_site_label_2
_ccdc_geom_bond_type
C50   N3    S    
C224  C225  S    
C275  H305  S    
O83   C199  S    
O44   Zn12  S    
O105  C265  S    
O14   Zn4   S    
C33   C45   A    
C242  H227  S    
C88   O44   A    
C162  H40   S    
C120  C144  A    
C281  C282  S    
C246  H236  S    
C258  H266  S    
C283  H323  S    
C152  H18   S    
C266  H283  S    
C280  H316  S    
C99   N5    A    
C287  C288  S    
C180  H82   S    
C277  H310  S    
C142  O78   S    
C164  H46   S    
C197  H122  S    
C262  H275  S    
C112  C124  A    
C254  H256  S    
C260  C261  S    
C34   O106  S    
C96   O56   S    
C275  C276  S    
C251  H248  S    
C22   C38   A    
O109  C277  S    
C119  C143  A    
C149  H10   S    
C62   C70   T    
C40   C48   A    
C157  H29   S    
C103  O63   S    
C8    O16   A    
O13   Zn4   S    
C192  H111  S    
C13   C51   A    
O103  C259  S    
C233  C234  S    
C14   C52   A    
O111  C283  S    
C101  O61   S    
C279  H313  S    
C263  C264  S    
O22   Zn6   S    
C53   N8    S    
C243  H231  S    
C27   O99   S    
C241  H225  S    
C15   C51   A    
C97   C115  A    
C40   O112  S    
C185  C186  S    
C188  C189  S    
C261  H271  S    
O33   Zn5   S    
C265  H282  S    
C103  C117  A    
C259  C260  S    
C183  H89   S    
C271  H296  S    
C253  H253  S    
C198  H126  S    
C217  H170  S    
C43   C75   S    
C167  H53   S    
C23   O95   S    
C109  C133  A    
C236  H213  S    
C161  C162  S    
C18   O90   S    
C154  H22   S    
C175  H71   S    
C104  O64   S    
C121  C128  A    
C20   C54   A    
C95   C109  A    
C184  C185  S    
C25   C41   A    
C267  H286  S    
C174  H69   S    
C2    C59   S    
C123  C126  A    
C22   C56   A    
C100  N6    A    
C7    O11   A    
C101  N7    A    
C1    O1    A    
C5    O9    A    
C6    C63   S    
C276  H308  S    
C204  H138  S    
C239  H220  S    
C11   C49   A    
C66   C82   S    
C218  C219  S    
C11   C27   A    
O6    Zn2   S    
C240  H224  S    
C241  C242  S    
C247  H240  S    
O72   C166  S    
C9    C49   A    
C143  O79   S    
C159  H33   S    
C264  H280  S    
C145  H2    S    
C81   O37   A    
C54   N7    S    
C211  C212  S    
C92   C106  A    
C163  H43   S    
C210  H153  S    
C63   C71   T    
C180  H84   S    
C249  H244  S    
C228  H195  S    
C256  H260  S    
C242  C243  S    
C193  H114  S    
C202  C203  S    
O32   Zn12  S    
C273  H300  S    
O79   C187  S    
C35   C45   A    
C283  C284  S    
O99   C247  S    
C266  C267  S    
O90   C220  S    
C39   C47   A    
O104  C262  S    
C98   N6    A    
C280  C281  S    
C13   C29   A    
C106  C130  A    
C21   O93   S    
C287  H332  S    
O70   C160  S    
C169  C170  S    
O92   C226  S    
C197  C198  S    
C12   O84   S    
C245  H235  S    
C223  H183  S    
C187  H100  S    
O19   Zn7   S    
C260  H269  S    
C23   C55   A    
C24   C56   A    
C249  H245  S    
C149  C150  S    
O43   Zn11  S    
C231  H201  S    
C104  N8    A    
C273  H301  S    
C274  C275  S    
O41   Zn9   S    
C232  H205  S    
C13   O85   S    
O81   C193  S    
O82   C196  S    
O42   Zn10  S    
C171  H63   S    
C36   O108  S    
C195  H118  S    
O5    Zn2   S    
C255  H258  S    
O97   C241  S    
C26   O98   S    
O80   C190  S    
C87   O43   A    
C174  H68   S    
C28   O100  S    
C214  C215  S    
O110  C280  S    
C160  H37   S    
C170  H59   S    
C173  H67   S    
C246  H238  S    
C19   C35   A    
C218  H172  S    
C194  H115  S    
C252  H250  S    
C183  H91   S    
O46   Zn10  S    
C161  H39   S    
C151  H15   S    
C90   O50   S    
O11   Zn3   S    
C226  C227  S    
C205  H142  S    
C67   C83   S    
C91   C105  A    
C248  H241  S    
C94   O54   S    
C175  C176  S    
C257  H262  S    
O31   Zn9   S    
C192  H110  S    
C248  C249  S    
C21   C55   A    
C200  H130  S    
C129  C144  A    
C99   O59   S    
C208  H148  S    
O78   C184  S    
C89   N1    A    
C165  H47   S    
C97   O57   S    
C195  H117  S    
C162  H41   S    
C281  H319  S    
C227  H192  S    
C279  H315  S    
C95   N3    A    
O48   Zn12  S    
C114  C126  A    
C258  H264  S    
C168  H55   S    
C205  C206  S    
C32   O104  S    
C181  H85   S    
C10   C26   A    
C20   O92   S    
C147  H5    S    
C215  C216  S    
C206  H144  S    
C148  H8    S    
C122  C127  A    
C44   C76   S    
C135  O71   S    
C169  H58   S    
C59   C67   T    
O18   Zn6   S    
C235  C236  S    
O8    Zn2   S    
C200  H129  S    
C219  H174  S    
C207  H145  S    
C138  O74   S    
C256  C257  S    
C36   C46   A    
C34   C46   A    
C80   O30   A    
C37   C47   A    
C146  H3    S    
O39   Zn5   S    
C38   C48   A    
C265  C266  S    
O7    Zn2   S    
C233  H207  S    
C222  H182  S    
C2    O2    A    
C158  H31   S    
C268  H289  S    
C39   O111  S    
C215  H164  S    
C112  C136  A    
C223  C224  S    
C137  O73   S    
C196  H121  S    
O65   C145  S    
C131  O67   S    
C278  H312  S    
C94   N4    A    
C165  H48   S    
C220  H177  S    
C133  O69   S    
C92   N2    A    
O1    Zn1   S    
C231  H203  S    
C100  C114  A    
C173  H66   S    
C259  H268  S    
C8    O12   A    
C182  C183  S    
C134  C139  A    
C209  H150  S    
C186  H98   S    
C185  H95   S    
C277  C278  S    
C244  H233  S    
C77   O25   A    
O107  C271  S    
C49   N4    S    
C236  H214  S    
C17   O89   S    
C204  H140  S    
C11   O83   S    
C230  H199  S    
C136  O72   S    
C181  H86   S    
C146  H4    S    
C177  H76   S    
C214  H162  S    
C170  C171  S    
C16   O88   S    
C106  C122  A    
O23   Zn5   S    
C150  H13   S    
C250  H247  S    
C253  C254  S    
C194  C195  S    
C216  H167  S    
C9    O81   S    
C155  H25   S    
C252  H252  S    
C151  C152  S    
O12   Zn3   S    
C207  H146  S    
O88   C214  S    
C141  O77   S    
C281  H318  S    
C176  H74   S    
C105  C129  A    
C286  C287  S    
C263  H277  S    
C110  C134  A    
C5    O15   A    
O91   C223  S    
C257  C258  S    
O45   Zn11  S    
C91   N1    A    
C192  H112  S    
C69   C85   S    
C199  H127  S    
C26   C42   A    
C177  H77   S    
C132  O68   S    
C208  C209  S    
C132  C141  A    
C224  H186  S    
O108  C274  S    
C29   O101  S    
C237  H215  S    
C238  C239  S    
O24   Zn8   S    
C239  C240  S    
C139  O75   S    
C156  H28   S    
C82   O34   A    
C195  H119  S    
O74   C172  S    
C258  H265  S    
C155  C156  S    
C283  H324  S    
C12   C50   A    
C255  H259  S    
C15   C31   A    
O68   C154  S    
O2    Zn1   S    
C16   C32   A    
C22   O94   S    
C219  H175  S    
C148  C149  S    
C33   O105  S    
C197  H123  S    
C153  H19   S    
C90   C108  A    
C254  H255  S    
C86   O42   A    
C282  H322  S    
C19   O91   S    
C260  H270  S    
C178  H79   S    
O35   Zn7   S    
C18   C34   A    
C207  H147  S    
C235  H212  S    
O66   C148  S    
C172  C173  S    
C79   O31   A    
C157  H30   S    
C114  C138  A    
O27   Zn11  S    
C213  H159  S    
C234  H210  S    
C185  H94   S    
C108  C132  A    
C225  H187  S    
O25   Zn9   S    
C285  H328  S    
C284  C285  S    
C209  H151  S    
C179  H80   S    
C158  C159  S    
C3    O5    A    
C37   O109  S    
C45   C77   S    
C38   O110  S    
C203  H136  S    
O89   C217  S    
C181  C182  S    
C222  H180  S    
C102  N8    A    
C221  H178  S    
C237  H217  S    
C119  C127  A    
C6    O14   A    
C154  C155  S    
C157  C158  S    
C171  H61   S    
C173  C174  S    
C87   O47   A    
C269  H291  S    
C183  H90   S    
C201  H131  S    
C140  O76   S    
C9    C25   A    
O67   C151  S    
C270  H293  S    
C211  H155  S    
C198  H124  S    
C269  H290  S    
C229  H197  S    
C77   O27   A    
C12   C28   A    
C78   O28   A    
C83   O39   A    
C267  H285  S    
C175  H72   S    
C230  C231  S    
C184  H93   S    
C120  C128  A    
C190  C191  S    
C75   O21   A    
C10   O82   S    
C172  H64   S    
C88   O46   A    
C276  H307  S    
O84   C202  S    
C239  H221  S    
C110  C124  A    
C217  H169  S    
C102  O62   S    
C178  H78   S    
C240  H223  S    
C286  H330  S    
C245  C246  S    
O4    Zn1   S    
C227  C228  S    
C264  H279  S    
C92   O52   S    
C269  C270  S    
C103  N7    A    
C3    C60   S    
C163  H44   S    
C275  H304  S    
C7    O13   A    
C152  C153  S    
C238  H218  S    
C180  H83   S    
C202  H134  S    
C228  H194  S    
C29   C43   A    
C95   O55   S    
C253  H254  S    
C242  H228  S    
C261  H273  S    
C30   C44   A    
C17   C33   A    
C266  H284  S    
C147  H7    S    
C104  C118  A    
O76   C178  S    
C280  H317  S    
C35   O107  S    
C96   N4    A    
C287  H333  S    
C42   C74   S    
C277  H309  S    
C75   O23   A    
C166  H50   S    
C68   C84   S    
C76   O24   A    
C262  C263  S    
C285  H327  S    
O40   Zn8   S    
C223  H184  S    
C254  C255  S    
C108  C122  A    
O71   C163  S    
C46   C78   S    
O98   C244  S    
C51   N2    S    
C188  H102  S    
O96   C238  S    
C111  C123  A    
O28   Zn12  S    
O29   Zn11  S    
C274  H302  S    
C199  C200  S    
C231  H202  S    
C194  H116  S    
C117  C141  A    
O87   C211  S    
C274  H303  S    
C232  H204  S    
O20   Zn8   S    
C164  C165  S    
C65   C81   S    
C270  H292  S    
C165  H49   S    
C1    O7    A    
C2    O6    A    
C89   C107  A    
C3    O3    A    
C245  H234  S    
C191  H109  S    
C215  H165  S    
C117  C127  A    
C31   C43   A    
C93   C111  A    
C221  C222  S    
C71   C87   S    
C85   O45   A    
O106  C268  S    
C4    O4    A    
C30   O102  S    
C246  H237  S    
C265  H281  S    
C84   O36   A    
O112  C286  S    
C107  C121  A    
C73   O17   A    
C10   C50   A    
C17   C53   A    
C282  H320  S    
C102  C120  A    
C271  H295  S    
C151  H16   S    
O101  C253  S    
C226  H191  S    
C167  H52   S    
C82   O40   A    
C78   O26   A    
C267  H287  S    
O30   Zn10  S    
C16   C52   A    
C57   C65   T    
C257  H263  S    
C99   C113  A    
C174  H70   S    
C189  H104  S    
C190  H106  S    
C248  H242  S    
C189  H103  S    
C160  C161  S    
C178  C179  S    
C211  H156  S    
C113  C137  A    
C166  C167  S    
C31   O103  S    
O38   Zn6   S    
C212  C213  S    
C111  C135  A    
C168  H54   S    
C96   C110  A    
C76   O22   A    
C247  H239  S    
C147  H6    S    
O3    Zn1   S    
C145  H1    S    
C144  O80   S    
C20   C36   A    
C79   O29   A    
C210  H154  S    
C21   C37   A    
O86   C208  S    
C60   C68   T    
C133  C140  A    
C15   O87   S    
C249  H243  S    
C228  H196  S    
C250  H246  S    
C256  H261  S    
O9    Zn3   S    
C193  H113  S    
C136  C137  A    
C182  H87   S    
C273  H299  S    
C184  H92   S    
C186  H96   S    
C91   O51   S    
C288  H335  S    
C167  C168  S    
C135  C138  A    
C89   O49   S    
C176  H73   S    
C234  H209  S    
C279  H314  S    
C52   N1    S    
C222  H181  S    
C206  C207  S    
C268  H288  S    
C262  H274  S    
C47   C79   S    
C234  H208  S    
C93   O53   S    
C187  H99   S    
C189  H105  S    
C244  H232  S    
C224  H185  S    
C278  H311  S    
C219  H173  S    
C98   O58   S    
C217  C218  S    
C130  O66   S    
C220  H176  S    
C160  H36   S    
C251  H249  S    
O73   C169  S    
C145  C146  S    
C134  O70   S    
O94   C232  S    
C159  H34   S    
C288  H334  S    
C232  C233  S    
C182  H88   S    
C186  H97   S    
C113  C125  A    
C226  H190  S    
C129  O65   S    
C156  H26   S    
C285  H329  S    
C218  H171  S    
C94   C112  A    
C204  H139  S    
O95   C235  S    
C58   C66   T    
O17   Zn5   S    
O75   C175  S    
C149  H11   S    
C198  H125  S    
C193  C194  S    
C4    C57   S    
C84   O38   A    
C196  C197  S    
C73   O19   A    
C216  H166  S    
C227  H193  S    
C271  C272  S    
C8    C61   S    
C19   C53   A    
C80   O32   A    
C205  H141  S    
C116  C126  A    
C286  H331  S    
C191  C192  S    
C83   O35   A    
C206  H143  S    
C118  C128  A    
C14   C30   A    
C159  H35   S    
C81   O33   A    
C72   C88   S    
C199  H128  S    
C200  C201  S    
C208  H149  S    
C284  H325  S    
C237  H216  S    
C238  H219  S    
C252  H251  S    
O26   Zn10  S    
C101  C119  A    
C6    O10   A    
C162  H42   S    
C243  H229  S    
C107  C131  A    
C272  C273  S    
C212  H157  S    
C164  H45   S    
C209  C210  S    
C168  H56   S    
C202  H135  S    
C163  C164  S    
C213  H161  S    
C170  H60   S    
O93   C229  S    
C41   C73   S    
C276  H306  S    
C100  O60   S    
C247  C248  S    
O16   Zn4   S    
C243  H230  S    
C148  H9    S    
C153  H20   S    
C169  H57   S    
C282  H321  S    
C146  C147  S    
C27   C41   A    
C98   C116  A    
C210  H152  S    
O69   C157  S    
C172  H65   S    
C105  C121  A    
C213  H160  S    
C130  C143  A    
O47   Zn9   S    
C131  C142  A    
C225  H188  S    
O36   Zn8   S    
C171  H62   S    
C233  H206  S    
C284  H326  S    
O85   C205  S    
C179  H81   S    
C158  H32   S    
C288  H336  S    
O34   Zn6   S    
C268  C269  S    
C153  H21   S    
C25   O97   S    
C203  H137  S    
C152  H17   S    
C70   C86   S    
C187  C188  S    
O15   Zn4   S    
C244  C245  S    
C255  H257  S    
C55   N6    S    
C221  H179  S    
C196  H120  S    
C278  C279  S    
C61   C69   T    
C272  H297  S    
O10   Zn3   S    
C235  H211  S    
C220  C221  S    
C97   N5    A    
C272  H298  S    
C214  H163  S    
C263  H276  S    
C74   O20   A    
C270  H294  S    
C115  C139  A    
C259  H267  S    
C118  C142  A    
C225  H189  S    
C14   O86   S    
C201  H132  S    
C150  H12   S    
O37   Zn7   S    
C179  C180  S    
O77   C181  S    
C229  H198  S    
C212  H158  S    
C115  C125  A    
C241  H226  S    
C236  C237  S    
C161  H38   S    
C48   C80   S    
C203  C204  S    
C156  H27   S    
C56   N5    S    
C166  H51   S    
C90   N2    A    
C154  H23   S    
C1    C58   S    
C190  H107  S    
C85   O41   A    
C177  H75   S    
C4    O8    A    
C23   C39   A    
C28   C42   A    
C24   C40   A    
C5    C62   S    
C93   N3    A    
C250  C251  S    
C261  H272  S    
C64   C72   T    
O100  C250  S    
C216  H168  S    
C7    C64   S    
C74   O18   A    
C201  H133  S    
C155  H24   S    
C18   C54   A    
C230  H200  S    
C32   C44   A    
C229  C230  S    
C24   O96   S    
C240  H222  S    
C176  C177  S    
C191  H108  S    
O102  C256  S    
C109  C123  A    
C264  H278  S    
C251  C252  S    
C188  H101  S    
C150  H14   S    
C86   O48   A    
C124  C125  A    
C116  C140  A    
O21   Zn7   S    
