data_mof_unit_pretest_1011.cif
_audit_creation_date              2012-12-11T15:55:05-0500
_audit_creation_method            fapswitch 2.2
_symmetry_space_group_name_H-M    P1
_symmetry_Int_Tables_number       1
_space_group_crystal_system       triclinic
_cell_length_a                    17.526424
_cell_length_b                    24.380242
_cell_length_c                    14.996901
_cell_angle_alpha                 89.985305
_cell_angle_beta                  125.920782
_cell_angle_gamma                 90.010981
_cell_volume                      5189.507068

loop_
_atom_site_label
_atom_site_type_symbol
_atom_type_description
_atom_site_fract_x
_atom_site_fract_y
_atom_site_fract_z
_atom_type_partial_charge
C1    C     C_R   0.901896 0.876888 0.092299 -0.145676
C2    C     C_R   0.902280 0.123487 0.092416 -0.147517
C3    C     C_R   0.402073 0.376771 0.092395 -0.145514
C4    C     C_R   0.402046 0.623354 0.092280 -0.147437
C5    C     C_R   0.057503 0.848550 0.907426 -0.158259
C6    C     C_R   0.058227 0.151083 0.907048 -0.114877
C7    C     C_R   0.558165 0.348908 0.907080 -0.117669
C8    C     C_R   0.557773 0.651293 0.907232 -0.157654
C9    C     C_R   0.150882 0.151748 0.090734 -0.152289
C10   C     C_R   0.150356 0.848101 0.090966 -0.153400
C11   C     C_R   0.650644 0.651827 0.090799 -0.154581
C12   C     C_R   0.650623 0.348206 0.090792 -0.150615
C13   C     C_R   0.324281 0.999965 0.273672 -0.003842
C14   C     C_R   0.824278 0.500042 0.273649 -0.003408
C15   C     C_R   0.046740 0.999672 0.722613 -0.000105
C16   C     C_R   0.546062 0.500501 0.721932 0.001146
C17   C     C_R   0.121691 0.817971 0.998482 0.016598
C18   C     C_R   0.122693 0.181593 0.998014 0.016002
C19   C     C_R   0.622301 0.318332 0.998102 0.012396
C20   C     C_R   0.622341 0.681750 0.998156 0.018437
C21   C     C_3   0.129477 0.046807 0.546586 -0.509183
C22   C     C_3   0.964257 0.007038 0.425196 -0.494867
C23   C     C_3   0.463999 0.490081 0.425115 -0.497957
C24   C     C_3   0.632356 0.455149 0.548651 -0.507207
C25   C     C_3   0.121157 0.048285 0.643681 -0.153117
C26   C     C_3   0.957296 0.006938 0.522150 -0.147478
C27   C     C_3   0.456940 0.490964 0.521978 -0.154500
C28   C     C_3   0.623484 0.453318 0.645378 -0.152890
C29   C     C_3   0.106489 0.944576 0.530206 -0.416584
C30   C     C_3   0.600922 0.556605 0.526031 -0.418286
C31   C     C_3   0.067826 0.999599 0.466454 0.403698
C32   C     C_3   0.566829 0.500498 0.465756 0.405367
C33   C     C_3   0.058092 0.999321 0.632816 0.189634
C34   C     C_3   0.557243 0.500887 0.632092 0.192160
C35   C     C_R   0.809056 0.122107 0.907926 -0.138130
C36   C     C_R   0.808937 0.877991 0.907736 -0.134625
C37   C     C_R   0.309041 0.622168 0.907752 -0.141372
C38   C     C_R   0.308923 0.378037 0.907851 -0.131912
C39   C     C_3   0.102411 0.944627 0.629345 -0.427544
C40   C     C_3   0.597789 0.556495 0.625681 -0.430266
C41   C     C_3   0.673197 0.196971 0.879584 -0.481621
C42   C     C_3   0.676542 0.801082 0.879490 -0.452496
C43   C     C_3   0.173683 0.697321 0.879386 -0.481599
C44   C     C_3   0.175483 0.301815 0.879722 -0.451140
C45   C     C_3   0.118654 0.745842 0.878932 -0.417104
C46   C     C_3   0.118917 0.254145 0.878675 -0.418005
C47   C     C_3   0.619945 0.246653 0.878508 -0.411593
C48   C     C_3   0.619800 0.753536 0.878436 -0.422947
C49   C     C_3   0.322169 0.732863 0.048851 -0.368713
C50   C     C_3   0.323854 0.268513 0.056223 -0.397787
C51   C     C_3   0.822138 0.233404 0.046798 -0.366725
C52   C     C_3   0.824040 0.768791 0.058019 -0.392251
C53   C     C_3   0.711779 0.169311 0.063574 0.109380
C54   C     C_3   0.706263 0.832434 0.057250 0.084302
C55   C     C_3   0.209767 0.668504 0.061395 0.107108
C56   C     C_3   0.207954 0.332032 0.059527 0.083732
C57   C     C_3   0.756823 0.182120 0.000289 0.331542
C58   C     C_3   0.755850 0.818476 0.000111 0.299763
C59   C     C_3   0.256312 0.681793 0.000038 0.336961
C60   C     C_3   0.255984 0.318494 0.000358 0.294946
C61   C     C_3   0.166494 0.767420 0.998045 0.364990
C62   C     C_3   0.167193 0.232202 0.997409 0.347481
C63   C     C_3   0.666806 0.267741 0.997640 0.352988
C64   C     C_3   0.666969 0.732284 0.997433 0.363348
C65   C     C_3   0.270026 0.782478 0.048698 -0.399191
C66   C     C_3   0.270353 0.217291 0.046289 -0.383862
C67   C     C_3   0.770979 0.282370 0.050647 -0.384551
C68   C     C_3   0.770595 0.717567 0.048212 -0.400708
C69   C     C_3   0.163873 0.721536 0.067923 -0.438666
C70   C     C_3   0.165134 0.277911 0.068111 -0.428040
C71   C     C_3   0.661732 0.221634 0.065124 -0.435877
C72   C     C_3   0.663457 0.778423 0.066308 -0.429574
C73   C     C_3   0.476241 0.948327 0.358240 -0.417449
C74   C     C_3   0.476475 0.051227 0.357556 -0.408794
C75   C     C_3   0.976505 0.448819 0.357461 -0.408759
C76   C     C_3   0.976216 0.551717 0.358326 -0.417458
C77   C     C_R   0.745554 0.954377 0.694312 -0.133234
C78   C     C_R   0.745489 0.045591 0.694284 -0.153790
C79   C     C_R   0.245478 0.454410 0.694302 -0.152566
C80   C     C_R   0.245543 0.545625 0.694313 -0.135171
C81   C     C_3   0.580481 0.948203 0.457976 -0.383347
C82   C     C_3   0.580807 0.051275 0.457144 -0.390467
C83   C     C_3   0.080862 0.448790 0.457018 -0.388766
C84   C     C_3   0.080423 0.551860 0.458119 -0.385170
C85   C     C_3   0.435363 0.000218 0.471458 -0.384392
C86   C     C_3   0.935347 0.499660 0.471436 -0.384226
C87   C     C_3   0.426116 0.999932 0.362067 0.399827
C88   C     C_3   0.926112 0.500061 0.362053 0.399622
C89   C     C_3   0.602356 0.999935 0.529940 0.382007
C90   C     C_3   0.102347 0.500053 0.529945 0.382333
C91   C     C_3   0.538395 0.000298 0.569518 -0.418223
C92   C     C_3   0.038375 0.499533 0.569505 -0.418790
C93   C     C_R   0.049258 0.045568 0.304664 -0.152132
C94   C     C_R   0.049966 0.954174 0.304576 -0.163693
C95   C     C_R   0.549599 0.545885 0.304281 -0.161058
C96   C     C_R   0.548867 0.454454 0.304532 -0.154806
C97   C     C_R   0.812674 0.863413 0.999912 -0.008505
C98   C     C_R   0.813144 0.136981 0.000231 -0.011448
C99   C     C_R   0.312750 0.363437 0.000106 -0.007243
C100  C     C_R   0.312920 0.636844 0.999960 -0.012005
C101  C     C_R   0.699360 0.999970 0.630502 0.061342
C102  C     C_R   0.199344 0.500032 0.630517 0.062992
C103  C     C_R   0.065803 0.999753 0.367474 0.027773
C104  C     C_R   0.564831 0.500318 0.366902 0.028125
C105  C     C_R   0.267983 0.953954 0.247585 -0.138440
C106  C     C_R   0.268041 0.046009 0.247635 -0.129940
C107  C     C_R   0.768030 0.453994 0.247593 -0.130171
C108  C     C_R   0.767987 0.546050 0.247593 -0.138057
C109  C     C_R   0.017921 0.045936 0.749497 -0.075971
C110  C     C_R   0.019718 0.953753 0.752273 -0.098927
C111  C     C_R   0.519161 0.546356 0.751735 -0.102944
C112  C     C_R   0.517810 0.454143 0.749305 -0.073424
H1    H     H_    0.931625 0.868367 0.177420 0.087198
H2    H     H_    0.932574 0.132196 0.177383 0.117363
H3    H     H_    0.432126 0.367933 0.177465 0.087299
H4    H     H_    0.431908 0.631863 0.177275 0.119219
H5    H     H_    0.106102 0.087190 0.504325 0.154088
H6    H     H_    0.935948 0.046569 0.380003 0.163828
H7    H     H_    0.439562 0.449364 0.383725 0.162809
H8    H     H_    0.612893 0.414178 0.508641 0.152202
H9    H     H_    0.085430 0.087527 0.636467 0.125550
H10   H     H_    0.929815 0.047901 0.523877 0.133612
H11   H     H_    0.431726 0.449672 0.526131 0.131924
H12   H     H_    0.590051 0.413356 0.639593 0.125954
H13   H     H_    0.180276 0.937996 0.558079 0.152218
H14   H     H_    0.063383 0.909437 0.476836 0.147901
H15   H     H_    0.554473 0.590351 0.470616 0.150401
H16   H     H_    0.673831 0.565414 0.552748 0.152541
H17   H     H_    0.174044 0.938652 0.706668 0.152849
H18   H     H_    0.060397 0.908455 0.621176 0.144328
H19   H     H_    0.553663 0.591783 0.616118 0.144925
H20   H     H_    0.669241 0.564009 0.702320 0.153509
H21   H     H_    0.699095 0.208036 0.829617 0.174168
H22   H     H_    0.707682 0.787242 0.836472 0.171205
H23   H     H_    0.200979 0.709744 0.831464 0.170383
H24   H     H_    0.205466 0.288277 0.835259 0.177167
H25   H     H_    0.624211 0.161584 0.838684 0.155922
H26   H     H_    0.628507 0.836137 0.832449 0.147380
H27   H     H_    0.125464 0.661826 0.836293 0.153098
H28   H     H_    0.127617 0.337129 0.834060 0.149032
H29   H     H_    0.545151 0.235320 0.839954 0.155209
H30   H     H_    0.546384 0.767074 0.842229 0.153229
H31   H     H_    0.044830 0.733180 0.842670 0.153917
H32   H     H_    0.045796 0.267734 0.843849 0.155606
H33   H     H_    0.116841 0.778331 0.825511 0.157488
H34   H     H_    0.115176 0.221822 0.823796 0.171548
H35   H     H_    0.621086 0.279111 0.827001 0.173312
H36   H     H_    0.616981 0.720833 0.824756 0.156603
H37   H     H_    0.348482 0.742459 0.998610 0.154180
H38   H     H_    0.361099 0.260560 0.017617 0.170939
H39   H     H_    0.844642 0.243590 0.992959 0.162857
H40   H     H_    0.862407 0.760563 0.020873 0.163521
H41   H     H_    0.751380 0.126989 0.822316 0.094391
H42   H     H_    0.751561 0.872606 0.822105 0.091088
H43   H     H_    0.251566 0.627362 0.822124 0.093071
H44   H     H_    0.251437 0.372746 0.822243 0.092560
H45   H     H_    0.273225 0.816251 0.000882 0.158486
H46   H     H_    0.272660 0.186861 0.992472 0.197826
H47   H     H_    0.775832 0.317509 0.006626 0.189304
H48   H     H_    0.773981 0.686824 0.995654 0.162981
H49   H     H_    0.654370 0.139322 0.010037 0.071919
H50   H     H_    0.646892 0.860831 0.001201 0.117522
H51   H     H_    0.149936 0.640484 0.004581 0.070023
H52   H     H_    0.148683 0.360764 0.004922 0.121973
H53   H     H_    0.586722 0.212100 0.028943 0.135437
H54   H     H_    0.589396 0.785852 0.036696 0.141508
H55   H     H_    0.089668 0.712988 0.036666 0.128897
H56   H     H_    0.091453 0.285441 0.039826 0.147840
H57   H     H_    0.200508 0.736018 0.153785 0.171997
H58   H     H_    0.205763 0.263701 0.155028 0.162468
H59   H     H_    0.693205 0.236256 0.149821 0.167357
H60   H     H_    0.703367 0.764712 0.153488 0.162240
H61   H     H_    0.386057 0.725985 0.133298 0.145438
H62   H     H_    0.378778 0.276604 0.145049 0.144615
H63   H     H_    0.888370 0.226750 0.129420 0.145631
H64   H     H_    0.878016 0.777390 0.146873 0.143344
H65   H     H_    0.306490 0.797207 0.134951 0.152064
H66   H     H_    0.306321 0.198337 0.129336 0.145232
H67   H     H_    0.807039 0.294901 0.138115 0.152341
H68   H     H_    0.805918 0.699080 0.131553 0.146783
H69   H     H_    0.443597 0.909965 0.361048 0.146017
H70   H     H_    0.444056 0.089772 0.360010 0.145034
H71   H     H_    0.944122 0.410243 0.359897 0.145867
H72   H     H_    0.943529 0.590048 0.361131 0.145240
H73   H     H_    0.470740 0.947858 0.280457 0.161591
H74   H     H_    0.470818 0.051316 0.279674 0.163430
H75   H     H_    0.970815 0.448790 0.279557 0.164654
H76   H     H_    0.970774 0.552244 0.280581 0.160631
H77   H     H_    0.626513 0.947231 0.429503 0.195701
H78   H     H_    0.626750 0.051601 0.428515 0.181745
H79   H     H_    0.126771 0.448591 0.428339 0.184985
H80   H     H_    0.126512 0.552964 0.429729 0.193261
H81   H     H_    0.733179 0.912035 0.668287 0.084127
H82   H     H_    0.732932 0.087937 0.668241 0.085218
H83   H     H_    0.232910 0.412067 0.668273 0.085495
H84   H     H_    0.233171 0.587971 0.668277 0.083449
H85   H     H_    0.593690 0.910076 0.505629 0.139123
H86   H     H_    0.594467 0.089671 0.504214 0.140816
H87   H     H_    0.094615 0.410340 0.504004 0.140905
H88   H     H_    0.093522 0.589930 0.505852 0.138693
H89   H     H_    0.400216 0.963503 0.476521 0.151842
H90   H     H_    0.400235 0.037085 0.475999 0.152406
H91   H     H_    0.900194 0.462767 0.475885 0.152498
H92   H     H_    0.900219 0.536348 0.476578 0.151831
H93   H     H_    0.552727 0.963653 0.621648 0.153417
H94   H     H_    0.552799 0.037281 0.620860 0.155366
H95   H     H_    0.052773 0.462472 0.620691 0.155260
H96   H     H_    0.052700 0.536099 0.621785 0.153641
H97   H     H_    0.061070 0.087933 0.330534 0.089294
H98   H     H_    0.064114 0.911806 0.330403 0.085744
H99   H     H_    0.563943 0.588254 0.330109 0.088769
H100  H     H_    0.560608 0.412122 0.330681 0.085922
H101  H     H_    0.289087 0.911506 0.263252 0.089090
H102  H     H_    0.289286 0.088437 0.263491 0.088191
H103  H     H_    0.789269 0.411564 0.263407 0.088783
H104  H     H_    0.789093 0.588497 0.263287 0.088487
H105  H     H_    0.022048 0.088229 0.731554 0.088994
H106  H     H_    0.025796 0.911202 0.738139 0.078265
H107  H     H_    0.525159 0.588936 0.737762 0.079676
H108  H     H_    0.522069 0.411884 0.731274 0.086452
H109  H     H_    0.012543 0.835399 0.822524 0.087110
H110  H     H_    0.013520 0.164042 0.822012 0.079828
H111  H     H_    0.513859 0.336023 0.821977 0.080233
H112  H     H_    0.512662 0.664478 0.822354 0.087020
H113  H     H_    0.194051 0.165791 0.175167 0.082306
H114  H     H_    0.193566 0.834203 0.175507 0.082327
H115  H     H_    0.693791 0.665854 0.175248 0.081887
H116  H     H_    0.693779 0.334205 0.175267 0.082454
H117  H     H_    0.203751 0.040995 0.575472 0.150695
H118  H     H_    0.919891 0.974052 0.364799 0.156377
H119  H     H_    0.416564 0.521259 0.361722 0.158193
H120  H     H_    0.706139 0.463309 0.577693 0.150608
N1    N     N_R   0.950530 0.896220 0.057200 -0.034511
N2    N     N_R   0.950530 0.103780 0.057200 -0.038470
N3    N     N_R   0.450530 0.396220 0.057200 -0.035592
N4    N     N_R   0.450530 0.603780 0.057200 -0.037538
N5    N     N_R   0.893330 0.103780 0.942800 -0.038234
N6    N     N_R   0.893330 0.896220 0.942800 -0.037788
N7    N     N_R   0.393330 0.603780 0.942800 -0.036565
N8    N     N_R   0.393330 0.396220 0.942800 -0.039386
N9    N     N_R   0.818150 0.971400 0.792440 -0.038393
N10   N     N_R   0.818150 0.028600 0.792440 -0.037440
N11   N     N_R   0.318150 0.471400 0.792440 -0.037808
N12   N     N_R   0.318150 0.528600 0.792440 -0.038029
N13   N     N_R   0.025710 0.028600 0.207560 -0.034366
N14   N     N_R   0.025710 0.971400 0.207560 -0.032626
N15   N     N_R   0.525710 0.528600 0.207560 -0.033532
N16   N     N_R   0.525710 0.471400 0.207560 -0.033459
N17   N     N_R   0.181850 0.971400 0.207560 -0.036376
N18   N     N_R   0.181850 0.028600 0.207560 -0.036878
N19   N     N_R   0.681850 0.471400 0.207560 -0.036877
N20   N     N_R   0.681850 0.528600 0.207560 -0.036523
N21   N     N_R   0.974290 0.028600 0.792440 -0.038270
N22   N     N_R   0.974290 0.971400 0.792440 -0.031980
N23   N     N_R   0.474290 0.528600 0.792440 -0.032130
N24   N     N_R   0.474290 0.471400 0.792440 -0.037753
N25   N     N_R   0.049470 0.896220 0.942800 -0.034425
N26   N     N_R   0.049470 0.103780 0.942800 -0.035945
N27   N     N_R   0.549470 0.396220 0.942800 -0.035721
N28   N     N_R   0.549470 0.603780 0.942800 -0.034091
N29   N     N_R   0.106670 0.103780 0.057200 -0.031823
N30   N     N_R   0.106670 0.896220 0.057200 -0.031560
N31   N     N_R   0.606670 0.603780 0.057200 -0.031298
N32   N     N_R   0.606670 0.396220 0.057200 -0.031833
Ni1   Ni    Ni4+2 0.065600 0.934400 0.131190 0.204043
Ni2   Ni    Ni4+2 0.065600 0.065600 0.131190 0.204553
Ni3   Ni    Ni4+2 0.565600 0.434400 0.131190 0.205592
Ni4   Ni    Ni4+2 0.565600 0.565600 0.131190 0.203121
Ni5   Ni    Ni4+2 0.934400 0.065600 0.868810 0.216431
Ni6   Ni    Ni4+2 0.934400 0.934400 0.868810 0.218169
Ni7   Ni    Ni4+2 0.434400 0.565600 0.868810 0.217450
Ni8   Ni    Ni4+2 0.434400 0.434400 0.868810 0.217108
C113  C     C_2   0.217330 0.049043 0.752994 0.522021
H121  H     H_    0.268016 0.016858 0.773898 0.004431
O1    O     O_2   0.239249 0.086239 0.818421 -0.612211
C114  C     C_2   0.886143 0.964438 0.503499 0.516807
H122  H     H_    0.896315 0.921454 0.494470 -0.001738
O2    O     O_2   0.816431 0.978192 0.497833 -0.619312
C115  C     C_2   0.383439 0.532328 0.500862 0.526543
H123  H     H_    0.390733 0.575285 0.488353 0.002361
O3    O     O_2   0.314942 0.517629 0.496975 -0.620954
C116  C     C_2   0.719383 0.454550 0.755004 0.521404
H124  H     H_    0.768047 0.487852 0.774964 0.003797
O4    O     O_2   0.743362 0.417750 0.821799 -0.610128
C117  C     C_3   0.771013 0.138910 0.176455 -0.341929
C118  C     C_3   0.847149 0.171948 0.277664 -0.922359
H125  H     H_    0.896537 0.192474 0.265878 0.248687
H126  H     H_    0.815963 0.202791 0.301782 0.249017
H127  H     H_    0.889057 0.143547 0.348516 0.238870
H128  H     H_    0.721324 0.123902 0.194313 0.188929
H129  H     H_    0.802558 0.101222 0.169470 0.179259
C119  C     C_3   0.768337 0.862412 0.169520 -0.394026
C120  C     C_3   0.712827 0.879104 0.214655 -0.912451
H130  H     H_    0.650610 0.904202 0.153213 0.257173
H131  H     H_    0.689035 0.842580 0.236299 0.256451
H132  H     H_    0.758559 0.904026 0.290271 0.256568
H133  H     H_    0.828780 0.836293 0.231198 0.190139
H134  H     H_    0.795866 0.901028 0.159201 0.198066
C121  C     C_3   0.265936 0.634826 0.170454 -0.342034
C122  C     C_3   0.342104 0.665124 0.275890 -0.935185
H135  H     H_    0.388797 0.689951 0.265403 0.251455
H136  H     H_    0.310256 0.691797 0.305815 0.250030
H137  H     H_    0.386521 0.634492 0.341493 0.237186
H138  H     H_    0.214576 0.618701 0.184780 0.186932
H139  H     H_    0.296745 0.597779 0.160161 0.180589
C123  C     C_3   0.271452 0.361281 0.172520 -0.393902
C124  C     C_3   0.217813 0.377405 0.220339 -0.908986
H140  H     H_    0.155777 0.403120 0.160747 0.260083
H141  H     H_    0.193933 0.340630 0.241224 0.256441
H142  H     H_    0.264924 0.401509 0.296949 0.257531
H143  H     H_    0.332095 0.334861 0.232697 0.191285
H144  H     H_    0.298588 0.400121 0.162402 0.198722

loop_
_geom_bond_atom_site_label_1
_geom_bond_atom_site_label_2
_ccdc_geom_bond_type
C55   C59   S    
C15   C109  A    
C77   C101  A    
C42   C58   S    
C49   H61   S    
C28   C116  S    
C116  H124  S    
C42   C48   S    
C84   C90   S    
C46   C62   S    
C72   H60   S    
C82   H86   S    
C86   C88   S    
C37   N7    A    
N9    Ni6   S    
C62   C70   S    
N6    Ni6   S    
C77   H81   S    
C21   H5    S    
C17   C61   S    
C7    N27   A    
C19   C63   S    
C32   C104  S    
C79   C102  A    
C36   C97   A    
C51   C57   S    
C79   N11   A    
N14   Ni1   S    
C76   H76   S    
C45   C61   S    
N13   N14   A    
C78   C101  A    
C119  H133  S    
C1    H1    S    
C73   C81   S    
C44   C46   S    
C23   C27   S    
C111  N23   A    
C80   H84   S    
C11   C20   A    
C24   H8    S    
C14   C88   S    
C10   N30   A    
N2    N5    A    
C24   C32   S    
C73   H69   S    
C90   C92   S    
C22   H118  S    
C123  C124  S    
C81   H77   S    
C52   C58   S    
C85   H90   S    
C14   C107  A    
C63   C71   S    
C7    C19   A    
C96   C104  A    
C53   C71   S    
N19   Ni3   S    
C91   H94   S    
C122  H135  S    
C22   H6    S    
C47   H29   S    
C30   H15   S    
C118  H127  S    
C89   C101  S    
C72   H54   S    
C121  H139  S    
C13   C106  A    
C46   H32   S    
C56   H52   S    
C42   H22   S    
C106  N18   A    
N28   Ni7   S    
C55   H51   S    
N29   Ni2   S    
C81   H85   S    
C2    H2    S    
C46   H34   S    
C110  N22   A    
N22   Ni6   S    
C115  O3    D    
C48   C64   S    
C38   N8    A    
C61   C65   S    
C107  H103  S    
C67   H47   S    
C68   H48   S    
C25   H9    S    
C23   H119  S    
C16   C111  A    
C6    H110  S    
C118  H126  S    
C29   H13   S    
N3    N8    A    
C35   N5    A    
C93   C103  A    
C41   H21   S    
C21   C31   S    
N17   N18   A    
C82   C89   S    
C108  N20   A    
C77   N9    A    
C64   C68   S    
C23   H7    S    
N21   N22   A    
C67   H67   S    
C79   H83   S    
N9    N10   A    
C12   N32   A    
N17   Ni1   S    
N26   Ni5   S    
N11   Ni8   S    
C90   C102  S    
C95   N15   A    
C74   C87   S    
C89   C91   S    
C121  H138  S    
C122  H137  S    
C43   C59   S    
C3    N3    A    
C59   C100  S    
C4    N4    A    
C111  H107  S    
N20   Ni4   S    
N3    Ni3   S    
C106  H102  S    
C47   H35   S    
C41   C57   S    
C62   C66   S    
C30   C40   S    
N10   Ni5   S    
C1    N1    A    
C18   C62   S    
C69   H57   S    
C39   H17   S    
C80   C102  A    
C8    N28   A    
C3    H3    S    
C120  H130  S    
C26   C33   S    
C13   C87   S    
C5    N25   A    
C41   C47   S    
C51   C67   S    
C43   C45   S    
C55   C69   S    
C55   C121  S    
C40   H19   S    
C94   H98   S    
C71   H59   S    
N4    Ni4   S    
C21   C25   S    
C24   C28   S    
C73   H73   S    
C28   H12   S    
C74   H70   S    
C117  H129  S    
C116  O4    D    
C123  H143  S    
C49   C59   S    
N4    N7    A    
C124  H142  S    
C50   C60   S    
C92   H95   S    
C65   H65   S    
N32   Ni3   S    
C113  O1    D    
C109  H105  S    
N1    Ni1   S    
C3    C99   A    
C9    C18   A    
C114  H122  S    
C11   H115  S    
C71   H53   S    
C9    H113  S    
C112  N24   A    
C86   H91   S    
C78   N10   A    
C37   C100  A    
C25   C33   S    
C44   H24   S    
C96   H100  S    
C42   H26   S    
C119  H134  S    
C76   C84   S    
N30   Ni1   S    
C36   H42   S    
N19   N20   A    
N16   Ni3   S    
C83   H79   S    
C120  H132  S    
C47   C63   S    
C12   H116  S    
C5    C17   A    
N11   N12   A    
C78   H82   S    
C73   C87   S    
C25   C113  S    
C54   C119  S    
C2    N2    A    
N21   Ni5   S    
C115  H123  S    
C35   C98   A    
C52   H64   S    
C41   H25   S    
C8    H112  S    
C85   H89   S    
C81   C89   S    
C14   C108  A    
C28   C34   S    
C44   H28   S    
C15   C110  A    
C74   C82   S    
N28   N31   A    
C112  H108  S    
C122  H136  S    
C36   N6    A    
N31   Ni4   S    
C30   H16   S    
C124  H140  S    
C35   H41   S    
N18   Ni2   S    
C13   C105  A    
N27   N32   A    
C53   C57   S    
C56   C60   S    
C121  C122  S    
C69   H55   S    
C117  C118  S    
C51   H39   S    
C70   H56   S    
N24   Ni8   S    
C52   H40   S    
C21   H117  S    
C33   C39   S    
C51   H63   S    
C94   N14   A    
C108  H104  S    
C65   H45   S    
C94   C103  A    
C45   H33   S    
C16   C112  A    
C4    H4    S    
C75   H75   S    
C38   C99   A    
C24   H120  S    
N25   N30   A    
C49   H37   S    
C107  N19   A    
C6    N26   A    
C23   C32   S    
C70   H58   S    
C105  N17   A    
C56   C123  S    
C26   C114  S    
C75   C83   S    
C44   C60   S    
C57   C98   S    
C12   C19   A    
C109  N21   A    
C29   C31   S    
C22   C26   S    
C45   H31   S    
N5    Ni5   S    
C26   H10   S    
C96   N16   A    
C74   H74   S    
C5    H109  S    
N12   Ni7   S    
C37   H43   S    
N13   Ni2   S    
C38   H44   S    
N1    N6    A    
C60   C99   S    
C75   H71   S    
C85   C91   S    
N23   Ni7   S    
C84   H88   S    
C66   H66   S    
C8    C20   A    
C49   C65   S    
C34   C40   S    
C119  C120  S    
C118  H125  S    
N2    Ni2   S    
C10   C17   A    
C7    H111  S    
C53   C117  S    
C9    N29   A    
C43   H27   S    
C11   N31   A    
C76   C88   S    
C52   C68   S    
C16   C34   S    
C40   H20   S    
C29   H14   S    
C82   H78   S    
C58   C97   S    
C85   C87   S    
C27   C34   S    
C6    C18   A    
C63   C67   S    
C105  H101  S    
C22   C31   S    
C91   H93   S    
C1    C97   A    
C27   H11   S    
C27   C115  S    
C117  H128  S    
C68   H68   S    
C123  H144  S    
C80   N12   A    
C124  H141  S    
C31   C103  S    
C20   C64   S    
C92   H96   S    
C50   H38   S    
C29   C39   S    
C113  H121  S    
C48   H30   S    
C54   H50   S    
C43   H23   S    
C50   C66   S    
C93   N13   A    
N15   Ni4   S    
C114  O2    D    
C56   C70   S    
C4    C100  A    
C93   H97   S    
N26   N29   A    
C83   H87   S    
N23   N24   A    
C86   H92   S    
C66   H46   S    
C95   C104  A    
C54   C58   S    
C61   C69   S    
C83   C90   S    
N15   N16   A    
C39   H18   S    
C95   H99   S    
N7    Ni7   S    
C50   H62   S    
N8    Ni8   S    
C120  H131  S    
C86   C92   S    
C30   C32   S    
C53   H49   S    
C48   H36   S    
C84   H80   S    
C64   C72   S    
C110  H106  S    
C75   C88   S    
C54   C72   S    
C2    C98   A    
C10   H114  S    
N25   Ni6   S    
C76   H72   S    
C15   C33   S    
N27   Ni8   S    
