data_mof_unit_pretest_830.cif
_audit_creation_date              2012-12-11T15:49:26-0500
_audit_creation_method            fapswitch 2.2
_symmetry_space_group_name_H-M    P1
_symmetry_Int_Tables_number       1
_space_group_crystal_system       triclinic
_cell_length_a                    8.27371
_cell_length_b                    19.058049
_cell_length_c                    27.002542
_cell_angle_alpha                 95.124062
_cell_angle_beta                  92.553055
_cell_angle_gamma                 85.509639
_cell_volume                      4224.72459534

loop_
_atom_site_label
_atom_site_type_symbol
_atom_type_description
_atom_site_fract_x
_atom_site_fract_y
_atom_site_fract_z
_atom_type_partial_charge
Ba1   Ba    Ba6+2 0.854000 0.466860 0.523710 1.693885
Ba2   Ba    Ba6+2 0.335820 0.533080 0.476290 1.659908
C1    C     C_3   0.723903 0.210660 0.673159 0.235507
C2    C     C_3   0.643899 0.281859 0.660555 0.268092
C3    C     C_3   0.520139 0.631146 0.625874 0.288245
C4    C     C_3   0.520362 0.647414 0.682031 -0.341527
C5    C     C_3   0.992756 0.704632 0.342622 0.350799
C6    C     C_3   0.936539 0.750757 0.301087 -0.334004
C7    C     C_3   0.484845 0.716166 0.343797 0.365225
C8    C     C_3   0.428901 0.776841 0.312679 -0.345562
C9    C     C_R   0.969958 0.451949 0.177694 0.595329
C10   C     C_R   0.986809 0.577381 0.184687 0.593398
C11   C     C_2   0.780019 0.560038 0.273512 -0.097007
C12   C     C_3   0.170650 0.268744 0.657230 0.662060
C13   C     C_3   0.751949 0.576475 0.328490 -0.076389
C14   C     C_1   0.983203 0.490569 0.343854 0.029522
C15   C     C_2   0.020669 0.483967 0.296099 -0.091753
C16   C     C_2   0.914025 0.520090 0.258072 0.223924
C17   C     C_R   0.032112 0.510551 0.104318 -0.079573
C18   C     C_R   0.007195 0.448330 0.126684 -0.036256
C19   C     C_R   0.018066 0.383818 0.097455 -0.056729
C20   C     C_R   0.021982 0.575436 0.133734 -0.029580
C21   C     C_2   0.857275 0.530672 0.361451 -0.267275
C22   C     C_2   0.342535 0.476868 0.640261 -0.257592
C23   C     C_3   0.178303 0.211042 0.693386 0.311679
C24   C     C_R   0.120259 0.439012 0.972368 0.018601
C25   C     C_R   0.118991 0.568961 0.978369 0.019173
C26   C     C_R   0.137073 0.502672 0.949802 0.054284
C27   C     C_R   0.144503 0.374383 0.942566 -0.096262
C28   C     C_R   0.180816 0.372370 0.892617 -0.038052
C29   C     C_R   0.194970 0.434586 0.869721 -0.059452
C30   C     C_R   0.172739 0.499932 0.898086 -0.079382
C31   C     C_R   0.186449 0.562416 0.874724 -0.030750
C32   C     C_R   0.222786 0.558620 0.823538 0.581575
C33   C     C_R   0.231895 0.432327 0.818975 0.640076
C34   C     C_3   0.189030 0.318602 0.418946 0.316502
C35   C     C_2   0.422880 0.449901 0.728056 -0.049244
C36   C     C_3   0.442403 0.429149 0.673083 -0.051589
C37   C     C_1   0.212019 0.514205 0.657238 0.059166
C38   C     C_2   0.176749 0.522448 0.705300 -0.025606
C39   C     C_2   0.288629 0.489562 0.743831 0.248578
C40   C     C_R   0.080921 0.441790 0.023653 0.020085
C41   C     C_R   0.067378 0.507910 0.052581 0.051121
C42   C     C_R   0.088669 0.571425 0.030371 0.020069
C43   C     C_R   0.053860 0.380489 0.047306 -0.095666
C44   C     C_R   0.047544 0.637259 0.111711 -0.060717
C45   C     C_3   0.200638 0.238926 0.406813 -0.378424
C46   C     C_R   0.131305 0.630710 0.953535 -0.098545
C47   C     C_R   0.164126 0.627379 0.903087 -0.052955
C48   C     C_R   0.079872 0.635452 0.061391 -0.099390
C49   C     C_R   0.404336 0.299082 0.523942 -0.276768
C50   C     C_R   0.540568 0.276369 0.496986 0.074903
C51   C     C_R   0.592543 0.204367 0.491636 -0.113421
C52   C     C_R   0.504163 0.154163 0.512024 0.011666
C53   C     C_R   0.360592 0.178028 0.536779 -0.096344
C54   C     C_R   0.310523 0.250214 0.541859 -0.022719
C55   C     C_R   0.535168 0.033246 0.543549 -0.045535
C56   C     C_3   0.005214 0.681912 0.580828 0.303768
C57   C     C_R   0.586064 0.961404 0.538213 -0.072511
C58   C     C_R   0.657992 0.930832 0.494374 0.054176
C59   C     C_R   0.679790 0.974553 0.456286 -0.073150
C60   C     C_R   0.630207 0.046790 0.461866 -0.080269
C61   C     C_R   0.557257 0.077202 0.505673 0.053558
C62   C     C_R   0.850475 0.827319 0.464302 -0.135135
C63   C     C_R   0.896337 0.754543 0.460478 0.009621
C64   C     C_R   0.659858 0.733097 0.504596 0.044379
C65   C     C_R   0.612644 0.805312 0.508719 -0.114791
C66   C     C_R   0.706701 0.853534 0.488332 -0.005086
C67   C     C_3   0.993184 0.761436 0.593947 -0.370578
C68   C     C_R   0.796839 0.707873 0.478610 -0.278118
C69   C     C_3   0.676344 0.381479 0.376350 0.293159
C70   C     C_3   0.680220 0.364351 0.320290 -0.342119
H1    H     H_    0.606743 0.278021 0.620297 0.005816
H2    H     H_    0.280330 0.224294 0.374910 0.124551
H3    H     H_    0.251914 0.211953 0.439239 0.056852
H4    H     H_    0.078022 0.220677 0.397126 0.128748
H5    H     H_    0.883329 0.664378 0.570717 0.000135
H6    H     H_    0.085821 0.669336 0.548994 0.064883
H7    H     H_    0.907962 0.775450 0.624534 0.137922
H8    H     H_    0.948689 0.789599 0.561381 0.061129
H9    H     H_    0.114614 0.779154 0.606027 0.130981
H10   H     H_    0.798081 0.395074 0.390564 0.005268
H11   H     H_    0.587487 0.427265 0.384336 0.088328
H12   H     H_    0.831109 0.196145 0.650427 0.094602
H13   H     H_    0.773316 0.320399 0.311271 0.131362
H14   H     H_    0.710295 0.411291 0.302060 0.083283
H15   H     H_    0.559621 0.348710 0.305504 0.133923
H16   H     H_    0.536065 0.293410 0.683694 0.070537
H17   H     H_    0.396464 0.618181 0.612554 0.008988
H18   H     H_    0.607500 0.584797 0.617447 0.067227
H19   H     H_    0.429504 0.691915 0.691932 0.141519
H20   H     H_    0.489435 0.600306 0.699974 0.060023
H21   H     H_    0.642517 0.661832 0.696211 0.134791
H22   H     H_    0.760949 0.212855 0.713266 0.109842
H23   H     H_    0.048056 0.653261 0.326233 0.085034
H24   H     H_    0.883311 0.695095 0.362556 -0.084086
H25   H     H_    0.038136 0.756194 0.276578 0.145539
H26   H     H_    0.836785 0.726482 0.278463 0.114289
H27   H     H_    0.890601 0.803900 0.317123 0.091072
H28   H     H_    0.444382 0.728886 0.382474 0.078566
H29   H     H_    0.482676 0.825847 0.328729 0.062066
H30   H     H_    0.295150 0.786092 0.312160 0.149275
H31   H     H_    0.468835 0.764555 0.273929 0.113096
H32   H     H_    0.130705 0.453379 0.284352 0.107848
H33   H     H_    0.998394 0.335063 0.113314 0.124055
H34   H     H_    0.504845 0.424423 0.754656 0.100377
H35   H     H_    0.198270 0.321175 0.871851 0.154929
H36   H     H_    0.138627 0.323681 0.956726 0.078326
H37   H     H_    0.057142 0.328535 0.028023 0.074476
H38   H     H_    0.701853 0.587405 0.246915 0.090889
H39   H     H_    0.042125 0.687958 0.133447 0.118437
H40   H     H_    0.114216 0.683121 0.971838 0.072505
H41   H     H_    0.294096 0.271423 0.643364 -0.105149
H42   H     H_    0.172351 0.676480 0.886306 0.126853
H43   H     H_    0.064851 0.551657 0.716871 0.098547
H44   H     H_    0.099518 0.685617 0.048191 0.070577
H45   H     H_    0.840581 0.539993 0.401187 0.080315
H46   H     H_    0.367370 0.471783 0.600929 0.065889
H47   H     H_    0.504030 0.823550 0.528401 0.074958
H48   H     H_    0.570188 0.929956 0.568852 0.081914
H49   H     H_    0.479786 0.054385 0.577745 0.143590
H50   H     H_    0.700394 0.187849 0.471118 0.082193
H51   H     H_    0.732206 0.952673 0.421702 0.061954
H52   H     H_    0.058638 0.209061 0.709883 0.051657
H53   H     H_    0.645929 0.078413 0.431316 0.060676
H54   H     H_    0.929084 0.863155 0.450227 0.074069
H55   H     H_    0.283905 0.140724 0.550011 0.069689
H56   H     H_    0.832921 0.651882 0.475858 0.057668
H57   H     H_    0.362923 0.354531 0.527015 0.058888
H58   H     H_    0.210719 0.158968 0.673011 0.053424
H59   H     H_    0.311990 0.336041 0.427692 -0.002066
H60   H     H_    0.111982 0.331714 0.451598 0.064682
N1    N     N_R   0.958362 0.516197 0.206053 -0.423627
N2    N     N_R   0.246592 0.493860 0.796204 -0.434399
O1    O     O_2   0.913240 0.537010 0.617740 -0.447490
O2    O     O_3   0.631991 0.322275 0.398161 -0.637762
O3    O     O_3   0.055311 0.252319 0.619050 -0.627123
O4    O     O_2   0.276450 0.462960 0.382230 -0.452987
O5    O     O_3   0.044470 0.462980 0.442430 -0.499631
O6    O     O_3   0.519740 0.589470 0.411120 -0.474075
O7    O     O_3   0.121711 0.350366 0.377323 -0.628879
O8    O     O_3   0.632420 0.583650 0.524140 -0.482824
O9    O     O_3   0.111040 0.625070 0.435230 -0.478842
O10   O     O_2   0.235964 0.749287 0.463542 -0.485515
O11   O     O_3   0.109278 0.738533 0.373585 -0.599559
O12   O     O_3   0.145240 0.536960 0.557560 -0.497394
O13   O     O_3   0.557280 0.416300 0.475860 -0.495376
O14   O     O_2   0.376710 0.670070 0.522470 -0.456819
O15   O     O_3   0.564997 0.690415 0.603920 -0.638069
O16   O     O_2   0.451246 0.515884 0.324375 -0.484996
O17   O     O_3   0.419496 0.653581 0.322955 -0.570309
O18   O     O_2   0.945978 0.397986 0.196638 -0.594326
O19   O     O_2   0.250211 0.375150 0.794923 -0.489877
O20   O     O_2   0.982522 0.633715 0.210163 -0.619920
O21   O     O_2   0.235399 0.612928 0.803610 -0.593564
O22   O     O_3   0.669960 0.410470 0.588880 -0.468693
O23   O     O_2   0.763499 0.472525 0.677040 -0.449612
O24   O     O_3   0.067440 0.649543 0.622648 -0.634913
O25   O     O_3   0.752514 0.334765 0.671735 -0.539592
O26   O     O_2   0.812980 0.329910 0.477500 -0.454399
O27   O     O_3   0.078660 0.374870 0.564770 -0.445941
O28   O     O_2   0.984251 0.249968 0.525314 -0.477440
P1    P     P_3+3 0.082480 0.557670 0.610090 1.005307
P2    P     P_3+3 0.635220 0.340300 0.462910 0.984897
P3    P     P_3+3 0.108980 0.282202 0.563149 0.995556
P4    P     P_3+3 0.107220 0.442270 0.389900 0.990336
P5    P     P_3+3 0.089712 0.717460 0.434573 0.961658
P6    P     P_3+3 0.657183 0.414099 0.653551 1.016829
P7    P     P_3+3 0.560324 0.671418 0.539265 0.951215
P8    P     P_3+3 0.535195 0.582089 0.346227 0.965831
Cl1   Cl    Cl    0.587896 0.143196 0.659682 -0.713853
Cl2   Cl    Cl    0.324720 0.225408 0.743015 -0.563458
H61   H     H_    0.619115 0.712218 0.344261 -0.085708
Cl3   Cl    Cl    0.105304 0.351207 0.688704 -0.608597

loop_
_geom_bond_atom_site_label_1
_geom_bond_atom_site_label_2
_ccdc_geom_bond_type
C25   C46   A    
C53   C54   A    
C38   C39   S    
C57   H48   S    
C28   H35   S    
Ba1   O22   S    
C64   P7    S    
C17   C18   A    
C41   C42   A    
O3    P3    S    
C70   H13   S    
C49   H57   S    
C5    C6    S    
C64   C68   A    
C32   O21   D    
C36   P6    S    
C5    H24   S    
O7    P4    S    
C60   C61   A    
O17   P8    S    
C11   C16   D    
C16   N1    S    
O15   P7    S    
Ba2   O5    S    
O26   P2    D    
C8    H31   S    
C6    H27   S    
C45   H4    S    
C49   C54   A    
C51   H50   S    
C9    N1    Am   
O2    P2    S    
C28   C29   A    
C43   H37   S    
C55   C57   A    
C38   H43   S    
C52   C61   S    
O22   P6    S    
Ba2   O14   S    
C4    H19   S    
C10   C20   A    
C22   C37   D    
C3    O15   S    
O25   P6    S    
C33   N2    Am   
C34   C45   S    
Ba1   Ba2   S    
C6    H26   S    
C42   C48   A    
Ba1   O8    S    
C56   H5    S    
C25   C42   A    
Ba1   P2    S    
C14   P4    S    
C14   C15   D    
C54   P3    S    
C22   C36   S    
C27   H36   S    
C7    H61   S    
C7    C8    S    
Ba2   P4    S    
C19   C43   A    
C3    H18   S    
Ba1   O5    S    
C69   H10   S    
C13   C21   S    
C47   H42   S    
Ba1   O27   S    
C57   C58   A    
C44   H39   S    
Ba2   O9    S    
Ba1   O12   S    
C23   H58   S    
O23   P6    D    
C39   N2    S    
C17   C41   A    
C55   C61   A    
C69   H11   S    
Ba1   O26   S    
C9    C18   A    
O14   P7    D    
C49   C50   A    
Ba2   O4    S    
C26   C30   A    
C17   C20   A    
C67   H9    S    
C56   O24   S    
C34   H59   S    
C37   C38   D    
O10   P5    D    
Ba2   O13   S    
C51   C52   A    
C65   C66   A    
C13   P8    S    
C58   C59   A    
C40   C43   A    
C35   C36   S    
O5    P4    S    
C6    H25   S    
C27   C28   A    
O28   P3    D    
C29   C30   A    
C12   O3    S    
C8    H30   S    
C4    H21   S    
C15   C16   S    
C11   H38   S    
O9    P5    S    
C2    H1    S    
O24   P1    S    
C50   P2    S    
O8    P7    S    
C23   Cl2   S    
C46   C47   A    
C46   H40   S    
C53   H55   S    
C7    H28   S    
C62   H54   S    
C10   N1    Am   
C11   C13   S    
O27   P3    S    
Ba2   O8    S    
C29   C33   A    
Ba1   O13   S    
Ba2   O12   S    
C40   C41   A    
C37   P1    S    
C1    C2    S    
C62   C66   A    
C69   O2    S    
C70   H15   S    
C50   C51   A    
C24   C40   A    
O11   P5    S    
C68   H56   S    
C34   O7    S    
C44   C48   A    
C52   C53   A    
C7    O17   S    
O6    P8    S    
C20   C44   A    
O1    P1    D    
C15   H32   S    
C8    H29   S    
C33   O19   D    
C45   H2    S    
C10   O20   D    
C21   H45   S    
C60   H53   S    
C70   H14   S    
C56   C67   S    
C2    H16   S    
C14   C21   D    
C12   H41   S    
C5    H23   S    
O12   P1    S    
C63   P5    S    
C24   C26   A    
O4    P4    D    
C59   H51   S    
C58   C66   S    
Ba2   O6    S    
C62   C63   A    
C34   H60   S    
C45   H3    S    
C69   C70   S    
C12   Cl3   S    
C30   C31   A    
C1    Cl1   S    
O16   P8    D    
C65   H47   S    
C4    H20   S    
C22   H46   S    
C31   C32   A    
O13   P2    S    
C64   C65   A    
C1    H22   S    
C48   H44   S    
C12   C23   S    
C35   C39   D    
C59   C60   A    
C23   H52   S    
C3    H17   S    
C67   H7    S    
C56   H6    S    
C55   H49   S    
C2    O25   S    
C9    O18   D    
C35   H34   S    
C18   C19   A    
Ba1   P1    S    
C24   C27   A    
C1    H12   S    
C3    C4    S    
C32   N2    Am   
C67   H8    S    
C5    O11   S    
Ba1   O1    S    
C31   C47   A    
C19   H33   S    
C63   C68   A    
C25   C26   A    
