data_mof_unit_pretest_533.cif
_audit_creation_date              2012-12-11T16:30:35-0500
_audit_creation_method            fapswitch 2.2
_symmetry_space_group_name_H-M    P1
_symmetry_Int_Tables_number       1
_space_group_crystal_system       triclinic
_cell_length_a                    6.931734
_cell_length_b                    14.359784
_cell_length_c                    16.124855
_cell_angle_alpha                 89.999896
_cell_angle_beta                  89.971862
_cell_angle_gamma                 89.999884
_cell_volume                      1605.03889654

loop_
_atom_site_label
_atom_site_type_symbol
_atom_type_description
_atom_site_fract_x
_atom_site_fract_y
_atom_site_fract_z
_atom_type_partial_charge
O1    O     O_R   0.611670 0.415650 0.164070 -0.537169
O2    O     O_R   0.388330 0.915650 0.835930 -0.537158
O3    O     O_R   0.940950 0.405490 0.337780 -0.507961
O4    O     O_R   0.059050 0.905490 0.662220 -0.507998
O5    O     O_R   0.111350 0.584350 0.338470 -0.543842
O6    O     O_R   0.888650 0.084350 0.661530 -0.543859
C1    C     C_R   0.772120 0.382016 0.366202 0.787120
C2    C     C_R   0.227880 0.882018 0.633796 0.787160
O7    O     O_R   0.941380 0.404630 0.164680 -0.520690
O8    O     O_R   0.058620 0.904630 0.835320 -0.520693
O9    O     O_R   0.111780 0.583470 0.164130 -0.544863
O10   O     O_R   0.888220 0.083470 0.835870 -0.544859
C3    C     C_R   0.772561 0.381711 0.136678 0.815154
C4    C     C_R   0.227439 0.881716 0.863327 0.815167
O11   O     O_R   0.611240 0.416530 0.338400 -0.550675
O12   O     O_R   0.388760 0.916530 0.661600 -0.550674
O13   O     O_3   0.778020 0.558680 0.251290 -0.383792
O14   O     O_3   0.221980 0.058680 0.748710 -0.383793
V1    V     V_3+5 0.052840 0.489110 0.251260 1.527260
V2    V     V_3+5 0.947160 0.989110 0.748740 1.527186
O15   O     O_R   0.441500 0.594510 0.164760 -0.543704
O16   O     O_R   0.558500 0.094510 0.835240 -0.543709
C5    C     C_R   0.272828 0.616911 0.136379 0.687766
C6    C     C_R   0.727170 0.116911 0.863621 0.687768
O17   O     O_R   0.441080 0.595370 0.337860 -0.557220
O18   O     O_R   0.558920 0.095370 0.662140 -0.557214
C7    C     C_R   0.271822 0.617476 0.367344 0.698387
C8    C     C_R   0.728179 0.117477 0.632656 0.698397
V3    V     V_3+5 0.552850 0.510890 0.251270 1.450856
V4    V     V_3+5 0.447150 0.010890 0.748730 1.450842
O19   O     O_3   0.277800 0.441320 0.251250 -0.350563
O20   O     O_3   0.722200 0.941320 0.748750 -0.350580
C9    C     C_3   0.055466 0.686978 0.479655 -0.363441
C10   C     C_3   0.944600 0.187043 0.520396 -0.363426
H1    H     H_    0.939322 0.697800 0.433139 0.116734
H2    H     H_    0.060663 0.197912 0.566941 0.116744
H3    H     H_    0.029083 0.617027 0.507215 0.167467
H4    H     H_    0.971129 0.117097 0.492850 0.167470
C11   C     C_3   0.039140 0.762630 0.547827 0.555760
C12   C     C_3   0.960907 0.262690 0.452218 0.555677
H5    H     H_    0.932013 0.815796 0.527734 0.020608
H6    H     H_    0.067944 0.315891 0.472328 0.020615
H7    H     H_    0.197100 0.918190 0.468189 0.146552
H8    H     H_    0.802634 0.418206 0.531814 0.146551
C13   C     C_3   0.303478 0.789138 0.407350 0.086756
C14   C     C_3   0.696340 0.289125 0.592631 0.086752
C15   C     C_3   0.406659 0.664336 0.507764 -0.412273
C16   C     C_3   0.593477 0.164280 0.492196 -0.412280
C17   C     C_3   0.259018 0.688173 0.438246 0.020448
C18   C     C_3   0.740985 0.188173 0.561752 0.020453
H9    H     H_    0.556065 0.667145 0.482576 0.158347
H10   H     H_    0.444028 0.167030 0.517345 0.158390
H11   H     H_    0.382518 0.592022 0.530335 0.164189
H12   H     H_    0.617775 0.091975 0.469632 0.164180
C19   C     C_3   0.237846 0.810846 0.563251 -0.047580
C20   C     C_3   0.762155 0.310844 0.436747 -0.047555
C21   C     C_3   0.298121 0.859767 0.481316 -0.493869
C22   C     C_3   0.701705 0.359752 0.518664 -0.493880
C23   C     C_3   0.389227 0.733502 0.581689 -0.247724
C24   C     C_3   0.610900 0.233453 0.418275 -0.247684
H13   H     H_    0.347545 0.694792 0.638681 0.235692
H14   H     H_    0.652703 0.194756 0.361291 0.235704
H15   H     H_    0.532986 0.765255 0.593650 0.176649
H16   H     H_    0.467111 0.265161 0.406283 0.176757
H17   H     H_    0.452053 0.789469 0.380903 0.161943
H18   H     H_    0.547727 0.289410 0.619038 0.161903
H19   H     H_    0.443576 0.891498 0.488909 0.163454
H20   H     H_    0.556217 0.391438 0.511034 0.163447
H21   H     H_    0.024369 0.566090 0.770920 0.167453
H22   H     H_    0.975687 0.066081 0.229076 0.167409
C25   C     C_R   0.353609 0.937160 0.025837 -0.371474
C26   C     C_R   0.646398 0.437156 0.974172 -0.371454
C27   C     C_R   0.422921 0.966186 0.102622 0.592867
C28   C     C_R   0.577052 0.466179 0.897394 0.592867
C29   C     C_R   0.449257 0.901982 0.166000 0.560042
C30   C     C_R   0.550656 0.401970 0.834024 0.560029
C31   C     C_R   0.397545 0.809075 0.154235 -0.338075
C32   C     C_R   0.602377 0.309066 0.845784 -0.338032
C33   C     C_R   0.323234 0.777743 0.077323 0.004781
C34   C     C_R   0.676737 0.277737 0.922687 0.004768
C35   C     C_R   0.305669 0.842631 0.011045 -0.027463
C36   C     C_R   0.694325 0.342626 0.988963 -0.027470
C37   C     C_R   0.263307 0.684101 0.066266 -0.084358
C38   C     C_R   0.736683 0.184098 0.933738 -0.084376
C39   C     C_R   0.192870 0.654485 0.987915 0.046249
C40   C     C_R   0.807130 0.154481 0.012088 0.046249
C41   C     C_R   0.183493 0.718240 0.920095 -0.039443
C42   C     C_R   0.816519 0.218236 0.079908 -0.039408
C43   C     C_R   0.237737 0.813034 0.932257 -0.125228
C44   C     C_R   0.762268 0.313030 0.067748 -0.125219
C45   C     C_R   0.137463 0.560576 0.974929 -0.134352
C46   C     C_R   0.862536 0.060571 0.025073 -0.134334
C47   C     C_R   0.075534 0.529862 0.897655 -0.180478
C48   C     C_R   0.924481 0.029854 0.102345 -0.180489
C49   C     C_R   0.069351 0.591048 0.831264 -0.014254
C50   C     C_R   0.930686 0.091041 0.168735 -0.014311
C51   C     C_R   0.123875 0.683785 0.841394 0.637327
C52   C     C_R   0.876162 0.183781 0.158607 0.637273
H23   H     H_    0.335366 0.990152 0.978832 0.161020
H24   H     H_    0.664677 0.490151 0.021173 0.161018
H25   H     H_    0.415457 0.762542 0.206337 0.174505
H26   H     H_    0.584426 0.262530 0.793685 0.174552
H27   H     H_    0.144959 0.508990 0.023638 0.117385
H28   H     H_    0.855028 0.008984 0.976364 0.117383
H29   H     H_    0.035561 0.457642 0.888868 0.138892
H30   H     H_    0.964454 0.957632 0.111131 0.138870
F1    F     F_    0.462414 0.057478 0.115778 -0.665765
F2    F     F_    0.537576 0.557471 0.884238 -0.665776
F3    F     F_    0.523173 0.930056 0.239750 -0.682100
F4    F     F_    0.476670 0.430039 0.760285 -0.682122
F5    F     F_    0.123018 0.737619 0.772563 -0.673012
F6    F     F_    0.877059 0.237618 0.227437 -0.673068
F7    F     F_    0.970147 0.722264 0.620035 -0.643720
F8    F     F_    0.030032 0.222334 0.380027 -0.643748
N1    N     N_3   0.170007 0.817135 0.341174 -0.674654
H31   H     H_    0.032939 0.829563 0.365820 0.234798
H32   H     H_    0.216825 0.880805 0.317133 0.283331
N2    N     N_3   0.829677 0.317171 0.658840 -0.674676
H33   H     H_    0.966763 0.329632 0.634231 0.234810
H34   H     H_    0.782745 0.380838 0.682854 0.283405

loop_
_geom_bond_atom_site_label_1
_geom_bond_atom_site_label_2
_ccdc_geom_bond_type
V4    O20   S    
O11   V3    S    
C19   C23   S    
C3    C44   S    
C32   H26   S    
O13   V3    S    
C31   H25   S    
O4    C2    A    
V1    O19   S    
C39   C45   A    
C11   H5    S    
C16   H12   S    
C13   C21   S    
C9    C11   S    
C5    C37   S    
C10   C12   S    
C38   C40   A    
C14   H18   S    
O3    C1    A    
C26   H24   S    
C51   F5    S    
C32   C34   A    
C27   F1    S    
C9    C17   S    
N1    H31   S    
C14   N2    S    
C24   H14   S    
O7    C3    A    
N2    H33   S    
C47   H29   S    
O5    C7    A    
C8    C18   S    
O7    V1    S    
C12   F8    S    
O8    V2    S    
N1    H32   S    
C50   C52   A    
O3    V1    S    
O14   V4    S    
C45   H27   S    
O14   V2    S    
C34   C38   A    
C15   H11   S    
C35   C43   A    
C16   C18   S    
C2    O12   A    
C12   C20   S    
C14   C22   S    
C27   C29   A    
C1    C20   S    
C21   H19   S    
C2    C19   S    
C46   C48   A    
C16   C24   S    
C31   C33   A    
O17   V3    S    
C11   C19   S    
C23   H13   S    
C15   C23   S    
C29   F3    S    
C39   C41   A    
C52   F6    S    
C34   C36   A    
O8    C4    A    
H8    C22   S    
C33   C35   A    
C46   H28   S    
O13   V1    S    
C15   H9    S    
C1    O11   A    
C11   F7    S    
O15   V3    S    
C9    H3    S    
C20   C24   S    
H22   C50   S    
C4    C43   S    
C45   C47   A    
C13   N1    S    
C13   C17   S    
O9    V1    S    
O10   V2    S    
O1    V3    S    
C48   C50   A    
C29   C31   A    
C28   C30   A    
C26   C28   A    
C37   C39   A    
C42   C44   A    
O18   V4    S    
O15   C5    A    
C13   H17   S    
O16   C6    A    
O1    C3    A    
C25   C27   A    
V2    O20   S    
C22   H20   S    
C14   C18   S    
C48   H30   S    
O16   V4    S    
C10   H4    S    
O18   C8    A    
C30   C32   A    
C12   H6    S    
H21   C49   S    
C10   C18   S    
C49   C51   A    
O5    V1    S    
O17   C7    A    
O6    V2    S    
O10   C6    A    
C23   H15   S    
C36   C44   A    
C30   F4    S    
O2    V4    S    
C24   H16   S    
C19   C21   S    
C6    C38   S    
C42   C52   A    
V3    O19   S    
C40   C46   A    
C15   C17   S    
C33   C37   A    
C25   H23   S    
O9    C5    A    
C9    H1    S    
C10   H2    S    
C20   C22   S    
C40   C42   A    
O2    C4    A    
N2    H34   S    
H7    C21   S    
C28   F2    S    
O4    V2    S    
O6    C8    A    
C16   H10   S    
C47   C49   A    
C41   C43   A    
C25   C35   A    
O12   V4    S    
C26   C36   A    
C7    C17   S    
C41   C51   A    
