data_mof_unit_pretest_665.cif
_audit_creation_date              2012-10-26T20:00:54-0400
_audit_creation_method            fapswitch 2.2
_symmetry_space_group_name_H-M    P1
_symmetry_Int_Tables_number       1
_space_group_crystal_system       triclinic
_cell_length_a                    11.853052
_cell_length_b                    12.976205
_cell_length_c                    13.428096
_cell_angle_alpha                 95.381835
_cell_angle_beta                  75.309041
_cell_angle_gamma                 99.480645
_cell_volume                      1967.60417735

loop_
_atom_site_label
_atom_site_type_symbol
_atom_type_description
_atom_site_fract_x
_atom_site_fract_y
_atom_site_fract_z
_atom_type_partial_charge
C1    C     C_R   0.523857 0.699063 0.488899 0.522633
C2    C     C_R   0.397176 0.472115 0.808113 -0.059397
C3    C     C_R   0.468145 0.185613 0.503202 0.015868
C4    C     C_R   0.435740 0.487431 0.695339 0.566935
C5    C     C_R   0.538207 0.810431 0.465100 0.019177
C6    C     C_R   0.660226 0.977648 0.428284 -0.074517
C7    C     C_R   0.650172 0.867878 0.424260 -0.029655
C8    C     C_R   0.437406 0.858946 0.471302 0.003432
C9    C     C_R   0.447532 0.967299 0.491046 -0.057641
C10   C     C_R   0.560070 0.027451 0.466019 0.015316
C11   C     C_R   0.569557 0.136278 0.470233 0.316478
C12   C     C_R   0.449501 0.473939 0.974638 -0.030728
C13   C     C_R   0.357777 0.125215 0.538618 0.293558
C14   C     C_R   0.347410 0.016801 0.530937 -0.120531
C15   C     C_R   0.957284 0.635074 0.544235 -0.033966
C16   C     C_R   0.478892 0.299489 0.500892 0.587871
C17   C     C_R   0.833899 0.610887 0.557762 -0.000428
C18   C     C_R   0.853753 0.448946 0.467288 0.561294
C19   C     C_R   0.973757 0.458095 0.472155 0.003969
C20   C     C_R   0.027514 0.552014 0.513127 -0.023571
C21   C     C_R   0.143356 0.554804 0.531077 0.134320
C22   C     C_R   0.163070 0.391223 0.432189 0.198317
C23   C     C_R   0.477130 0.454509 0.866009 -0.166456
C24   C     C_R   0.038271 0.374255 0.440788 0.000636
C25   C     C_R   0.564242 0.503123 0.303738 0.569333
C26   C     C_R   0.727951 0.418526 0.035618 -0.009131
C27   C     C_R   0.601633 0.490080 0.190231 -0.011360
C28   C     C_R   0.280388 0.479230 0.860487 0.331048
C29   C     C_R   0.247911 0.486385 0.967084 0.435870
C30   C     C_R   0.330756 0.486821 0.024132 0.412151
C31   C     C_3   0.749053 0.810088 0.361272 -0.264158
C32   C     C_3   0.853095 0.877619 0.293292 -0.458770
C33   C     C_3   0.343110 0.808295 0.415289 -0.284370
C34   C     C_R   0.538842 0.471319 0.028857 -0.009867
C35   C     C_3   0.397656 0.788567 0.300647 -0.357274
C36   C     C_3   0.171345 0.622516 0.624046 -0.231767
C37   C     C_3   0.076614 0.597781 0.723852 -0.367161
C38   C     C_3   0.227539 0.299092 0.376614 -0.212179
C39   C     C_3   0.325877 0.321262 0.280023 -0.364647
C40   C     C_3   0.010867 0.749294 0.556334 -0.290414
C41   C     C_3   0.962125 0.825817 0.505002 -0.452019
C42   C     C_3   0.970361 0.262812 0.434328 -0.234013
C43   C     C_3   0.963042 0.223863 0.323722 -0.348042
C44   C     C_3   0.845767 0.380909 0.988237 -0.156069
C45   C     C_R   0.643565 0.427769 0.978454 -0.048447
C46   C     C_3   0.834786 0.261908 0.987665 -0.358924
C47   C     C_R   0.658761 0.393908 0.873476 0.360323
C48   C     C_R   0.578464 0.408879 0.819071 -0.042791
C49   C     C_R   0.528338 0.512730 0.131068 0.327908
C50   C     C_R   0.701914 0.444358 0.142147 0.310597
Cu1   Cu    Cu3+1 0.386470 0.492430 0.492410 1.004803
Cu2   Cu    Cu3+1 0.613530 0.507570 0.507590 1.066436
F1    F     F_    0.774339 0.423261 0.199229 -0.575643
F2    F     F_    0.260376 0.170610 0.582734 -0.630982
F3    F     F_    0.749233 0.343575 0.820843 -0.668246
F4    F     F_    0.808057 0.375911 0.404301 -0.540174
F5    F     F_    0.453902 0.582896 0.171917 -0.609068
F6    F     F_    0.195465 0.472461 0.808840 -0.627719
F7    F     F_    0.287130 0.485896 0.127179 -0.571962
F8    F     F_    0.133856 0.492104 0.016271 -0.580134
F9    F     F_    0.677149 0.193472 0.438054 -0.620484
H1    H     H_    0.745039 0.024652 0.401375 0.171982
H2    H     H_    0.467159 0.738008 0.289575 0.217188
H3    H     H_    0.328549 0.749254 0.261745 0.208278
H4    H     H_    0.437492 0.863915 0.264566 0.141454
H5    H     H_    0.294098 0.734766 0.447618 0.181478
H6    H     H_    0.275281 0.859205 0.419926 0.121822
H7    H     H_    0.050076 0.511966 0.729227 0.240376
H8    H     H_    0.110759 0.631269 0.791534 0.197191
H9    H     H_    0.996171 0.632341 0.728213 0.124210
H10   H     H_    0.254717 0.612829 0.637441 0.230080
H11   H     H_    0.186597 0.707163 0.614592 0.083699
H12   H     H_    0.261172 0.971690 0.558005 0.142876
H13   H     H_    0.323564 0.397998 0.253151 0.276655
H14   H     H_    0.412256 0.314656 0.294536 0.148736
H15   H     H_    0.315157 0.262749 0.215691 0.118587
H16   H     H_    0.247369 0.249857 0.429981 0.216576
H17   H     H_    0.168676 0.238536 0.344703 0.100585
H18   H     H_    0.971875 0.800818 0.422398 0.165158
H19   H     H_    0.869201 0.832403 0.544667 0.152433
H20   H     H_    0.014117 0.904870 0.509530 0.152066
H21   H     H_    0.000496 0.774681 0.638985 0.153518
H22   H     H_    0.104370 0.758699 0.515282 0.142667
H23   H     H_    0.778423 0.669574 0.591157 0.144449
H24   H     H_    0.025451 0.274376 0.265272 0.192077
H25   H     H_    0.984328 0.142777 0.308212 0.093359
H26   H     H_    0.873289 0.221635 0.312618 0.272116
H27   H     H_    0.010957 0.207529 0.468025 0.130157
H28   H     H_    0.880614 0.256170 0.486360 0.234133
H29   H     H_    0.809069 0.236317 0.068014 0.172558
H30   H     H_    0.767606 0.222967 0.946639 0.203902
H31   H     H_    0.921049 0.236767 0.948594 0.168969
H32   H     H_    0.886216 0.410179 0.910371 0.220136
H33   H     H_    0.910975 0.415135 0.033244 0.251537
H34   H     H_    0.592989 0.376205 0.740609 0.185630
H35   H     H_    0.821967 0.920608 0.240081 0.162261
H36   H     H_    0.901206 0.933860 0.341192 0.139688
H37   H     H_    0.915633 0.826550 0.246269 0.165227
H38   H     H_    0.781995 0.767294 0.412448 0.175271
H39   H     H_    0.711505 0.750384 0.308813 0.161112
N1    N     N_R   0.215880 0.481050 0.481000 -0.211993
N2    N     N_R   0.784100 0.518950 0.519000 -0.239554
O1    O     O_R   0.419710 0.645650 0.494620 -0.537889
O2    O     O_R   0.611450 0.658430 0.507430 -0.540010
O3    O     O_R   0.357340 0.490460 0.641450 -0.447727
O4    O     O_R   0.549080 0.503250 0.654260 -0.536273
O5    O     O_R   0.388550 0.341570 0.492570 -0.495087
O6    O     O_R   0.580290 0.354350 0.505380 -0.394017
O7    O     O_R   0.450920 0.496750 0.345740 -0.486149
O8    O     O_R   0.642660 0.509540 0.358550 -0.407069

loop_
_geom_bond_atom_site_label_1
_geom_bond_atom_site_label_2
_ccdc_geom_bond_type
C48   H34   S    
C37   H8    S    
C24   C42   S    
C19   C20   A    
C17   N2    A    
C41   H19   S    
C26   C44   S    
C21   C36   S    
C12   C23   A    
Cu2   N2    S    
C22   N1    A    
C1    C5    S    
C28   C29   A    
C26   C50   A    
C38   C39   S    
C46   H31   S    
C35   H4    S    
Cu1   O1    S    
C22   C38   S    
C37   H7    S    
C49   F5    S    
C32   H36   S    
C18   C19   A    
C18   N2    A    
C39   H13   S    
C44   H32   S    
C26   C45   A    
Cu2   O2    S    
C31   C32   S    
C8    C9    A    
C35   H3    S    
C39   H14   S    
C9    C10   A    
C1    O1    A    
C16   O5    A    
C27   C50   A    
C25   O7    A    
C21   N1    A    
Cu2   O4    S    
Cu1   O7    S    
C13   C14   A    
C40   H22   S    
C44   C46   S    
C33   H5    S    
C45   C47   A    
C15   C20   A    
C50   F1    S    
C7    C31   S    
Cu1   Cu2   S    
C43   H24   S    
C14   H12   S    
C40   H21   S    
C3    C11   A    
C5    C7    A    
C46   H30   S    
C38   H17   S    
C39   H15   S    
C4    O4    A    
C2    C4    S    
C9    C14   A    
C6    C10   A    
C29   C30   A    
C47   C48   A    
C29   F8    S    
Cu2   O8    S    
Cu1   O3    S    
C41   H20   S    
C30   F7    S    
C34   C45   A    
C31   H39   S    
C18   F4    S    
C1    O2    A    
C25   O8    A    
C40   C41   S    
C32   H35   S    
C31   H38   S    
C25   C27   S    
C22   C24   A    
C42   H27   S    
C42   C43   S    
C12   C34   A    
C33   H6    S    
C47   F3    S    
C13   F2    S    
C15   C17   A    
C36   C37   S    
C34   C49   A    
C23   C48   A    
C12   C30   A    
C43   H25   S    
C11   F9    S    
C3    C13   A    
C41   H18   S    
C5    C8    A    
C35   H2    S    
C36   H10   S    
C6    C7    A    
C46   H29   S    
C38   H16   S    
C28   F6    S    
Cu1   N1    S    
C4    O3    A    
C42   H28   S    
C43   H26   S    
C17   H23   S    
C19   C24   A    
C6    H1    S    
C33   C35   S    
C32   H37   S    
C8    C33   S    
C15   C40   S    
C44   H33   S    
C10   C11   A    
C16   O6    A    
C27   C49   A    
C20   C21   A    
Cu2   O6    S    
Cu1   O5    S    
C2    C23   A    
C2    C28   A    
C37   H9    S    
C3    C16   S    
C36   H11   S    
