data_mof_unit_pretest_923.cif
_audit_creation_date              2012-12-10T19:49:24-0500
_audit_creation_method            fapswitch 2.2
_symmetry_space_group_name_H-M    P1
_symmetry_Int_Tables_number       1
_space_group_crystal_system       triclinic
_cell_length_a                    14.984539
_cell_length_b                    14.15001
_cell_length_c                    15.014131
_cell_angle_alpha                 89.998716
_cell_angle_beta                  90.016681
_cell_angle_gamma                 89.977223
_cell_volume                      3183.46647854

loop_
_atom_site_label
_atom_site_type_symbol
_atom_type_description
_atom_site_fract_x
_atom_site_fract_y
_atom_site_fract_z
_atom_type_partial_charge
C1    C     C_R   0.327753 0.500017 0.500775 0.935305
C2    C     C_R   0.672253 0.499971 0.500838 0.936029
C3    C     C_R   0.494270 0.672490 0.046256 -0.222394
C4    C     C_R   0.505884 0.327617 0.953737 -0.221235
C5    C     C_R   0.092042 0.576662 0.476847 0.488752
C6    C     C_R   0.907930 0.422920 0.477619 0.487587
C7    C     C_R   0.903022 0.574101 0.557439 0.491158
C8    C     C_R   0.097087 0.426256 0.557976 0.491024
C9    C     C_R   0.184279 0.576662 0.472629 -0.315961
C10   C     C_R   0.815689 0.422914 0.473450 -0.322788
C11   C     C_R   0.811215 0.575331 0.547986 -0.300731
C12   C     C_R   0.188877 0.424952 0.548435 -0.304713
C13   C     C_R   0.232150 0.500165 0.506558 -0.177335
C14   C     C_R   0.767870 0.499777 0.506708 -0.176749
C15   C     C_R   0.048291 0.501450 0.520235 -0.112302
C16   C     C_R   0.951749 0.498558 0.520285 -0.112182
C17   C     C_R   0.429453 0.105210 0.461587 -0.275165
C18   C     C_R   0.539570 0.894774 0.569836 -0.274196
C19   C     C_R   0.570551 0.105158 0.538443 -0.275660
C20   C     C_R   0.460448 0.894822 0.430178 -0.274993
C21   C     C_R   0.430925 0.204532 0.462048 0.016313
C22   C     C_R   0.539072 0.795452 0.568368 0.021791
C23   C     C_R   0.569075 0.204483 0.537966 0.015614
C24   C     C_R   0.460937 0.795501 0.431635 0.022208
C25   C     C_R   0.500005 0.053350 0.500015 0.135596
C26   C     C_R   0.500009 0.946631 0.500011 0.140683
C27   C     C_R   0.499905 0.500008 0.326461 0.894632
C28   C     C_R   0.500110 0.500006 0.673537 0.894202
C29   C     C_R   0.503106 0.414006 0.815215 -0.262777
C30   C     C_R   0.496957 0.586082 0.184792 -0.264295
C31   C     C_R   0.500256 0.500036 0.769420 -0.075285
C32   C     C_R   0.499822 0.500033 0.230573 -0.075597
C33   C     C_R   0.497491 0.586090 0.815191 -0.264186
C34   C     C_R   0.502680 0.414002 0.184784 -0.263705
C35   C     C_R   0.497373 0.586738 0.907322 0.118147
C36   C     C_R   0.502814 0.413369 0.092660 0.116852
C37   C     C_R   0.500160 0.500056 0.953659 0.059848
C38   C     C_R   0.500010 0.500054 0.046331 0.060020
C39   C     C_R   0.503081 0.413372 0.907339 0.116758
C40   C     C_R   0.497052 0.586733 0.092659 0.118500
C41   C     C_R   0.494446 0.672493 0.953714 -0.221897
C42   C     C_R   0.505751 0.327616 0.046271 -0.221731
H1    H     H_    0.505391 0.347498 0.779366 0.164340
H2    H     H_    0.494613 0.652582 0.220655 0.157705
H3    H     H_    0.495270 0.652594 0.779323 0.159021
H4    H     H_    0.504936 0.347493 0.220637 0.164466
H5    H     H_    0.492280 0.739304 0.918473 0.144794
H6    H     H_    0.507933 0.260804 0.081508 0.145790
H7    H     H_    0.218132 0.635365 0.440870 0.181332
H8    H     H_    0.781798 0.363891 0.442248 0.183595
H9    H     H_    0.773843 0.634600 0.574492 0.182427
H10   H     H_    0.226306 0.365938 0.575381 0.185610
H11   H     H_    0.372652 0.069628 0.432368 0.137947
H12   H     H_    0.569705 0.930359 0.626080 0.132137
H13   H     H_    0.627352 0.069533 0.567669 0.138748
H14   H     H_    0.430320 0.930444 0.373935 0.131501
H15   H     H_    0.376408 0.243352 0.432165 0.130894
H16   H     H_    0.569826 0.756607 0.622309 0.120431
H17   H     H_    0.623587 0.243268 0.567846 0.131954
H18   H     H_    0.430184 0.756695 0.377689 0.119361
N1    N     N_R   0.500000 0.252470 0.500000 -0.096485
N2    N     N_R   0.500000 0.747530 0.500000 -0.093128
O1    O     O_R   0.369060 0.579480 0.500010 -0.619079
O2    O     O_R   0.630940 0.420520 0.499990 -0.631654
O3    O     O_R   0.630940 0.579480 0.499990 -0.620559
O4    O     O_R   0.369060 0.420520 0.500010 -0.632837
O5    O     O_R   0.499980 0.579490 0.367850 -0.636542
O6    O     O_R   0.500020 0.420510 0.632150 -0.627971
O7    O     O_R   0.500020 0.579490 0.632150 -0.637140
O8    O     O_R   0.499980 0.420510 0.367850 -0.627796
Zn1   Zn    Zn3+2 0.500000 0.606140 0.500000 0.944605
Zn2   Zn    Zn3+2 0.500000 0.393860 0.500000 0.940017
H19   H     H_    0.491980 0.739299 0.081488 0.144336
H20   H     H_    0.508154 0.260806 0.918508 0.145846
O9    O     O_3   0.045535 0.653124 0.443003 -0.553630
C43   C     C_3   0.026193 0.636424 0.352409 0.082440
H21   H     H_    0.976667 0.578394 0.345676 0.118124
H22   H     H_    0.087577 0.618637 0.313908 0.121752
C44   C     C_3   0.985421 0.725169 0.312339 -0.779327
H23   H     H_    0.033325 0.784819 0.317261 0.253042
H24   H     H_    0.969230 0.712800 0.241107 0.193822
H25   H     H_    0.923189 0.743940 0.348448 0.265255
O10   O     O_3   0.954383 0.346077 0.444502 -0.554759
C45   C     C_3   0.973669 0.361796 0.353754 0.086105
H26   H     H_    0.022758 0.420152 0.346385 0.115840
H27   H     H_    0.912154 0.378565 0.315028 0.124813
C46   C     C_3   0.015145 0.272898 0.314745 -0.785391
H28   H     H_    0.967716 0.212892 0.320332 0.255431
H29   H     H_    0.031248 0.284480 0.243385 0.193929
H30   H     H_    0.077521 0.255155 0.351108 0.261642
O11   O     O_3   0.944573 0.651331 0.595783 -0.553705
C47   C     C_3   0.963506 0.630984 0.685801 0.082034
H31   H     H_    0.020496 0.580984 0.690503 0.121623
H32   H     H_    0.904399 0.600990 0.721064 0.118544
C48   C     C_3   0.990209 0.721813 0.732859 -0.783665
H33   H     H_    0.934540 0.773576 0.729979 0.251668
H34   H     H_    0.006080 0.706690 0.803694 0.194740
H35   H     H_    0.050009 0.752789 0.700341 0.265420
O12   O     O_3   0.055633 0.349361 0.597004 -0.554445
C49   C     C_3   0.036311 0.370729 0.686718 0.084558
H36   H     H_    0.979126 0.420545 0.690658 0.119939
H37   H     H_    0.095191 0.401390 0.721884 0.121002
C50   C     C_3   0.009764 0.280375 0.734654 -0.787128
H38   H     H_    0.993558 0.296305 0.805246 0.194785
H39   H     H_    0.065635 0.228816 0.732593 0.254184
H40   H     H_    0.950207 0.248746 0.702214 0.262553

loop_
_geom_bond_atom_site_label_1
_geom_bond_atom_site_label_2
_ccdc_geom_bond_type
C38   C40   A    
C46   H28   S    
C33   H3    S    
C36   C42   A    
C48   H33   S    
C18   C26   A    
C43   C44   S    
C20   H14   S    
C2    O3    A    
C48   H35   S    
C21   H15   S    
C4    C42   A    
O10   C45   S    
C28   O6    A    
C8    O12   S    
C43   H22   S    
C11   C14   A    
C15   C16   S    
O7    Zn1   S    
C9    C13   A    
C47   H31   S    
C3    H19   S    
O4    Zn2   S    
C28   O7    A    
C45   C46   S    
C34   H4    S    
C4    H20   S    
O6    Zn2   S    
O2    Zn2   S    
C29   H1    S    
C30   H2    S    
C2    C14   S    
C1    O1    A    
C49   H37   S    
C12   H10   S    
C2    O2    A    
C7    C11   A    
C31   C33   A    
C20   C24   A    
C9    H7    S    
C43   H21   S    
C10   C14   A    
O11   C47   S    
C44   H24   S    
C19   C23   A    
C25   C26   S    
O3    Zn1   S    
C47   C48   S    
C17   C21   A    
C32   C34   A    
C5    O9    S    
C23   H17   S    
O9    C43   S    
C5    C9    A    
C37   C38   A    
C22   N2    A    
O12   C49   S    
C4    C39   A    
C8    C12   A    
C7    O11   S    
C29   C39   A    
C47   H32   S    
C1    O4    A    
C41   H5    S    
C30   C40   A    
C50   H39   S    
C27   O5    A    
C42   H6    S    
C45   H26   S    
C27   O8    A    
N1    Zn2   S    
C7    C16   A    
O1    Zn1   S    
C3    C40   A    
C8    C15   A    
C46   H29   S    
C1    C13   S    
C10   H8    S    
C17   H11   S    
C19   H13   S    
C3    C41   A    
C24   N2    A    
C6    O10   S    
C35   C37   A    
C27   C32   S    
C18   C22   A    
C21   N1    A    
C28   C31   S    
C45   H27   S    
C22   H16   S    
C44   H25   S    
C48   H34   S    
C17   C25   A    
C36   C38   A    
C29   C31   A    
C30   C32   A    
C20   C26   A    
C49   H36   S    
C33   C35   A    
C34   C36   A    
N2    Zn1   S    
C50   H40   S    
O5    Zn1   S    
C49   C50   S    
C35   C41   A    
C5    C15   A    
C11   H9    S    
C6    C10   A    
C18   H12   S    
C19   C25   A    
C6    C16   A    
C44   H23   S    
C23   N1    A    
C12   C13   A    
C37   C39   A    
C46   H30   S    
C50   H38   S    
O8    Zn2   S    
C24   H18   S    
