data_mof_unit_pretest_1877.cif
_audit_creation_date              2013-03-05T16:24:33-0500
_audit_creation_method            fapswitch 2.2
_symmetry_space_group_name_H-M    P1
_symmetry_Int_Tables_number       1
_space_group_crystal_system       triclinic
_cell_length_a                    18.370308
_cell_length_b                    18.3703
_cell_length_c                    30.26618
_cell_angle_alpha                 89.99992
_cell_angle_beta                  90.000065
_cell_angle_gamma                 89.99999
_cell_volume                      10213.8693222

loop_
_atom_site_label
_atom_site_type_symbol
_atom_site_description
_atom_site_fract_x
_atom_site_fract_y
_atom_site_fract_z
_atom_type_partial_charge
O1    O     O_R   0.105780 0.561220 0.000020 -0.564637
O2    O     O_R   0.438780 0.105780 0.000020 -0.564636
O3    O     O_R   0.894220 0.438780 0.000020 -0.564637
O4    O     O_R   0.561220 0.894220 0.000020 -0.564638
O5    O     O_R   0.105780 0.438780 0.999980 -0.564638
O6    O     O_R   0.438780 0.894220 0.999980 -0.564637
O7    O     O_R   0.894220 0.561220 0.999980 -0.564638
O8    O     O_R   0.561220 0.105780 0.999980 -0.564638
O9    O     O_R   0.605780 0.061220 0.500020 -0.564637
O10   O     O_R   0.938780 0.605780 0.500020 -0.564636
O11   O     O_R   0.394220 0.938780 0.500020 -0.564635
O12   O     O_R   0.061220 0.394220 0.500020 -0.564638
O13   O     O_R   0.605780 0.938780 0.499980 -0.564638
O14   O     O_R   0.938780 0.394220 0.499980 -0.564636
O15   O     O_R   0.394220 0.061220 0.499980 -0.564639
O16   O     O_R   0.061220 0.605780 0.499980 -0.564638
C1    C     C_R   0.139892 0.500000 1.000000 0.867905
C2    C     C_R   0.500000 0.139892 0.000000 0.867915
C3    C     C_R   0.860108 0.500000 0.000000 0.867904
C4    C     C_R   0.500000 0.860108 1.000000 0.867911
C5    C     C_R   0.639892 0.000000 0.500000 0.867903
C6    C     C_R   1.000000 0.639892 0.500000 0.867912
C7    C     C_R   0.360108 1.000000 0.500000 0.867898
C8    C     C_R   1.000000 0.360108 0.500000 0.867909
O17   O     O_R   0.999940 0.561230 0.064880 -0.548874
O18   O     O_R   0.438770 0.999940 0.064880 -0.548875
O19   O     O_R   0.000060 0.438770 0.064880 -0.548873
O20   O     O_R   0.561230 0.000060 0.064880 -0.548875
O21   O     O_R   0.999940 0.438770 0.935120 -0.548874
O22   O     O_R   0.438770 0.000060 0.935120 -0.548874
O23   O     O_R   0.000060 0.561230 0.935120 -0.548873
O24   O     O_R   0.561230 0.999940 0.935120 -0.548875
O25   O     O_R   0.499940 0.061230 0.564880 -0.548874
O26   O     O_R   0.938770 0.499940 0.564880 -0.548875
O27   O     O_R   0.500060 0.938770 0.564880 -0.548872
O28   O     O_R   0.061230 0.500060 0.564880 -0.548875
O29   O     O_R   0.499940 0.938770 0.435120 -0.548873
O30   O     O_R   0.938770 0.500060 0.435120 -0.548874
O31   O     O_R   0.500060 0.061230 0.435120 -0.548873
O32   O     O_R   0.061230 0.499940 0.435120 -0.548874
C9    C     C_R   1.000000 0.500000 0.085641 0.895713
C10   C     C_R   0.500000 1.000000 0.085641 0.895726
C11   C     C_R   0.000000 0.500000 0.914359 0.895719
C12   C     C_R   0.500000 0.000000 0.914359 0.895724
C13   C     C_R   0.500000 1.000000 0.585641 0.895707
C14   C     C_R   1.000000 0.500000 0.585641 0.895725
C15   C     C_R   0.500000 1.000000 0.414359 0.895718
C16   C     C_R   1.000000 0.500000 0.414359 0.895721
Cu1   Cu    Cu3+1 0.000000 0.572490 0.000000 1.144325
Cu2   Cu    Cu3+1 0.427510 0.000000 0.000000 1.144324
Cu3   Cu    Cu3+1 0.000000 0.427510 0.000000 1.144325
Cu4   Cu    Cu3+1 0.572490 0.000000 0.000000 1.144323
Cu5   Cu    Cu3+1 0.500000 0.072490 0.500000 1.144325
Cu6   Cu    Cu3+1 0.927510 0.500000 0.500000 1.144324
Cu7   Cu    Cu3+1 0.500000 0.927510 0.500000 1.144326
Cu8   Cu    Cu3+1 0.072490 0.500000 0.500000 1.144325
C17   C     C_1   0.282749 0.500000 1.000000 -0.099320
C18   C     C_1   0.500000 0.282749 0.000000 -0.099320
C19   C     C_1   0.717251 0.500000 0.000000 -0.099319
C20   C     C_1   0.500000 0.717251 1.000000 -0.099319
C21   C     C_1   0.782749 0.000000 0.500000 -0.099321
C22   C     C_1   0.000000 0.782749 0.500000 -0.099320
C23   C     C_1   0.217251 1.000000 0.500000 -0.099319
C24   C     C_1   1.000000 0.217251 0.500000 -0.099320
C25   C     C_R   0.500000 0.360315 0.000000 0.818767
C26   C     C_R   0.639684 0.500000 0.000000 0.818766
C27   C     C_R   0.500000 0.639684 1.000000 0.818766
C28   C     C_R   0.360316 0.500000 1.000000 0.818767
C29   C     C_R   1.000000 0.860316 0.500000 0.818767
C30   C     C_R   0.139684 1.000000 0.500000 0.818766
C31   C     C_R   1.000000 0.139684 0.500000 0.818766
C32   C     C_R   0.860316 0.000000 0.500000 0.818767
C33   C     C_R   0.035403 0.443875 0.342984 0.283102
C34   C     C_R   0.556124 0.035405 0.342983 0.283104
C35   C     C_R   0.964596 0.556124 0.342983 0.283107
C36   C     C_R   0.443876 0.964594 0.342983 0.283104
C37   C     C_R   0.035402 0.556126 0.657016 0.283104
C38   C     C_R   0.556121 0.964592 0.657017 0.283106
C39   C     C_R   0.964597 0.443875 0.657017 0.283106
C40   C     C_R   0.443875 0.035405 0.657016 0.283097
C41   C     C_R   0.535401 0.943872 0.842984 0.283100
C42   C     C_R   0.056124 0.535405 0.842983 0.283105
C43   C     C_R   0.464595 0.056123 0.842983 0.283109
C44   C     C_R   0.943875 0.464596 0.842984 0.283103
C45   C     C_R   0.535402 0.056126 0.157016 0.283104
C46   C     C_R   0.056123 0.464594 0.157017 0.283103
C47   C     C_R   0.464598 0.943874 0.157016 0.283104
C48   C     C_R   0.943874 0.535404 0.157016 0.283101
C49   C     C_R   1.000000 0.500000 0.366087 -0.294389
C50   C     C_R   0.500000 1.000000 0.366087 -0.294388
C51   C     C_R   1.000000 0.500000 0.633913 -0.294390
C52   C     C_R   0.499999 0.999999 0.633913 -0.294381
C53   C     C_R   0.499999 0.999999 0.866087 -0.294389
C54   C     C_R   1.000000 0.500000 0.866087 -0.294388
C55   C     C_R   0.500000 0.000000 0.133913 -0.294388
C56   C     C_R   0.999999 0.499999 0.133913 -0.294383
O33   O     O_R   0.499980 0.394200 0.037580 -0.565239
O34   O     O_R   0.605800 0.499980 0.037580 -0.565240
O35   O     O_R   0.500020 0.605800 0.037580 -0.565240
O36   O     O_R   0.394200 0.500020 0.037580 -0.565240
O37   O     O_R   0.499980 0.605800 0.962420 -0.565239
O38   O     O_R   0.605800 0.500020 0.962420 -0.565240
O39   O     O_R   0.500020 0.394200 0.962420 -0.565239
O40   O     O_R   0.394200 0.499980 0.962420 -0.565239
O41   O     O_R   0.999980 0.894200 0.537580 -0.565239
O42   O     O_R   0.105800 0.999980 0.537580 -0.565240
O43   O     O_R   0.000020 0.105800 0.537580 -0.565240
O44   O     O_R   0.894200 0.000020 0.537580 -0.565240
O45   O     O_R   0.999980 0.105800 0.462420 -0.565240
O46   O     O_R   0.105800 0.000020 0.462420 -0.565239
O47   O     O_R   0.000020 0.894200 0.462420 -0.565239
O48   O     O_R   0.894200 0.999980 0.462420 -0.565239
C57   C     C_R   0.955266 0.549818 0.296714 0.016328
C58   C     C_R   0.450180 0.955267 0.296714 0.016325
C59   C     C_R   0.044730 0.450177 0.296714 0.016324
C60   C     C_R   0.549820 0.044733 0.296714 0.016325
C61   C     C_R   0.955268 0.450179 0.703286 0.016327
C62   C     C_R   0.450174 0.044728 0.703286 0.016320
C63   C     C_R   0.044730 0.549823 0.703286 0.016326
C64   C     C_R   0.549815 0.955263 0.703286 0.016326
C65   C     C_R   0.455264 0.049816 0.796714 0.016329
C66   C     C_R   0.950178 0.455269 0.796714 0.016324
C67   C     C_R   0.544726 0.950173 0.796714 0.016323
C68   C     C_R   0.049820 0.544733 0.796714 0.016326
C69   C     C_R   0.455270 0.950177 0.203286 0.016326
C70   C     C_R   0.950176 0.544729 0.203286 0.016323
C71   C     C_R   0.544730 0.049822 0.203286 0.016327
C72   C     C_R   0.049819 0.455266 0.203286 0.016325
C73   C     C_R   0.999997 0.499997 0.273317 -0.012467
C74   C     C_R   0.500000 0.000000 0.273317 -0.012465
C75   C     C_R   0.999999 0.500001 0.726683 -0.012467
C76   C     C_R   0.499994 0.999995 0.726683 -0.012461
C77   C     C_R   0.499995 0.999994 0.773317 -0.012467
C78   C     C_R   0.999999 0.500001 0.773317 -0.012464
C79   C     C_R   0.500000 1.000000 0.226683 -0.012467
C80   C     C_R   0.999997 0.499997 0.226683 -0.012463
C81   C     C_R   0.904919 0.593969 0.273260 -0.083036
C82   C     C_R   0.406029 0.904921 0.273260 -0.083043
C83   C     C_R   0.095074 0.406024 0.273260 -0.083041
C84   C     C_R   0.593971 0.095078 0.273260 -0.083042
C85   C     C_R   0.904923 0.406027 0.726740 -0.083038
C86   C     C_R   0.406019 0.095070 0.726741 -0.083054
C87   C     C_R   0.095074 0.593976 0.726740 -0.083040
C88   C     C_R   0.593965 0.904915 0.726740 -0.083038
C89   C     C_R   0.404917 0.093966 0.773260 -0.083029
C90   C     C_R   0.906025 0.404925 0.773259 -0.083045
C91   C     C_R   0.595068 0.906018 0.773260 -0.083044
C92   C     C_R   0.093971 0.595079 0.773260 -0.083041
C93   C     C_R   0.404926 0.906024 0.226740 -0.083040
C94   C     C_R   0.906022 0.595072 0.226740 -0.083047
C95   C     C_R   0.595074 0.093976 0.226740 -0.083040
C96   C     C_R   0.093970 0.404921 0.226740 -0.083041
Cu9   Cu    Cu3+1 0.500000 0.500000 0.044480 1.090293
Cu10  Cu    Cu3+1 0.500000 0.500000 0.955520 1.090294
Cu11  Cu    Cu3+1 1.000000 0.000000 0.544480 1.090292
Cu12  Cu    Cu3+1 1.000000 1.000000 0.455520 1.090294
C97   C     C_1   0.217441 0.500000 1.000000 -0.064946
C98   C     C_1   0.500000 0.217441 0.000000 -0.064942
C99   C     C_1   0.782559 0.500000 0.000000 -0.064944
C100  C     C_1   0.500000 0.782559 1.000000 -0.064941
C101  C     C_1   0.717441 0.000000 0.500000 -0.064948
C102  C     C_1   1.000000 0.717441 0.500000 -0.064943
C103  C     C_1   0.282559 1.000000 0.500000 -0.064946
C104  C     C_1   1.000000 0.282559 0.500000 -0.064943
C105  C     C_2   0.846451 0.634844 0.296539 0.483560
H1    H     H_    0.834828 0.690977 0.287911 0.070850
O49   O     O_2   0.808926 0.604816 0.324403 -0.460424
C106  C     C_2   0.365152 0.846454 0.296538 0.483557
H2    H     H_    0.309017 0.834838 0.287913 0.070854
O50   O     O_2   0.395182 0.808922 0.324399 -0.460417
C107  C     C_2   0.153540 0.365145 0.296538 0.483557
H3    H     H_    0.165154 0.309010 0.287913 0.070854
O51   O     O_2   0.191075 0.395175 0.324397 -0.460415
C108  C     C_2   0.634849 0.153546 0.296538 0.483557
H4    H     H_    0.690983 0.165163 0.287912 0.070852
O52   O     O_2   0.604819 0.191077 0.324399 -0.460418
C109  C     C_2   0.846456 0.365149 0.703461 0.483559
H5    H     H_    0.834838 0.309016 0.712088 0.070851
O53   O     O_2   0.808928 0.395177 0.675598 -0.460421
C110  C     C_2   0.365138 0.153535 0.703463 0.483558
H6    H     H_    0.308999 0.165138 0.712084 0.070857
O54   O     O_2   0.395170 0.191080 0.675610 -0.460406
C111  C     C_2   0.153540 0.634856 0.703462 0.483559
H7    H     H_    0.165155 0.690990 0.712088 0.070849
O55   O     O_2   0.191071 0.604828 0.675601 -0.460417
C112  C     C_2   0.634840 0.846446 0.703462 0.483556
H8    H     H_    0.690973 0.834826 0.712088 0.070853
O56   O     O_2   0.604809 0.808918 0.675600 -0.460419
C113  C     C_2   0.346448 0.134841 0.796540 0.483556
H9    H     H_    0.334822 0.190972 0.787910 0.070851
O57   O     O_2   0.308927 0.104813 0.824406 -0.460427
C114  C     C_2   0.865146 0.346458 0.796538 0.483558
H10   H     H_    0.809011 0.334845 0.787913 0.070854
O58   O     O_2   0.895176 0.308924 0.824397 -0.460416
C115  C     C_2   0.653533 0.865137 0.796538 0.483558
H11   H     H_    0.665143 0.809000 0.787914 0.070853
O59   O     O_2   0.691071 0.895166 0.824396 -0.460414
C116  C     C_2   0.134849 0.653546 0.796538 0.483556
H12   H     H_    0.190983 0.665163 0.787912 0.070852
O60   O     O_2   0.104820 0.691076 0.824400 -0.460419
C117  C     C_2   0.346461 0.865144 0.203461 0.483558
H13   H     H_    0.334845 0.809010 0.212088 0.070851
O61   O     O_2   0.308930 0.895171 0.175600 -0.460418
C118  C     C_2   0.865141 0.653537 0.203462 0.483558
H14   H     H_    0.809004 0.665146 0.212086 0.070853
O62   O     O_2   0.895170 0.691075 0.175605 -0.460412
C119  C     C_2   0.653539 0.134856 0.203461 0.483559
H15   H     H_    0.665155 0.190990 0.212088 0.070850
O63   O     O_2   0.691070 0.104829 0.175599 -0.460418
C120  C     C_2   0.134848 0.346453 0.203462 0.483557
H16   H     H_    0.190983 0.334838 0.212087 0.070854
O64   O     O_2   0.104818 0.308921 0.175602 -0.460417
N1    N     N_R   0.051543 0.376379 0.365147 0.116186
O65   O     O_R   0.023329 0.315989 0.350597 -0.346611
O66   O     O_R   0.096427 0.374106 0.398352 -0.301580
N2    N     N_R   0.623621 0.051545 0.365146 0.116189
O67   O     O_R   0.684010 0.023333 0.350594 -0.346608
O68   O     O_R   0.625894 0.096425 0.398352 -0.301583
N3    N     N_R   0.948460 0.623623 0.365144 0.116197
O69   O     O_R   0.976667 0.684011 0.350587 -0.346600
O70   O     O_R   0.903587 0.625899 0.398354 -0.301595
N4    N     N_R   0.376379 0.948455 0.365146 0.116189
O71   O     O_R   0.315990 0.976666 0.350594 -0.346608
O72   O     O_R   0.374106 0.903574 0.398352 -0.301581
N5    N     N_R   0.051538 0.623623 0.634854 0.116189
O73   O     O_R   0.023326 0.684012 0.649406 -0.346608
O74   O     O_R   0.096417 0.625898 0.601646 -0.301589
N6    N     N_R   0.623618 0.948452 0.634855 0.116189
O75   O     O_R   0.684008 0.976661 0.649409 -0.346604
O76   O     O_R   0.625892 0.903572 0.601648 -0.301581
N7    N     N_R   0.948462 0.376377 0.634855 0.116194
O77   O     O_R   0.976672 0.315989 0.649410 -0.346604
O78   O     O_R   0.903586 0.374100 0.601646 -0.301593
N8    N     N_R   0.376383 0.051551 0.634851 0.116173
O79   O     O_R   0.315992 0.023329 0.649393 -0.346623
O80   O     O_R   0.374114 0.096447 0.601651 -0.301561
N9    N     N_R   0.551539 0.876377 0.865148 0.116184
O81   O     O_R   0.523322 0.815988 0.850600 -0.346614
O82   O     O_R   0.596425 0.874104 0.898352 -0.301581
N10   N     N_R   0.123621 0.551543 0.865145 0.116190
O83   O     O_R   0.184010 0.523332 0.850592 -0.346606
O84   O     O_R   0.125896 0.596422 0.898353 -0.301586
N11   N     N_R   0.448462 0.123624 0.865143 0.116199
O85   O     O_R   0.476668 0.184011 0.850584 -0.346595
O86   O     O_R   0.403593 0.125902 0.898355 -0.301600
N12   N     N_R   0.876379 0.448456 0.865146 0.116187
O87   O     O_R   0.815990 0.476670 0.850596 -0.346611
O88   O     O_R   0.874106 0.403573 0.898352 -0.301580
N13   N     N_R   0.551536 0.123624 0.134854 0.116191
O89   O     O_R   0.523324 0.184012 0.149408 -0.346606
O90   O     O_R   0.596414 0.125900 0.101646 -0.301592
N14   N     N_R   0.123619 0.448454 0.134854 0.116186
O91   O     O_R   0.184008 0.476667 0.149406 -0.346608
O92   O     O_R   0.125893 0.403572 0.101649 -0.301580
N15   N     N_R   0.448463 0.876376 0.134854 0.116190
O93   O     O_R   0.476676 0.815988 0.149407 -0.346607
O94   O     O_R   0.403585 0.874101 0.101646 -0.301591
N16   N     N_R   0.876379 0.551544 0.134852 0.116182
O95   O     O_R   0.815990 0.523327 0.149400 -0.346616
O96   O     O_R   0.874108 0.596431 0.101649 -0.301576

loop_
_geom_bond_atom_site_label_1
_geom_bond_atom_site_label_2
_geom_bond_distance
_ccdc_geom_bond_type
O36   Cu9   1.954767 S    
O48   Cu12  1.954768 S    
C107  H3    1.084937 S    
C48   C56   1.405334 A    
C37   N5    1.440578 S    
C105  H1    1.084937 S    
C42   C54   1.405340 A    
C31   O43   1.296594 A    
O2    C2    1.287428 A    
C120  H16   1.084935 S    
C63   C87   1.420254 A    
C117  H13   1.084937 S    
C26   O38   1.296594 A    
C38   C64   1.415593 A    
C74   C79   1.411433 A    
C64   C88   1.420254 A    
C94   C118  1.487917 S    
C24   C104  1.199731 T    
C75   C78   1.411430 A    
C90   C114  1.487919 S    
C81   C105  1.487925 S    
C117  O61   1.220957 D    
O11   Cu7   1.954211 S    
C21   C101  1.199732 T    
C88   C112  1.487920 S    
N1    O65   1.301253 A    
O10   C6    1.287428 A    
C45   N13   1.440579 S    
C107  O51   1.220956 D    
C58   C82   1.420255 A    
O18   C10   1.288426 A    
N13   O89   1.301252 A    
C57   C73   1.419276 A    
C41   C67   1.415591 A    
C40   C62   1.415593 A    
C2    C98   1.424608 S    
O15   Cu5   1.954211 S    
C82   C106  1.487918 S    
N2    O68   1.300616 A    
C72   C80   1.419277 A    
C19   C26   1.424915 S    
O21   Cu3   1.974534 S    
C6    C102  1.424608 S    
C115  O59   1.220954 D    
C9    C56   1.461009 S    
O5    C1    1.287428 A    
C120  O64   1.220955 D    
O16   C6    1.287427 A    
C44   C66   1.415595 A    
N11   O85   1.301253 A    
C43   C53   1.405340 A    
C43   N11   1.440582 S    
C83   C96   1.408259 A    
C11   C54   1.461012 S    
O25   C13   1.288425 A    
C41   N9    1.440579 S    
C44   N12   1.440579 S    
C39   C61   1.415594 A    
C24   C31   1.424914 S    
O14   C8    1.287428 A    
C113  O57   1.220953 D    
O45   Cu12  1.954765 S    
O32   C16   1.288426 A    
C108  H4    1.084935 S    
C66   C78   1.419279 A    
C60   C84   1.420255 A    
C12   C53   1.461006 S    
O2    Cu2   1.954208 S    
C71   C95   1.420255 A    
C19   C99   1.199732 T    
C72   C96   1.420255 A    
O23   C11   1.288425 A    
C86   C110  1.487912 S    
C32   O44   1.296594 A    
C20   C27   1.424914 S    
C110  O54   1.220955 D    
C76   C77   1.411436 A    
Cu1   Cu3   2.663324 S    
O17   Cu1   1.974531 S    
C47   C55   1.405336 A    
Cu2   Cu4   2.663325 S    
C83   C107  1.487918 S    
C116  H12   1.084935 S    
C35   C57   1.415591 A    
O33   Cu9   1.954767 S    
O29   C15   1.288425 A    
C30   O46   1.296594 A    
O47   Cu12  1.954766 S    
C23   C103  1.199732 T    
O30   C16   1.288426 A    
C48   N16   1.440577 S    
C89   C113  1.487924 S    
N15   O94   1.300620 A    
C69   C79   1.419278 A    
C106  O50   1.220953 D    
O22   Cu2   1.974535 S    
O34   Cu9   1.954766 S    
C70   C80   1.419281 A    
C105  O49   1.220950 D    
N9    O81   1.301255 A    
O21   C11   1.288425 A    
O25   Cu5   1.974531 S    
C58   C74   1.419278 A    
C86   C89   1.408259 A    
O22   C12   1.288426 A    
C31   O45   1.296593 A    
N8    O80   1.300618 A    
O23   Cu1   1.974535 S    
C88   C91   1.408262 A    
C61   C75   1.419277 A    
C18   C25   1.424914 S    
N6    O76   1.300617 A    
N6    O75   1.301252 A    
C37   C51   1.405338 A    
O19   Cu3   1.974532 S    
O4    Cu4   1.954210 S    
C7    C103  1.424608 S    
Cu5   Cu7   2.663324 S    
C82   C93   1.408262 A    
C46   N14   1.440577 S    
C87   C92   1.408262 A    
N12   O88   1.300615 A    
C62   C86   1.420259 A    
N13   O90   1.300618 A    
C5    C101  1.424608 S    
O27   Cu7   1.974532 S    
C119  H15   1.084937 S    
O24   Cu4   1.974534 S    
O8    Cu4   1.954208 S    
C62   C76   1.419283 A    
N2    O67   1.301253 A    
O7    Cu1   1.954211 S    
N11   O86   1.300612 A    
C18   C98   1.199731 T    
O17   C9    1.288425 A    
N3    O69   1.301252 A    
O3    Cu3   1.954211 S    
O20   Cu4   1.974532 S    
C14   C51   1.461009 S    
C71   C79   1.419277 A    
O32   Cu8   1.974534 S    
C68   C92   1.420256 A    
C22   C102  1.199731 T    
C46   C72   1.415594 A    
C95   C119  1.487919 S    
O8    C2    1.287427 A    
C10   C55   1.461009 S    
C22   C29   1.424914 S    
C42   N10   1.440579 S    
C28   O40   1.296593 A    
C36   N4    1.440581 S    
C40   C52   1.405335 A    
N16   O96   1.300618 A    
C111  H7    1.084936 S    
O16   Cu8   1.954208 S    
C92   C116  1.487919 S    
C8    C104  1.424608 S    
C40   N8    1.440575 S    
C69   C93   1.420255 A    
N3    O70   1.300611 A    
C73   C80   1.411433 A    
C41   C53   1.405339 A    
C38   C52   1.405336 A    
O19   C9    1.288425 A    
O39   Cu10  1.954766 S    
C63   C75   1.419277 A    
C36   C58   1.415592 A    
O30   Cu6   1.974535 S    
C23   C30   1.424915 S    
C35   N3    1.440584 S    
C29   O47   1.296594 A    
C85   C109  1.487922 S    
C34   C60   1.415592 A    
O3    C3    1.287428 A    
N10   O84   1.300617 A    
N5    O73   1.301253 A    
O24   C12   1.288426 A    
O13   C5    1.287428 A    
N7    O78   1.300612 A    
C44   C54   1.405337 A    
C45   C55   1.405336 A    
C91   C115  1.487915 S    
C87   C111  1.487919 S    
C84   C95   1.408262 A    
C39   N7    1.440580 S    
O12   Cu8   1.954210 S    
C96   C120  1.487919 S    
C46   C56   1.405336 A    
C85   C90   1.408259 A    
O26   C14   1.288426 A    
C21   C32   1.424915 S    
C106  H2    1.084936 S    
O41   Cu11  1.954767 S    
C118  O62   1.220956 D    
O42   Cu11  1.954766 S    
O7    C3    1.287427 A    
C16   C49   1.461009 S    
N9    O82   1.300616 A    
C30   O42   1.296593 A    
C15   C50   1.461009 S    
C65   C89   1.420252 A    
C81   C94   1.408259 A    
C45   C71   1.415591 A    
O9    Cu5   1.954209 S    
N8    O79   1.301257 A    
C25   O39   1.296594 A    
C17   C28   1.424915 S    
C112  O56   1.220955 D    
N15   O93   1.301255 A    
O14   Cu6   1.954210 S    
C93   C117  1.487918 S    
C47   C69   1.415591 A    
N7    O77   1.301252 A    
C1    C97   1.424608 S    
C110  H6    1.084937 S    
C27   O37   1.296593 A    
O31   C15   1.288425 A    
C42   C68   1.415594 A    
C59   C73   1.419278 A    
C32   O48   1.296593 A    
C17   C97   1.199732 T    
N12   O87   1.301252 A    
N4    O72   1.300614 A    
C29   O41   1.296593 A    
O20   C10   1.288426 A    
C34   N2    1.440580 S    
C64   C76   1.419274 A    
C39   C51   1.405338 A    
C28   O36   1.296594 A    
C48   C70   1.415593 A    
C20   C100  1.199731 T    
C67   C91   1.420254 A    
C37   C63   1.415594 A    
Cu6   Cu8   2.663325 S    
O26   Cu6   1.974531 S    
C43   C65   1.415591 A    
N14   O92   1.300617 A    
C27   O35   1.296594 A    
C33   C49   1.405338 A    
C38   N6    1.440578 S    
O6    C4    1.287428 A    
O12   C8    1.287427 A    
O1    C1    1.287426 A    
C33   C59   1.415593 A    
C68   C78   1.419276 A    
C65   C77   1.419274 A    
O15   C7    1.287427 A    
C26   O34   1.296593 A    
O18   Cu2   1.974531 S    
N16   O95   1.301256 A    
Cu9   Cu10  2.692476 S    
N1    O66   1.300619 A    
C3    C99   1.424608 S    
O38   Cu10  1.954766 S    
C114  H10   1.084936 S    
O28   C14   1.288426 A    
C70   C94   1.420256 A    
O9    C5    1.287426 A    
O31   Cu5   1.974535 S    
O44   Cu11  1.954767 S    
O37   Cu10  1.954765 S    
O4    C4    1.287427 A    
C34   C50   1.405342 A    
O35   Cu9   1.954765 S    
O11   C7    1.287428 A    
N10   O83   1.301253 A    
N5    O74   1.300618 A    
C109  O53   1.220951 D    
C57   C81   1.420253 A    
C66   C90   1.420256 A    
C113  H9    1.084933 S    
O10   Cu6   1.954208 S    
C108  O52   1.220953 D    
C47   N15   1.440577 S    
O46   Cu12  1.954766 S    
C35   C49   1.405338 A    
C25   O33   1.296593 A    
C115  H11   1.084936 S    
O29   Cu7   1.974534 S    
O6    Cu2   1.954210 S    
C60   C74   1.419277 A    
C118  H14   1.084936 S    
C67   C77   1.419280 A    
C111  O55   1.220954 D    
C84   C108  1.487921 S    
C109  H5    1.084936 S    
C4    C100  1.424608 S    
O28   Cu8   1.974532 S    
C36   C50   1.405342 A    
Cu11  Cu12  2.692476 S    
C119  O63   1.220955 D    
C61   C85   1.420254 A    
O5    Cu3   1.954209 S    
C13   C52   1.461009 S    
C116  O60   1.220954 D    
C33   N1    1.440580 S    
O40   Cu10  1.954768 S    
C112  H8    1.084934 S    
C59   C83   1.420255 A    
O1    Cu1   1.954209 S    
N4    O71   1.301251 A    
O43   Cu11  1.954765 S    
C114  O58   1.220954 D    
N14   O91   1.301254 A    
O13   Cu7   1.954209 S    
O27   C13   1.288425 A    
