data_mof_unit_pretest_857.cif
_audit_creation_date              2013-03-05T16:45:51-0500
_audit_creation_method            fapswitch 2.2
_symmetry_space_group_name_H-M    P1
_symmetry_Int_Tables_number       1
_space_group_crystal_system       triclinic
_cell_length_a                    18.323825
_cell_length_b                    18.323966
_cell_length_c                    18.323596
_cell_angle_alpha                 60.011576
_cell_angle_beta                  60.004993
_cell_angle_gamma                 60.010139
_cell_volume                      4351.2993941

loop_
_atom_site_label
_atom_site_type_symbol
_atom_site_description
_atom_site_fract_x
_atom_site_fract_y
_atom_site_fract_z
_atom_type_partial_charge
Zn1   Zn    Zn3+2 0.206620 0.206630 0.380140 0.962130
Zn2   Zn    Zn3+2 0.793380 0.793370 0.619860 0.957159
Zn3   Zn    Zn3+2 0.206630 0.380140 0.206620 0.962134
Zn4   Zn    Zn3+2 0.793370 0.619860 0.793380 0.957196
Zn5   Zn    Zn3+2 0.380140 0.206620 0.206630 0.962237
Zn6   Zn    Zn3+2 0.619860 0.793380 0.793370 0.957321
Zn7   Zn    Zn3+2 0.206620 0.206620 0.206620 1.001853
Zn8   Zn    Zn3+2 0.793380 0.793380 0.793380 1.010668
O1    O     O_3   0.250000 0.250000 0.250000 -0.487764
O2    O     O_3   0.750000 0.750000 0.750000 -0.487121
O3    O     O_R   0.305080 0.134200 0.134200 -0.622079
O4    O     O_R   0.694920 0.865800 0.865800 -0.616405
O5    O     O_R   0.134200 0.134200 0.305080 -0.622032
O6    O     O_R   0.865800 0.865800 0.694920 -0.616791
O7    O     O_R   0.134200 0.305080 0.134200 -0.622262
O8    O     O_R   0.865800 0.694920 0.865800 -0.616875
O9    O     O_R   0.134200 0.305090 0.426530 -0.649152
O10   O     O_R   0.865800 0.694910 0.573470 -0.652660
O11   O     O_R   0.305090 0.426530 0.134200 -0.649198
O12   O     O_R   0.694910 0.573470 0.865800 -0.652676
O13   O     O_R   0.426530 0.134200 0.305090 -0.649111
O14   O     O_R   0.573470 0.865800 0.694910 -0.652565
O15   O     O_R   0.134190 0.426530 0.134200 -0.648030
O16   O     O_R   0.865810 0.573470 0.865800 -0.652594
O17   O     O_R   0.426530 0.134200 0.134190 -0.647614
O18   O     O_R   0.573470 0.865800 0.865810 -0.652291
O19   O     O_R   0.134200 0.134190 0.426530 -0.647947
O20   O     O_R   0.865800 0.865810 0.573470 -0.652376
O21   O     O_R   0.426530 0.305080 0.134210 -0.639880
O22   O     O_R   0.573470 0.694920 0.865790 -0.637068
O23   O     O_R   0.305080 0.134210 0.426530 -0.639935
O24   O     O_R   0.694920 0.865790 0.573470 -0.637196
O25   O     O_R   0.134210 0.426530 0.305080 -0.639764
O26   O     O_R   0.865790 0.573470 0.694920 -0.637061
C1    C     C_R   0.389841 0.110166 0.110107 0.774024
C2    C     C_R   0.610102 0.889895 0.889819 0.774492
C3    C     C_R   0.110167 0.110105 0.389845 0.774216
C4    C     C_R   0.889903 0.889812 0.610102 0.774819
C5    C     C_R   0.110107 0.389843 0.110163 0.774316
C6    C     C_R   0.889814 0.610102 0.889903 0.774907
C7    C     C_R   0.108770 0.390332 0.389842 0.801390
C8    C     C_R   0.891125 0.609589 0.610258 0.801377
C9    C     C_R   0.390345 0.389832 0.108772 0.801139
C10   C     C_R   0.609580 0.610266 0.891115 0.801318
C11   C     C_R   0.389842 0.108774 0.390336 0.801323
C12   C     C_R   0.610259 0.891119 0.609582 0.801296
H1    H     H_    0.820572 0.274490 0.561897 0.147411
H2    H     H_    0.177842 0.726987 0.434758 0.154608
H3    H     H_    0.273722 0.563538 0.821356 0.147576
H4    H     H_    0.727797 0.433102 0.177004 0.154984
H5    H     H_    0.561404 0.820409 0.274723 0.147524
H6    H     H_    0.435178 0.177963 0.726792 0.154539
C13   C     C_R   0.174376 0.933052 0.385533 -0.089386
C14   C     C_R   0.824797 0.067695 0.612570 -0.092482
C15   C     C_R   0.933455 0.384687 0.173937 -0.089109
C16   C     C_R   0.067331 0.613369 0.825189 -0.092654
C17   C     C_R   0.385716 0.174428 0.932967 -0.089197
C18   C     C_R   0.612319 0.824705 0.067818 -0.092376
C19   C     C_R   0.206166 0.847466 0.382689 -0.049476
C20   C     C_R   0.792553 0.153715 0.614544 -0.050411
C21   C     C_R   0.848104 0.381384 0.205490 -0.049860
C22   C     C_R   0.153123 0.615808 0.793173 -0.050268
C23   C     C_R   0.382994 0.206256 0.847322 -0.051246
C24   C     C_R   0.614162 0.792419 0.153900 -0.050390
C25   C     C_R   0.152663 0.793833 0.436388 -0.120274
C26   C     C_R   0.846104 0.207310 0.560956 -0.111205
C27   C     C_R   0.794474 0.435081 0.152000 -0.121074
C28   C     C_R   0.206707 0.562242 0.846721 -0.112091
C29   C     C_R   0.436716 0.152758 0.793681 -0.121335
C30   C     C_R   0.560562 0.845970 0.207499 -0.112281
C31   C     C_R   0.067103 0.825549 0.493119 -0.162513
C32   C     C_R   0.932175 0.175116 0.505215 -0.135349
C33   C     C_R   0.825958 0.492274 0.066688 -0.163367
C34   C     C_R   0.174731 0.506049 0.932562 -0.135751
C35   C     C_R   0.493349 0.067164 0.825447 -0.162654
C36   C     C_R   0.504939 0.932084 0.175248 -0.135835
C37   C     C_R   0.032475 0.913051 0.496070 0.113070
C38   C     C_R   0.967149 0.087277 0.502997 0.114117
C39   C     C_R   0.913268 0.495643 0.032250 0.113165
C40   C     C_R   0.087082 0.503402 0.967347 0.114184
C41   C     C_R   0.496182 0.032504 0.913002 0.112834
C42   C     C_R   0.502848 0.967091 0.087354 0.115096
C43   C     C_R   0.086928 0.967563 0.441555 0.106756
C44   C     C_R   0.912659 0.032802 0.557427 0.103515
C45   C     C_R   0.967782 0.441124 0.086697 0.107079
C46   C     C_R   0.032612 0.557825 0.912859 0.103488
C47   C     C_R   0.441648 0.086953 0.967521 0.107891
C48   C     C_R   0.557287 0.912601 0.032876 0.104647
C49   C     C_R   0.945910 0.946003 0.553806 -0.114920
C50   C     C_R   0.053988 0.054066 0.445805 -0.115968
C51   C     C_R   0.946010 0.553801 0.945904 -0.114908
C52   C     C_R   0.054074 0.445794 0.053977 -0.115915
C53   C     C_R   0.553802 0.945899 0.946013 -0.114426
C54   C     C_R   0.445786 0.053976 0.054078 -0.114961
H7    H     H_    0.219730 0.970956 0.344124 0.133370
H8    H     H_    0.779478 0.029743 0.653887 0.132266
H9    H     H_    0.971303 0.343292 0.219332 0.134142
H10   H     H_    0.029433 0.654667 0.779832 0.133132
H11   H     H_    0.344283 0.219767 0.970889 0.133363
H12   H     H_    0.653655 0.779400 0.029848 0.132326
H13   H     H_    0.272998 0.822342 0.339310 0.184714
H14   H     H_    0.725362 0.179180 0.657188 0.177930
H15   H     H_    0.823147 0.337655 0.272145 0.185759
H16   H     H_    0.178430 0.658797 0.726147 0.179784
H17   H     H_    0.339685 0.273109 0.822163 0.184850
H18   H     H_    0.656722 0.725201 0.179406 0.178698
H19   H     H_    0.029201 0.780195 0.534958 0.135537
H20   H     H_    0.970146 0.220416 0.463368 0.130443
H21   H     H_    0.780559 0.534124 0.028845 0.136180
H22   H     H_    0.220066 0.464204 0.970483 0.130914
H23   H     H_    0.535203 0.029255 0.780094 0.135389
H24   H     H_    0.463087 0.970069 0.220539 0.130240
H25   H     H_    0.007349 0.700193 0.071472 0.214061
H26   H     H_    0.982532 0.320643 0.931106 0.189722
H27   H     H_    0.702129 0.070341 0.010662 0.214351
H28   H     H_    0.319652 0.931504 0.981471 0.189922
H29   H     H_    0.071331 0.007719 0.700555 0.214094
H30   H     H_    0.931371 0.981780 0.320557 0.190187
C55   C     C_R   0.060545 0.678112 0.165306 -0.028361
C56   C     C_R   0.924656 0.343538 0.840721 -0.126889
C57   C     C_R   0.679095 0.165518 0.062741 -0.028190
C58   C     C_R   0.343003 0.840734 0.923791 -0.126703
C59   C     C_R   0.165271 0.061019 0.678070 -0.028257
C60   C     C_R   0.840745 0.924177 0.343467 -0.125156
C61   C     C_R   0.058649 0.635708 0.254316 -0.092391
C62   C     C_R   0.931483 0.376623 0.750722 -0.112091
C63   C     C_R   0.636181 0.254755 0.060115 -0.094163
C64   C     C_R   0.376349 0.750664 0.930758 -0.112617
C65   C     C_R   0.254305 0.059062 0.635558 -0.091839
C66   C     C_R   0.750687 0.931193 0.376543 -0.110058
H31   H     H_    0.099746 0.643063 0.275243 0.194678
H32   H     H_    0.884978 0.373701 0.732973 0.163748
H33   H     H_    0.643117 0.276564 0.100779 0.194460
H34   H     H_    0.373620 0.732660 0.884321 0.163510
H35   H     H_    0.275299 0.100275 0.642670 0.194401
H36   H     H_    0.732791 0.884770 0.373661 0.163290
C67   C     C_R   0.004247 0.582891 0.317129 0.060991
C68   C     C_R   0.995295 0.417706 0.683558 0.068197
C69   C     C_R   0.583463 0.316693 0.005477 0.061445
C70   C     C_R   0.417395 0.683758 0.994657 0.068406
C71   C     C_R   0.317068 0.004421 0.582976 0.061182
C72   C     C_R   0.683649 0.995066 0.417591 0.067392
C73   C     C_R   0.950411 0.572856 0.291378 -0.217413
C74   C     C_R   0.054997 0.422893 0.705874 -0.223514
C75   C     C_R   0.574022 0.289817 0.952136 -0.215323
C76   C     C_R   0.422306 0.706399 0.054293 -0.222920
C77   C     C_R   0.291239 0.950425 0.573263 -0.217430
C78   C     C_R   0.706144 0.054692 0.422688 -0.223242
H37   H     H_    0.908206 0.532236 0.340716 0.165074
H38   H     H_    0.103932 0.454949 0.653445 0.169180
H39   H     H_    0.533479 0.338483 0.909731 0.164572
H40   H     H_    0.454329 0.654161 0.103303 0.169052
H41   H     H_    0.340542 0.908036 0.532822 0.165087
H42   H     H_    0.653805 0.103706 0.454676 0.169252
C79   C     C_R   0.950626 0.615438 0.202719 0.364200
C80   C     C_R   0.051230 0.387510 0.795240 0.395177
C81   C     C_R   0.617056 0.200878 0.953147 0.365101
C82   C     C_R   0.386694 0.795840 0.050361 0.395404
C83   C     C_R   0.202544 0.950722 0.615934 0.364561
C84   C     C_R   0.795573 0.050749 0.387294 0.394670
C85   C     C_R   0.006565 0.667348 0.139943 -0.196820
C86   C     C_R   0.985299 0.348564 0.862311 -0.278875
C87   C     C_R   0.668875 0.138999 0.009315 -0.196355
C88   C     C_R   0.347779 0.862655 0.984346 -0.279270
C89   C     C_R   0.139821 0.006892 0.667617 -0.196120
C90   C     C_R   0.862528 0.984688 0.348477 -0.281834
C91   C     C_R   0.952893 0.590025 0.465750 -0.215650
C92   C     C_R   0.046359 0.409310 0.535017 -0.230062
C93   C     C_R   0.590156 0.465653 0.953236 -0.216210
C94   C     C_R   0.409188 0.535121 0.045919 -0.230210
C95   C     C_R   0.465734 0.952944 0.590042 -0.215620
C96   C     C_R   0.535048 0.046283 0.409274 -0.229852
H43   H     H_    0.915874 0.659859 0.438780 0.187885
H44   H     H_    0.083513 0.339534 0.562016 0.183513
H45   H     H_    0.660112 0.438574 0.916570 0.188358
H46   H     H_    0.339305 0.562218 0.082774 0.183605
H47   H     H_    0.438740 0.915981 0.659898 0.187920
H48   H     H_    0.562072 0.083377 0.339473 0.183018
C97   C     C_R   0.947879 0.552369 0.555189 -0.073715
C98   C     C_R   0.051425 0.447110 0.445375 -0.070828
C99   C     C_R   0.552349 0.555213 0.947836 -0.073731
C100  C     C_R   0.447144 0.445344 0.051402 -0.070864
C101  C     C_R   0.555200 0.947860 0.552354 -0.073859
C102  C     C_R   0.445372 0.051433 0.447113 -0.070903
C103  C     C_R   0.995464 0.460896 0.590343 0.021068
C104  C     C_R   0.003608 0.538486 0.410461 0.019233
C105  C     C_R   0.460752 0.590457 0.995066 0.021027
C106  C     C_R   0.538678 0.410310 0.004014 0.018958
C107  C     C_R   0.590381 0.995370 0.460846 0.021054
C108  C     C_R   0.410439 0.003675 0.538516 0.019076
C109  C     C_2   0.117809 0.734638 0.099783 0.958220
O27   O     O_2   0.123256 0.768346 0.021126 -0.590362
O28   O     O_R   0.165325 0.750137 0.128135 -0.784096
H49   H     H_    0.199603 0.791921 0.078096 0.355101
C110  C     C_2   0.854960 0.302439 0.911469 0.957124
O29   O     O_2   0.828500 0.265899 0.893654 -0.569138
O30   O     O_R   0.817640 0.304997 0.998366 -0.765074
H50   H     H_    0.834369 0.345710 0.005102 0.308500
C111  C     C_2   0.735652 0.101009 0.120111 0.957594
O31   O     O_2   0.769897 0.022160 0.126153 -0.590661
O32   O     O_R   0.750602 0.130568 0.167002 -0.783947
H51   H     H_    0.792603 0.081195 0.201281 0.354955
C112  C     C_2   0.301878 0.911205 0.854053 0.957088
O33   O     O_2   0.265545 0.893058 0.827671 -0.569263
O34   O     O_R   0.304171 0.998212 0.816613 -0.765289
H52   H     H_    0.344748 0.005225 0.833276 0.308574
C113  C     C_2   0.099832 0.118462 0.734430 0.958100
O35   O     O_2   0.021145 0.123993 0.768202 -0.590299
O36   O     O_R   0.128309 0.166031 0.749722 -0.784370
H53   H     H_    0.078340 0.200374 0.791472 0.355088
C114  C     C_2   0.911349 0.854417 0.302402 0.958563
O37   O     O_2   0.893399 0.828054 0.265886 -0.568521
O38   O     O_R   0.998258 0.816928 0.304961 -0.765339
H54   H     H_    0.005095 0.833594 0.345657 0.308419
N1    N     N_R   0.893492 0.607102 0.176818 0.195181
O39   O     O_R   0.891318 0.648898 0.095556 -0.409041
O40   O     O_R   0.840820 0.560112 0.235013 -0.428439
N2    N     N_R   0.114007 0.390980 0.817828 0.194865
O41   O     O_R   0.115323 0.352003 0.899344 -0.418140
O42   O     O_R   0.171825 0.431400 0.756723 -0.428223
N3    N     N_R   0.609284 0.173795 0.896573 0.195558
O43   O     O_R   0.650705 0.092020 0.895862 -0.407449
O44   O     O_R   0.563185 0.231369 0.842975 -0.428906
N4    N     N_R   0.389877 0.818758 0.113075 0.194993
O45   O     O_R   0.351076 0.900431 0.113932 -0.417732
O46   O     O_R   0.429833 0.757804 0.171296 -0.428518
N5    N     N_R   0.176560 0.893428 0.607932 0.195124
O47   O     O_R   0.095179 0.891574 0.649561 -0.409093
O48   O     O_R   0.234784 0.840299 0.561437 -0.428762
N6    N     N_R   0.818333 0.113528 0.390556 0.194998
O49   O     O_R   0.899934 0.114613 0.351630 -0.418270
O50   O     O_R   0.757281 0.171660 0.430602 -0.428562

loop_
_geom_bond_atom_site_label_1
_geom_bond_atom_site_label_2
_geom_bond_distance
_ccdc_geom_bond_type
C58   C112  1.486179 S    
Zn7   O5    1.936556 S    
C91   C97   1.397421 A    
C112  O33   1.221182 D    
C15   C45   1.418750 A    
C42   C54   1.415145 A    
H3    C28   1.082587 S    
C31   H19   1.080980 S    
C13   H7    1.080986 S    
O32   H51   1.012203 S    
C7    C98   1.455443 S    
Zn3   O15   1.936746 S    
O26   C8    1.273128 A    
C16   H10   1.081040 S    
C77   C83   1.406271 A    
N4    O45   1.301579 A    
C55   C85   1.406940 A    
C14   C44   1.418448 A    
C99   C105  1.416285 A    
C94   H46   1.085018 S    
O38   H54   1.012065 S    
C79   C85   1.407352 A    
C92   H44   1.085005 S    
C112  O34   1.399648 S    
C4    C49   1.453821 S    
C37   C49   1.415303 A    
C63   C69   1.399514 A    
C3    C50   1.454081 S    
C10   C99   1.455113 S    
C95   C101  1.397421 A    
C21   H15   1.082802 S    
C55   C109  1.482938 S    
C57   C63   1.402939 A    
C64   H34   1.083973 S    
C46   C51   1.414889 A    
N1    O40   1.301505 A    
Zn4   O16   1.936744 S    
C42   C48   1.411918 A    
H26   C86   1.081998 S    
C65   C71   1.399553 A    
Zn3   O25   1.936520 S    
C28   C34   1.392920 A    
C17   H11   1.080987 S    
C47   C54   1.415198 A    
C15   C21   1.392653 A    
Zn1   O23   1.936716 S    
C58   C88   1.406414 A    
C61   H31   1.083580 S    
Zn2   O24   1.936718 S    
C78   C84   1.406050 A    
N5    O47   1.301593 A    
C21   C27   1.388110 A    
C57   C111  1.482832 S    
C32   C38   1.418168 A    
H6    C29   1.082576 S    
C65   H35   1.083594 S    
N2    O42   1.301565 A    
C2    C53   1.453776 S    
C18   H12   1.081114 S    
C26   C32   1.392918 A    
C32   H20   1.081088 S    
H29   C89   1.082730 S    
C59   C65   1.403031 A    
C94   C105  1.386408 A    
C82   N4    1.440198 S    
C20   C26   1.388357 A    
Zn3   O11   1.936568 S    
C27   C33   1.392772 A    
H5    C30   1.082574 S    
C83   N5    1.440066 S    
H2    C25   1.082570 S    
C23   H17   1.082756 S    
H4    C27   1.082582 S    
C81   C87   1.407398 A    
H1    C26   1.082570 S    
O5    C3    1.275246 A    
C82   C88   1.407073 A    
C91   H43   1.084930 S    
C16   C22   1.392623 A    
Zn7   O7    1.936717 S    
C67   C73   1.401085 A    
C80   C86   1.407069 A    
C111  O31   1.223414 D    
Zn8   O8    1.936719 S    
C34   C40   1.418260 A    
C94   C100  1.400327 A    
C81   N3    1.440042 S    
O22   C10   1.273073 A    
N6    O49   1.301574 A    
C78   H42   1.083096 S    
C20   H14   1.082777 S    
C101  C107  1.416338 A    
O12   C10   1.283777 A    
C45   C52   1.415319 A    
O11   C9    1.282572 A    
C17   C23   1.392716 A    
O13   C11   1.282416 A    
C13   C19   1.392702 A    
C62   H32   1.083956 S    
Zn8   O4    1.936507 S    
Zn4   O26   1.936518 S    
C56   C110  1.486228 S    
C59   C113  1.482901 S    
C113  O35   1.223367 D    
C19   H13   1.082759 S    
C23   C29   1.388235 A    
C68   C103  1.479731 S    
Zn1   O1    1.947240 S    
Zn6   O22   1.936639 S    
C70   C76   1.401119 A    
C35   C41   1.418330 A    
C14   C20   1.392665 A    
C18   C24   1.392684 A    
C61   C67   1.399598 A    
C92   C98   1.400329 A    
C91   C104  1.385494 A    
H30   C90   1.081974 S    
C22   H16   1.082825 S    
C38   C50   1.415180 A    
C17   C47   1.418640 A    
C95   C108  1.385527 A    
C18   C48   1.418419 A    
C59   C89   1.406936 A    
C12   C101  1.455254 S    
C74   C80   1.406045 A    
Zn7   O3    1.936506 S    
N1    O39   1.301586 A    
C109  O28   1.398420 S    
Zn5   O1    1.947235 S    
N3    O43   1.301634 A    
Zn3   O1    1.947377 S    
C72   C78   1.401104 A    
O6    C4    1.276118 A    
C57   C87   1.406887 A    
C41   C53   1.415268 A    
C96   C102  1.400346 A    
C16   C46   1.418538 A    
C114  O37   1.221179 D    
C39   C51   1.415437 A    
O20   C4    1.274666 A    
C8    C97   1.455115 S    
C36   H24   1.081105 S    
C93   C99   1.397349 A    
C15   H9    1.080913 S    
O36   H53   1.012185 S    
C93   H45   1.084929 S    
C60   C66   1.404573 A    
C100  C106  1.415601 A    
C95   H47   1.084926 S    
N6    O50   1.301511 A    
C40   C52   1.415319 A    
O7    C5    1.275297 A    
C75   H39   1.083096 S    
C56   C62   1.404585 A    
C98   C104  1.415465 A    
O8    C6    1.276201 A    
O14   C12   1.283721 A    
C60   C90   1.406438 A    
C55   C61   1.403056 A    
O18   C2    1.274658 A    
N5    O48   1.301472 A    
O17   C1    1.275736 A    
C24   C30   1.388378 A    
C30   C36   1.392925 A    
C76   H40   1.083097 S    
O4    C2    1.276118 A    
C44   C49   1.414785 A    
C36   C42   1.418149 A    
C69   C106  1.478368 S    
Zn2   O2    1.947237 S    
Zn5   O21   1.936639 S    
C5    C52   1.454189 S    
C31   C37   1.418335 A    
C111  O32   1.398430 S    
C113  O36   1.398434 S    
C67   C104  1.478313 S    
C1    C54   1.454042 S    
C96   H48   1.085012 S    
C109  O27   1.223369 D    
Zn7   O1    1.946935 S    
C43   C50   1.415196 A    
O34   H52   1.012073 S    
C48   C53   1.414777 A    
C62   C68   1.401255 A    
C102  C108  1.415463 A    
Zn8   O6    1.936558 S    
C92   C103  1.386485 A    
C114  O38   1.399647 S    
C70   C105  1.479674 S    
O24   C12   1.273063 A    
H28   C88   1.081975 S    
C66   H36   1.083976 S    
C71   C108  1.478266 S    
C63   H33   1.083599 S    
C93   C106  1.385439 A    
Zn2   O10   1.936589 S    
C33   C39   1.418430 A    
N4    O46   1.301516 A    
Zn5   O17   1.936608 S    
C80   N2    1.440161 S    
C58   C64   1.404569 A    
C24   H18   1.082774 S    
C76   C82   1.406023 A    
C60   C114  1.486222 S    
C56   C86   1.406416 A    
C96   C107  1.386526 A    
C75   C81   1.406356 A    
C9    C100  1.455499 S    
C35   H23   1.080994 S    
C22   C28   1.388256 A    
C73   C79   1.406261 A    
C13   C43   1.418649 A    
O25   C7    1.274715 A    
O10   C8    1.283742 A    
C64   C70   1.401198 A    
N3    O44   1.301505 A    
C25   C31   1.392785 A    
C74   H38   1.083099 S    
C19   C25   1.388223 A    
C41   C47   1.411927 A    
N2    O41   1.301575 A    
Zn6   O18   1.936606 S    
C68   C74   1.401110 A    
O15   C5    1.275749 A    
C79   N1    1.440041 S    
O3    C1    1.275197 A    
O16   C6    1.274679 A    
C39   C45   1.411951 A    
C97   C103  1.416290 A    
C29   C35   1.392786 A    
C84   N6    1.440166 S    
C33   H21   1.080923 S    
C6    C51   1.453912 S    
H27   C87   1.082727 S    
O30   H50   1.012058 S    
C77   H41   1.083103 S    
O9    C7    1.282474 A    
C38   C44   1.411923 A    
Zn6   O2    1.947236 S    
C71   C77   1.401076 A    
H25   C85   1.082738 S    
C110  O29   1.221159 D    
Zn4   O12   1.936566 S    
C83   C89   1.407371 A    
C40   C46   1.411933 A    
C73   H37   1.083104 S    
Zn5   O13   1.936716 S    
Zn1   O9    1.936590 S    
Zn8   O2    1.946933 S    
O28   H49   1.012231 S    
O23   C11   1.274672 A    
Zn1   O19   1.936654 S    
C37   C43   1.411940 A    
C66   C72   1.401237 A    
Zn2   O20   1.936655 S    
C34   H22   1.081030 S    
Zn4   O2    1.947380 S    
C14   H8    1.081105 S    
O21   C9    1.274633 A    
C72   C107  1.479721 S    
O19   C3    1.275688 A    
C11   C102  1.455549 S    
C69   C75   1.401135 A    
C110  O30   1.399644 S    
C84   C90   1.407101 A    
Zn6   O14   1.936719 S    
