data_mof_unit_pretest_1370.cif
_audit_creation_date              2013-03-05T16:41:05-0500
_audit_creation_method            fapswitch 2.2
_symmetry_space_group_name_H-M    P1
_symmetry_Int_Tables_number       1
_space_group_crystal_system       triclinic
_cell_length_a                    8.602972
_cell_length_b                    10.736585
_cell_length_c                    9.918005
_cell_angle_alpha                 89.414808
_cell_angle_beta                  97.270448
_cell_angle_gamma                 92.108382
_cell_volume                      908.096830643

loop_
_atom_site_label
_atom_site_type_symbol
_atom_site_description
_atom_site_fract_x
_atom_site_fract_y
_atom_site_fract_z
_atom_type_partial_charge
O1    O     O_R   0.500020 0.316790 0.614690 -0.552979
O2    O     O_R   0.500000 0.316760 0.385350 -0.574744
C1    C     C_R   0.514188 0.261252 0.502096 0.920040
O3    O     O_R   0.271760 0.500010 0.587850 -0.567017
O4    O     O_R   0.271740 0.499970 0.358500 -0.621988
C2    C     C_R   0.202248 0.496262 0.465746 0.888309
Zn1   Zn    Zn3+2 0.500010 0.500020 0.653130 1.113080
Zn2   Zn    Zn3+2 0.499990 0.499980 0.346870 1.054674
O5    O     O_R   0.500000 0.683240 0.614650 -0.579686
O6    O     O_R   0.499980 0.683210 0.385310 -0.655801
O7    O     O_R   0.728260 0.500030 0.641500 -0.612691
O8    O     O_R   0.728240 0.499990 0.412150 -0.589073
C3    C     C_R   0.502656 0.739827 0.499681 0.970857
C4    C     C_R   0.797953 0.506275 0.533852 0.910328
C5    C     C_2   0.037994 0.477936 0.452205 0.182333
C6    C     C_2   0.960778 0.532810 0.543743 0.087700
C7    C     C_R   0.505762 0.063834 0.621900 0.020945
C8    C     C_R   0.537210 0.129920 0.505932 -0.243161
C9    C     C_R   0.571747 0.065542 0.389849 0.522872
C10   C     C_R   0.546879 0.937652 0.384315 -0.114072
H1    H     H_    0.568444 0.889058 0.293611 0.216851
C11   C     C_R   0.511132 0.872310 0.499725 -0.153041
C12   C     C_R   0.499028 0.935751 0.619322 -0.024431
C13   C     C_3   0.589934 0.922314 0.759097 0.295198
C14   C     C_3   0.596699 0.065254 0.762791 0.504425
C15   C     C_R   0.363033 0.486222 0.055960 -0.035753
N1    N     N_R   0.498950 0.499140 0.142680 -0.144849
C16   C     C_R   0.631387 0.535112 0.084430 0.524404
C17   C     C_R   0.632372 0.529532 0.941528 -0.039470
H2    H     H_    0.739120 0.553636 0.898800 0.213649
N2    N     N_R   0.498950 0.499180 0.857030 -0.148066
C18   C     C_R   0.362457 0.488351 0.914153 0.260108
C19   C     C_3   0.237081 0.387408 0.894976 0.646519
C20   C     C_3   0.238891 0.384310 0.050097 -0.047755
H3    H     H_    0.128491 0.414819 0.085020 0.159042
O9    O     O_3   0.964625 0.389888 0.361502 -0.720039
H4    H     H_    0.043798 0.352257 0.311723 0.374355
O10   O     O_3   0.097588 0.430618 0.825569 -0.736469
H5    H     H_    0.013743 0.368405 0.841300 0.366074
O11   O     O_3   0.286558 0.280052 0.836233 -0.642581
H6    H     H_    0.202986 0.214774 0.842292 0.389093
N3    N     N_R   0.294974 0.268201 0.113735 0.251139
O12   O     O_R   0.433182 0.229867 0.098821 -0.283836
O13   O     O_R   0.204119 0.200070 0.182273 -0.340651
N4    N     N_R   0.027681 0.634439 0.629442 0.233102
O14   O     O_R   0.981337 0.651076 0.747575 -0.244220
O15   O     O_R   0.113099 0.722125 0.580197 -0.327704
O16   O     O_3   0.639032 0.122254 0.285119 -0.648085
H7    H     H_    0.704522 0.194792 0.322468 0.377519
N5    N     N_R   0.495823 0.862600 0.857577 0.216318
O17   O     O_R   0.551701 0.856668 0.985603 -0.360753
O18   O     O_R   0.356256 0.814788 0.818789 -0.271997
N6    N     N_R   0.744825 0.867523 0.762740 0.213920
O19   O     O_R   0.807757 0.852046 0.651746 -0.332653
O20   O     O_R   0.831850 0.854727 0.878913 -0.241878
O21   O     O_3   0.509004 0.114062 0.858165 -0.635443
H8    H     H_    0.565786 0.094622 0.948816 0.413764
N7    N     N_R   0.754551 0.125186 0.769495 0.208769
O22   O     O_R   0.841155 0.111894 0.672386 -0.359232
O23   O     O_R   0.808616 0.194486 0.872969 -0.360185
O24   O     O_3   0.762987 0.583709 0.160936 -0.689854
H9    H     H_    0.725292 0.638730 0.228448 0.364768

loop_
_geom_bond_atom_site_label_1
_geom_bond_atom_site_label_2
_geom_bond_distance
_ccdc_geom_bond_type
C6    N4    1.446796 S    
O4    Zn2   1.981528 S    
N5    O18   1.301899 A    
C12   C13   1.511311 S    
C13   C14   1.534284 S    
C15   C18   1.405784 A    
C17   H2    1.081068 S    
C13   N6    1.472428 S    
N2    C18   1.367600 A    
C20   N3    1.461609 S    
C14   O21   1.399423 S    
Zn2   O8    1.988271 S    
C7    C14   1.512528 S    
C16   O24   1.370014 S    
C10   H1    1.083913 S    
C9    C10   1.382432 A    
N4    O15   1.302085 A    
C19   C20   1.536635 S    
C2    C5    1.409102 S    
C17   N2    1.364045 A    
C7    C8    1.395534 A    
N4    O14   1.300522 A    
C18   C19   1.496806 S    
Zn1   O7    1.981528 S    
C16   C17   1.420287 A    
C15   N1    1.364616 A    
C7    C12   1.374622 A    
N3    O13   1.300135 A    
O3    Zn1   1.988272 S    
O4    C2    1.284021 A    
O3    C2    1.281310 A    
O9    H4    0.990123 S    
C10   C11   1.397765 A    
C3    C11   1.421601 S    
O2    C1    1.290833 A    
N6    O20   1.301138 A    
C13   N5    1.472989 S    
O24   H9    0.989761 S    
C20   H3    1.112570 S    
O7    C4    1.288976 A    
C4    C6    1.410464 S    
C19   O11   1.400623 S    
Zn1   N2    2.023381 S    
N3    O12   1.298760 A    
N7    O23   1.300948 A    
C5    C6    1.343494 D    
C5    O9    1.389637 S    
O10   H5    0.990802 S    
O21   H8    0.991485 S    
C1    C8    1.430558 S    
Zn2   O6    2.007691 S    
C8    C9    1.417570 A    
C14   N7    1.475247 S    
N1    C16   1.382285 A    
Zn1   O5    2.000007 S    
Zn2   N1    2.024155 S    
O5    C3    1.288903 A    
C9    O16   1.377707 S    
O16   H7    0.990951 S    
O11   H6    0.992341 S    
N5    O17   1.301364 A    
N7    O22   1.302049 A    
O1    Zn1   2.007692 S    
C15   C20   1.496941 S    
C11   C12   1.390958 A    
O2    Zn2   2.000006 S    
C19   O10   1.398063 S    
N6    O19   1.301450 A    
O8    C4    1.279316 A    
O1    C1    1.292616 A    
O6    C3    1.289648 A    
