data_mof_unit_pretest_318.cif
_audit_creation_date              2012-12-11T15:37:25-0500
_audit_creation_method            fapswitch 2.2
_symmetry_space_group_name_H-M    P1
_symmetry_Int_Tables_number       1
_space_group_crystal_system       triclinic
_cell_length_a                    17.329601
_cell_length_b                    24.303041
_cell_length_c                    14.804797
_cell_angle_alpha                 90.000386
_cell_angle_beta                  126.013278
_cell_angle_gamma                 90.000698
_cell_volume                      5043.54782529

loop_
_atom_site_label
_atom_site_type_symbol
_atom_type_description
_atom_site_fract_x
_atom_site_fract_y
_atom_site_fract_z
_atom_type_partial_charge
C1    C     C_R   0.850690 0.652707 0.907649 -0.141323
C2    C     C_3   0.575162 0.499522 0.647173 0.185007
C3    C     C_3   0.047081 0.990027 0.529159 -0.132866
C4    C     C_3   0.901754 0.999483 0.468220 0.186153
C5    C     C_3   0.075186 0.000459 0.647190 0.184993
C6    C     C_R   0.789245 0.232250 0.899107 -0.173632
C7    C     C_R   0.342775 0.686222 0.100381 -0.169546
C8    C     C_R   0.342799 0.313771 0.100564 -0.169694
C9    C     C_R   0.789111 0.767683 0.898944 -0.173635
C10   C     C_R   0.289122 0.732310 0.898947 -0.173642
C11   C     C_R   0.842804 0.186227 0.100558 -0.169679
C12   C     C_R   0.842772 0.813779 0.100376 -0.169542
C13   C     C_R   0.191070 0.374501 0.093125 -0.125835
C14   C     C_R   0.289243 0.267748 0.899112 -0.173635
C15   C     C_R   0.240420 0.687034 0.898283 -0.172446
C16   C     C_R   0.890930 0.231891 0.101308 -0.175363
C17   C     C_R   0.890961 0.768147 0.101146 -0.175825
C18   C     C_R   0.240614 0.313063 0.898465 -0.172479
C19   C     C_R   0.740614 0.186935 0.898459 -0.172474
C20   C     C_R   0.390963 0.731855 0.101149 -0.175826
C21   C     C_R   0.390923 0.268107 0.101313 -0.175356
C22   C     C_R   0.740407 0.812957 0.898278 -0.172445
C23   C     C_R   0.260356 0.667778 0.999052 0.145722
C24   C     C_R   0.190958 0.625655 0.093033 -0.125767
C25   C     C_R   0.857931 0.258319 0.000596 0.144071
C26   C     C_R   0.857904 0.741674 0.000460 0.144044
C27   C     C_R   0.260497 0.332301 0.999222 0.145769
C28   C     C_R   0.760497 0.167698 0.999217 0.145769
C29   C     C_R   0.357910 0.758324 0.000462 0.144044
C30   C     C_R   0.357928 0.241679 0.000601 0.144073
C31   C     C_R   0.760349 0.832217 0.999048 0.145726
C32   C     C_R   0.884899 0.450194 0.457438 -0.175359
C33   C     C_R   0.888358 0.549779 0.366404 -0.169230
C34   C     C_R   0.888359 0.450219 0.366403 -0.169460
C35   C     C_R   0.850723 0.347272 0.907695 -0.141548
C36   C     C_R   0.884896 0.549802 0.457439 -0.175924
C37   C     C_R   0.384896 0.950194 0.457438 -0.175920
C38   C     C_R   0.388357 0.049778 0.366403 -0.169455
C39   C     C_R   0.388360 0.950218 0.366406 -0.169229
C40   C     C_R   0.384896 0.049803 0.457437 -0.175368
C41   C     C_R   0.901704 0.499999 0.329457 0.144421
C42   C     C_R   0.893830 0.499998 0.510660 0.140608
C43   C     C_R   0.401705 0.999998 0.329458 0.144423
C44   C     C_R   0.393827 0.999999 0.510659 0.140594
C45   C     C_R   0.945322 0.348352 0.093312 -0.141403
C46   C     C_R   0.350722 0.152727 0.907697 -0.141560
C47   C     C_R   0.095905 0.624191 0.905782 -0.126289
C48   C     C_R   0.095987 0.375851 0.905846 -0.126180
C49   C     C_R   0.945323 0.651660 0.093276 -0.141791
C50   C     C_R   0.445324 0.848340 0.093276 -0.141781
C51   C     C_R   0.595985 0.124151 0.905844 -0.126179
C52   C     C_R   0.595903 0.875808 0.905780 -0.126293
C53   C     C_R   0.445322 0.151648 0.093314 -0.141407
C54   C     C_R   0.980042 0.546296 0.248461 -0.127703
C55   C     C_R   0.947013 0.454118 0.692870 -0.142351
C56   C     C_R   0.947005 0.545879 0.692865 -0.142954
C57   C     C_R   0.690954 0.874341 0.093031 -0.125744
C58   C     C_R   0.980047 0.453704 0.248467 -0.128058
C59   C     C_R   0.480047 0.046295 0.248468 -0.128058
C60   C     C_R   0.447003 0.954120 0.692865 -0.142950
C61   C     C_R   0.447012 0.045881 0.692870 -0.142366
C62   C     C_R   0.480043 0.953703 0.248462 -0.127714
C63   C     C_R   0.731811 0.454146 0.754270 -0.125552
C64   C     C_R   0.260073 0.545743 0.301658 -0.142378
C65   C     C_R   0.259900 0.454635 0.302590 -0.152280
C66   C     C_R   0.731687 0.545507 0.755136 -0.136721
C67   C     C_R   0.231695 0.954488 0.755162 -0.136535
C68   C     C_R   0.691068 0.125504 0.093123 -0.125811
C69   C     C_R   0.759933 0.045372 0.302548 -0.152140
C70   C     C_R   0.760105 0.954264 0.301636 -0.142555
C71   C     C_R   0.231815 0.045845 0.754316 -0.125734
C72   C     C_R   0.882691 0.684149 0.000876 0.049611
C73   C     C_R   0.187137 0.362077 0.999093 0.039936
C74   C     C_R   0.187007 0.638036 0.998981 0.040110
C75   C     C_R   0.882698 0.315848 0.000944 0.049734
C76   C     C_R   0.382697 0.184150 0.000947 0.049730
C77   C     C_R   0.687002 0.861960 0.998979 0.040105
C78   C     C_R   0.687135 0.137926 0.999090 0.039938
C79   C     C_R   0.350691 0.847291 0.907648 -0.141347
C80   C     C_R   0.382693 0.815850 0.000875 0.049615
C81   C     C_R   0.948278 0.500000 0.273123 0.040542
C82   C     C_R   0.928951 0.499998 0.627819 0.049370
C83   C     C_R   0.448279 0.999998 0.273124 0.040543
C84   C     C_R   0.428949 0.000000 0.627818 0.049358
C85   C     C_R   0.676391 0.499664 0.732116 0.028170
C86   C     C_R   0.310000 0.500327 0.361865 0.040004
C87   C     C_R   0.176402 0.000324 0.732194 0.028127
C88   C     C_R   0.810063 0.999685 0.361802 0.040034
C89   C     C_3   0.507598 0.450159 0.606185 -0.167399
C90   C     C_3   0.401690 0.500535 0.468278 0.186146
C91   C     C_3   0.469371 0.549809 0.509612 -0.168326
C92   C     C_3   0.478853 0.461175 0.487542 -0.156823
C93   C     C_3   0.498478 0.539059 0.628723 -0.157615
C94   C     C_3   0.998633 0.960670 0.628310 -0.157874
C95   C     C_3   0.978782 0.039096 0.487903 -0.157110
C96   C     C_3   0.969632 0.950324 0.509131 -0.168190
C97   C     C_3   0.007435 0.049708 0.606633 -0.167303
C98   C     C_3   0.428236 0.489596 0.585227 -0.143000
C99   C     C_3   0.546955 0.510357 0.529216 -0.133028
C100  C     C_3   0.928202 0.010015 0.585246 -0.142873
H1    H     H_    0.812050 0.666531 0.822194 0.083285
H2    H     H_    0.067501 0.629245 0.819093 0.092619
H3    H     H_    0.067607 0.370769 0.819169 0.092536
H4    H     H_    0.993375 0.665454 0.178701 0.083849
H5    H     H_    0.493378 0.834548 0.178700 0.083846
H6    H     H_    0.567604 0.129232 0.819166 0.092538
H7    H     H_    0.567499 0.870755 0.819091 0.092620
H8    H     H_    0.493382 0.165428 0.178747 0.083749
H9    H     H_    0.969153 0.588871 0.258465 0.093238
H10   H     H_    0.927723 0.412104 0.664448 0.083205
H11   H     H_    0.927696 0.587890 0.664434 0.083093
H12   H     H_    0.249613 0.368444 0.179452 0.089123
H13   H     H_    0.969166 0.411131 0.258485 0.093258
H14   H     H_    0.469165 0.088868 0.258485 0.093259
H15   H     H_    0.427695 0.912108 0.664433 0.083096
H16   H     H_    0.427720 0.087894 0.664447 0.083205
H17   H     H_    0.469155 0.911128 0.258466 0.093239
H18   H     H_    0.709198 0.411661 0.737675 0.096776
H19   H     H_    0.273546 0.587845 0.330785 0.086913
H20   H     H_    0.273959 0.412630 0.332380 0.091752
H21   H     H_    0.708539 0.587909 0.738909 0.101744
H22   H     H_    0.208550 0.912085 0.738921 0.101692
H23   H     H_    0.249433 0.631930 0.179280 0.089044
H24   H     H_    0.773992 0.087377 0.332342 0.091679
H25   H     H_    0.773598 0.912165 0.330784 0.086994
H26   H     H_    0.209185 0.088327 0.737713 0.096886
H27   H     H_    0.376264 0.481192 0.604309 0.113747
H28   H     H_    0.597267 0.518809 0.507528 0.116184
H29   H     H_    0.876165 0.018104 0.604356 0.113756
H30   H     H_    0.097467 0.981893 0.507456 0.116226
H31   H     H_    0.525514 0.409572 0.648428 0.109752
H32   H     H_    0.452684 0.590583 0.468247 0.104760
H33   H     H_    0.469187 0.429508 0.427585 0.108982
H34   H     H_    0.812152 0.333401 0.822279 0.083092
H35   H     H_    0.509456 0.570595 0.689501 0.114203
H36   H     H_    0.009702 0.928908 0.688771 0.114148
H37   H     H_    0.969022 0.070988 0.428261 0.108881
H38   H     H_    0.953102 0.909665 0.467373 0.104803
H39   H     H_    0.025209 0.090181 0.649273 0.109857
H40   H     H_    0.765768 0.249394 0.819441 0.104860
H41   H     H_    0.364784 0.669568 0.179890 0.105163
H42   H     H_    0.364744 0.330382 0.180080 0.104306
H43   H     H_    0.765592 0.750510 0.819284 0.105066
H44   H     H_    0.265609 0.749480 0.819288 0.105067
H45   H     H_    0.312150 0.166597 0.822280 0.083101
H46   H     H_    0.864750 0.169616 0.180074 0.104308
H47   H     H_    0.864784 0.830437 0.179885 0.105142
H48   H     H_    0.265767 0.250604 0.819446 0.104863
H49   H     H_    0.181325 0.671279 0.818498 0.107235
H50   H     H_    0.947517 0.248987 0.181128 0.105011
H51   H     H_    0.947645 0.751104 0.180972 0.105094
H52   H     H_    0.181606 0.328873 0.818684 0.107118
H53   H     H_    0.681606 0.171123 0.818678 0.107119
H54   H     H_    0.447644 0.748901 0.180974 0.105094
H55   H     H_    0.447506 0.251010 0.181134 0.105012
H56   H     H_    0.749425 0.868060 0.179277 0.089024
H57   H     H_    0.681308 0.828707 0.818493 0.107233
H58   H     H_    0.885245 0.410898 0.491774 0.105192
H59   H     H_    0.890995 0.589033 0.334050 0.107310
H60   H     H_    0.890997 0.410965 0.334048 0.107396
H61   H     H_    0.885240 0.589098 0.491774 0.105115
H62   H     H_    0.385240 0.910899 0.491772 0.105117
H63   H     H_    0.390994 0.089032 0.334048 0.107397
H64   H     H_    0.391001 0.910964 0.334053 0.107309
H65   H     H_    0.385239 0.089099 0.491772 0.105192
H66   H     H_    0.749610 0.131569 0.179447 0.089108
H67   H     H_    0.312051 0.833465 0.822194 0.083288
H68   H     H_    0.993383 0.334573 0.178744 0.083747
N1    N     N_R   0.892620 0.603790 0.941800 -0.036431
N2    N     N_R   0.047790 0.602400 0.942090 -0.039356
N3    N     N_R   0.047790 0.397600 0.942090 -0.039421
N4    N     N_R   0.952210 0.602400 0.057910 -0.036312
N5    N     N_R   0.452210 0.897600 0.057910 -0.036309
N6    N     N_R   0.547790 0.102400 0.942090 -0.039419
N7    N     N_R   0.547790 0.897600 0.942090 -0.039356
N8    N     N_R   0.452210 0.102400 0.057910 -0.036301
N9    N     N_R   0.026300 0.529110 0.206760 -0.040191
N10   N     N_R   0.973700 0.470890 0.793240 -0.036878
N11   N     N_R   0.973700 0.529110 0.793240 -0.036778
N12   N     N_R   0.107380 0.396210 0.058200 -0.039629
N13   N     N_R   0.026300 0.470890 0.206760 -0.040111
N14   N     N_R   0.526300 0.029110 0.206760 -0.040118
N15   N     N_R   0.473700 0.970890 0.793240 -0.036778
N16   N     N_R   0.473700 0.029110 0.793240 -0.036874
N17   N     N_R   0.526300 0.970890 0.206760 -0.040194
N18   N     N_R   0.818530 0.472270 0.792960 -0.040247
N19   N     N_R   0.181470 0.527730 0.207040 -0.035268
N20   N     N_R   0.181470 0.472270 0.207040 -0.034840
N21   N     N_R   0.818530 0.527730 0.792960 -0.040077
N22   N     N_R   0.318530 0.972270 0.792960 -0.040093
N23   N     N_R   0.107380 0.603790 0.058200 -0.039833
N24   N     N_R   0.681470 0.027730 0.207040 -0.034841
N25   N     N_R   0.681470 0.972270 0.207040 -0.035253
N26   N     N_R   0.318530 0.027730 0.792960 -0.040254
N27   N     N_R   0.892620 0.396210 0.941800 -0.036728
N28   N     N_R   0.392620 0.103790 0.941800 -0.036718
N29   N     N_R   0.607380 0.896210 0.058200 -0.039829
N30   N     N_R   0.607380 0.103790 0.058200 -0.039633
N31   N     N_R   0.392620 0.896210 0.941800 -0.036433
N32   N     N_R   0.952210 0.397600 0.057910 -0.036302
Ni1   Ni    Ni4+2 0.934150 0.565840 0.869060 0.208160
Ni2   Ni    Ni4+2 0.065850 0.434160 0.130940 0.210662
Ni3   Ni    Ni4+2 0.065850 0.565840 0.130940 0.210822
Ni4   Ni    Ni4+2 0.934150 0.434160 0.869060 0.208636
Ni5   Ni    Ni4+2 0.434150 0.065840 0.869060 0.208627
Ni6   Ni    Ni4+2 0.565850 0.934160 0.130940 0.210826
Ni7   Ni    Ni4+2 0.565850 0.065840 0.130940 0.210672
Ni8   Ni    Ni4+2 0.434150 0.934160 0.869060 0.208165

loop_
_geom_bond_atom_site_label_1
_geom_bond_atom_site_label_2
_ccdc_geom_bond_type
C62   C83   A    
C59   H14   S    
C59   N14   A    
N10   Ni4   S    
N5    N31   A    
C3    H30   S    
C43   C83   S    
C14   C18   A    
C36   C42   A    
N13   Ni2   S    
C42   C82   S    
C15   H49   S    
C92   H33   S    
C70   C88   A    
C97   C100  S    
C49   H4    S    
C46   C76   A    
C5    C94   S    
C9    H43   S    
C67   N22   A    
C65   C86   A    
C45   N32   A    
C6    C19   A    
C35   C75   A    
C64   H19   S    
C20   H54   S    
C58   N13   A    
C17   C26   A    
C71   N26   A    
N8    Ni7   S    
C59   C83   A    
C13   H12   S    
N12   Ni2   S    
C10   C15   A    
C51   H6    S    
C96   H38   S    
C7    C23   A    
C9    C22   A    
C46   H45   S    
C91   C93   S    
C48   N3    A    
C66   N21   A    
N19   Ni3   S    
N28   Ni5   S    
C33   C36   A    
C26   C72   S    
C35   H34   S    
C2    C85   S    
C68   N30   A    
N14   Ni7   S    
C1    N1    A    
N3    Ni4   S    
N7    N29   A    
C62   H17   S    
C16   H50   S    
C4    C88   S    
C4    C96   S    
C55   H10   S    
N11   Ni1   S    
C52   H7    S    
N2    Ni1   S    
C49   C72   A    
C12   C17   A    
N6    Ni5   S    
C94   H36   S    
N9    Ni3   S    
C71   H26   S    
N5    Ni6   S    
C28   C78   S    
C56   H11   S    
C35   N27   A    
C60   N15   A    
C15   C23   A    
C65   N20   A    
C47   H2    S    
C63   C85   A    
C55   C82   A    
N15   Ni8   S    
C79   H67   S    
N29   Ni6   S    
C17   H51   S    
C34   C41   A    
N23   Ni3   S    
N7    Ni8   S    
C14   C30   A    
C18   H52   S    
N17   Ni6   S    
C69   N24   A    
C64   C86   A    
C57   H56   S    
C9    C26   A    
C31   C77   S    
C32   H58   S    
C20   C29   A    
C68   C78   A    
C66   C85   A    
C95   H37   S    
C1    C72   A    
N6    N30   A    
C22   C31   A    
C68   H66   S    
N10   N11   A    
C79   N31   A    
C86   C90   S    
C58   C81   A    
C63   H18   S    
C100  H29   S    
C14   H48   S    
C39   C43   A    
N27   Ni4   S    
C69   H24   S    
N21   Ni1   S    
C48   H3    S    
N2    N23   A    
C24   H23   S    
N16   Ni5   S    
C54   H9    S    
C25   C75   S    
N14   N17   A    
C32   C34   A    
C2    C89   S    
N15   N16   A    
C5    C87   S    
C57   C77   A    
C58   H13   S    
C4    C95   S    
C30   C76   S    
C11   C16   A    
C90   C92   S    
C50   H5    S    
C94   C100  S    
C63   N18   A    
C41   C81   S    
C61   H16   S    
C8    C21   A    
C21   H55   S    
C66   H21   S    
N18   Ni4   S    
C10   H44   S    
N8    N28   A    
C89   C92   S    
C94   C96   S    
C19   C28   A    
C52   N7    A    
C40   H65   S    
C3    C96   S    
C69   C88   A    
C62   N17   A    
C71   C87   A    
C70   H25   S    
N22   Ni8   S    
C98   H27   S    
C5    C97   S    
C2    C99   S    
C51   N6    A    
C4    C100  S    
C12   C31   A    
C36   H61   S    
C19   H53   S    
N4    Ni3   S    
C38   C43   A    
N3    N12   A    
C53   C76   A    
C23   C74   S    
C52   C77   A    
C67   H22   S    
C1    H1    S    
C7    H41   S    
C47   N2    A    
C12   H47   S    
N27   N32   A    
C16   C25   A    
N26   Ni5   S    
C38   H63   S    
C61   N16   A    
N25   Ni6   S    
C57   N29   A    
N30   Ni7   S    
C48   C73   A    
C2    C93   S    
C18   C27   A    
C47   C74   A    
C13   C73   A    
C55   N10   A    
C3    C5    S    
C61   C84   A    
C50   C80   A    
C49   N4    A    
C3    C95   S    
C95   C97   S    
C11   H46   S    
C56   C82   A    
C99   H28   S    
C91   H32   S    
C22   H57   S    
C13   N12   A    
C21   C30   A    
C93   H35   S    
C67   C87   A    
C89   H31   S    
C54   N9    A    
C44   C84   S    
C89   C98   S    
C45   C75   A    
C33   C41   A    
N24   N25   A    
N18   N21   A    
C51   C78   A    
N19   N20   A    
C37   C39   A    
C38   C40   A    
C60   C84   A    
C53   H8    S    
C24   C74   A    
C90   C91   S    
C29   C80   S    
C11   C28   A    
C37   C44   A    
C70   N25   A    
N9    N13   A    
N20   Ni2   S    
N31   Ni8   S    
N24   Ni7   S    
C65   H20   S    
C97   H39   S    
C24   N23   A    
C6    H40   S    
C45   H68   S    
C64   N19   A    
N22   N26   A    
N1    Ni1   S    
C79   C80   A    
C6    C25   A    
C10   C29   A    
C40   C44   A    
C53   N8    A    
N32   Ni2   S    
C7    C20   A    
C46   N28   A    
C8    C27   A    
C32   C42   A    
C60   H15   S    
C8    H42   S    
N1    N4    A    
C91   C99   S    
C39   H64   S    
C27   C73   S    
C93   C98   S    
C90   C98   S    
C54   C81   A    
C33   H59   S    
C92   C99   S    
C50   N5    A    
C37   H62   S    
C56   N11   A    
C34   H60   S    
