data_mof_unit_pretest_1193.cif
_audit_creation_date              2013-03-05T16:02:03-0500
_audit_creation_method            fapswitch 2.2
_symmetry_space_group_name_H-M    P1
_symmetry_Int_Tables_number       1
_space_group_crystal_system       triclinic
_cell_length_a                    6.930716
_cell_length_b                    17.558941
_cell_length_c                    19.588582
_cell_angle_alpha                 108.542799
_cell_angle_beta                  89.485605
_cell_angle_gamma                 90.947757
_cell_volume                      2259.77170271

loop_
_atom_site_label
_atom_site_type_symbol
_atom_site_description
_atom_site_fract_x
_atom_site_fract_y
_atom_site_fract_z
_atom_type_partial_charge
O1    O     O_R   0.494330 0.415720 0.413720 -0.595160
O2    O     O_R   0.819330 0.430070 0.560210 -0.606966
O3    O     O_R   0.994320 0.584280 0.586280 -0.585145
C1    C     C_R   0.649244 0.415843 0.582672 0.942767
O4    O     O_R   0.823730 0.406300 0.412670 -0.597908
O5    O     O_R   0.998760 0.560340 0.437690 -0.585018
C2    C     C_R   0.654656 0.384450 0.384363 0.935138
O6    O     O_R   0.489890 0.439660 0.562310 -0.597224
O7    O     O_3   0.662340 0.550560 0.508380 -0.240392
V1    V     V_3+5 0.935370 0.490620 0.498450 1.180207
O8    O     O_R   0.328750 0.569930 0.439790 -0.570368
C3    C     C_R   0.161504 0.586007 0.418954 0.999460
O9    O     O_R   0.324340 0.593700 0.587330 -0.603196
C4    C     C_R   0.156304 0.617138 0.614964 0.936795
V2    V     V_3+5 0.435940 0.509380 0.501550 1.196261
O10   O     O_3   0.159100 0.449440 0.491620 -0.282743
H1    H     H_    0.547134 0.850874 0.601035 0.171744
C5    C     C_R   0.974768 0.598771 0.743576 -0.366772
C6    C     C_R   0.882886 0.587287 0.803589 0.282155
C7    C     C_R   0.866728 0.652188 0.867207 0.272322
C8    C     C_R   0.942680 0.727101 0.870243 -0.321761
C9    C     C_R   0.035375 0.740122 0.810330 0.095979
C10   C     C_R   0.050656 0.674725 0.745210 0.107618
C11   C     C_R   0.119863 0.815966 0.815844 -0.269987
C12   C     C_R   0.224899 0.825677 0.756648 0.122422
C13   C     C_R   0.244656 0.759814 0.691935 0.059630
C14   C     C_R   0.149567 0.684986 0.684648 -0.269719
C15   C     C_R   0.310616 0.900836 0.760406 -0.166644
C16   C     C_R   0.426854 0.909217 0.705030 -0.169238
C17   C     C_R   0.454566 0.844184 0.643610 -0.001819
C18   C     C_R   0.360039 0.771223 0.635907 -0.107391
H2    H     H_    0.988035 0.546850 0.696122 0.182354
H3    H     H_    0.935402 0.773687 0.921772 0.170175
H4    H     H_    0.289759 0.954245 0.805967 0.125238
H5    H     H_    0.495294 0.966562 0.709779 0.131153
H6    H     H_    0.380514 0.724343 0.585586 0.187584
C19   C     C_R   0.016157 0.620002 0.316485 -0.209815
C20   C     C_R   0.157470 0.635793 0.369856 -0.325305
C21   C     C_R   0.289194 0.700082 0.377463 0.321905
C22   C     C_R   0.290392 0.743350 0.327122 0.001404
C23   C     C_R   0.139285 0.728869 0.275431 -0.066770
C24   C     C_R   0.998682 0.668034 0.271202 0.084881
C25   C     C_R   0.436117 0.801596 0.327100 0.213826
C26   C     C_R   0.415266 0.849847 0.283323 -0.163092
C27   C     C_R   0.261467 0.839725 0.235261 0.185704
C28   C     C_R   0.126465 0.776571 0.229118 0.010520
C29   C     C_R   0.978003 0.761934 0.177277 -0.030288
C30   C     C_R   0.833522 0.703064 0.175016 0.311439
C31   C     C_R   0.840762 0.657568 0.223198 0.110306
C32   C     C_R   0.244226 0.890387 0.191836 0.313316
C33   C     C_R   0.110337 0.869738 0.134504 -0.175138
C34   C     C_R   0.978575 0.806139 0.128154 -0.096189
H7    H     H_    0.917896 0.570059 0.311621 0.161273
H8    H     H_    0.526415 0.894134 0.285415 0.195729
H9    H     H_    0.875872 0.791938 0.084535 0.192598
C35   C     C_R   0.469019 0.185304 0.868533 -0.257504
C36   C     C_R   0.623902 0.134937 0.869597 -0.143522
C37   C     C_R   0.780876 0.130767 0.822419 -0.253295
C38   C     C_R   0.781650 0.175470 0.774050 0.152469
C39   C     C_R   0.626013 0.226481 0.774046 0.055582
C40   C     C_R   0.469882 0.231251 0.821707 0.145018
C41   C     C_R   0.934460 0.169738 0.725305 -0.215700
C42   C     C_R   0.933383 0.214118 0.677248 -0.192159
C43   C     C_R   0.780908 0.266048 0.677670 0.191022
C44   C     C_R   0.626625 0.272879 0.726512 0.007654
C45   C     C_R   0.474255 0.326448 0.728651 0.124274
C46   C     C_R   0.317075 0.327861 0.775462 -0.142309
C47   C     C_R   0.315542 0.281302 0.821364 -0.194206
C48   C     C_R   0.781513 0.311352 0.630235 -0.241635
C49   C     C_R   0.635935 0.367297 0.632974 -0.163140
C50   C     C_R   0.484150 0.377443 0.684736 0.230570
H10   H     H_    0.347477 0.189289 0.904707 0.144771
H11   H     H_    0.900081 0.091475 0.822210 0.135534
H12   H     H_    0.055030 0.130875 0.724305 0.142369
H13   H     H_    0.053492 0.208571 0.640259 0.135530
H14   H     H_    0.898812 0.304198 0.591789 0.134770
H15   H     H_    0.191315 0.363445 0.776417 0.201703
H16   H     H_    0.192462 0.284382 0.856640 0.155526
H17   H     H_    0.895164 0.142454 0.423111 0.169236
C51   C     C_R   0.495602 0.402987 0.253751 -0.248376
C52   C     C_R   0.418420 0.414171 0.192281 -0.138788
C53   C     C_R   0.412455 0.350993 0.127537 0.337012
C54   C     C_R   0.481431 0.275780 0.125032 -0.210186
C55   C     C_R   0.554492 0.261827 0.187261 0.072220
C56   C     C_R   0.563516 0.327107 0.252935 0.128336
C57   C     C_R   0.622331 0.184877 0.184291 -0.268798
C58   C     C_R   0.700832 0.173902 0.247436 0.088631
C59   C     C_R   0.709310 0.239235 0.312985 0.135672
C60   C     C_R   0.642655 0.316049 0.315750 -0.292935
C61   C     C_R   0.766982 0.097970 0.247331 -0.334856
C62   C     C_R   0.837038 0.085914 0.310087 0.423043
C63   C     C_R   0.843820 0.150433 0.373816 -0.231702
C64   C     C_R   0.779997 0.225563 0.375546 -0.224062
H18   H     H_    0.501998 0.454911 0.301636 0.140948
H19   H     H_    0.365420 0.472810 0.195181 0.141567
H20   H     H_    0.478400 0.228871 0.073470 0.126164
H21   H     H_    0.764214 0.047132 0.198683 0.169133
H22   H     H_    0.783698 0.272181 0.427219 0.134425
O11   O     O_R   0.775200 0.060470 0.937800 -0.597384
O12   O     O_R   0.441110 0.093720 0.087350 -0.597455
O13   O     O_R   0.266330 0.939630 0.062280 -0.574623
C65   C     C_R   0.610247 0.116135 0.115570 0.939032
O14   O     O_R   0.445750 0.069950 0.939820 -0.613787
O15   O     O_R   0.271000 0.915700 0.913700 -0.586676
C66   C     C_R   0.615356 0.085099 0.918287 0.941974
O16   O     O_R   0.770530 0.084400 0.086380 -0.593075
O17   O     O_3   0.602830 0.949510 0.991680 -0.251486
V3    V     V_3+5 0.329710 0.009370 0.001550 1.172690
O18   O     O_R   0.940990 0.906170 0.912570 -0.595919
C67   C     C_R   0.109608 0.883779 0.884750 0.937338
O19   O     O_R   0.936350 0.929940 0.060100 -0.595843
C68   C     C_R   0.103690 0.915525 0.082237 0.953260
V4    V     V_3+5 0.829160 0.990450 0.998310 1.187023
O20   O     O_3   0.105910 0.050480 0.008320 -0.281958
N1    N     N_R   0.386918 0.732863 0.444609 0.207999
O21   O     O_R   0.543555 0.700568 0.458266 -0.429185
O22   O     O_R   0.326757 0.800016 0.489626 -0.449507
C69   C     C_3   0.623606 0.811127 0.368222 -0.778653
H23   H     H_    0.601820 0.846600 0.425555 0.282757
H24   H     H_    0.684344 0.751650 0.363003 0.251613
H25   H     H_    0.735814 0.843251 0.346556 0.252275
C70   C     C_3   0.359403 0.968491 0.209549 -0.919942
H26   H     H_    0.286469 0.014376 0.191425 0.233962
H27   H     H_    0.373450 0.997098 0.268636 0.249004
H28   H     H_    0.504048 0.956257 0.184200 0.266598
N2    N     N_R   0.676930 0.690356 0.124813 0.250715
O23   O     O_R   0.565158 0.749413 0.125656 -0.403060
O24   O     O_R   0.635947 0.618462 0.082221 -0.300293
C71   C     C_3   0.674176 0.601661 0.226868 -0.913195
H29   H     H_    0.542005 0.611486 0.199674 0.275204
H30   H     H_    0.719179 0.538348 0.202682 0.257517
H31   H     H_    0.629174 0.612170 0.283607 0.227669
C72   C     C_3   0.345594 0.446804 0.697695 -0.838958
H32   H     H_    0.218262 0.427654 0.662010 0.241481
H33   H     H_    0.297982 0.470084 0.754602 0.270999
H34   H     H_    0.416921 0.499882 0.688794 0.233088
C73   C     C_3   0.334481 0.363064 0.060481 -0.929827
H35   H     H_    0.285836 0.425682 0.070609 0.270302
H36   H     H_    0.448351 0.350006 0.018240 0.259240
H37   H     H_    0.209768 0.321681 0.040418 0.238330
N3    N     N_R   0.807989 0.509268 0.799368 0.248311
O25   O     O_R   0.646468 0.501447 0.831018 -0.352709
O26   O     O_R   0.900625 0.445332 0.763046 -0.455060
N4    N     N_R   0.896499 0.007696 0.309480 0.220060
O27   O     O_R   0.993215 0.998720 0.362990 -0.421227
O28   O     O_R   0.845191 0.944249 0.257111 -0.479424
N5    N     N_R   0.784511 0.641942 0.930974 0.263757
O29   O     O_R   0.665339 0.694866 0.969975 -0.343498
O30   O     O_R   0.846858 0.585619 0.954794 -0.297313

loop_
_geom_bond_atom_site_label_1
_geom_bond_atom_site_label_2
_geom_bond_distance
_ccdc_geom_bond_type
C36   C66   1.485634 S    
C58   C59   1.424929 A    
N2    O23   1.300454 A    
C23   C24   1.417121 A    
C6    C7    1.400955 A    
C32   C70   1.518058 S    
C1    O6    1.297319 A    
C51   C56   1.415660 A    
C1    C49   1.495324 S    
C52   C53   1.394777 A    
C36   C37   1.408746 A    
C27   C28   1.415084 A    
O13   C68   1.297739 A    
C73   H36   1.110699 S    
C13   C14   1.426468 A    
C19   C20   1.397898 A    
C54   C55   1.416840 A    
C8    C9    1.412316 A    
C15   C16   1.388975 A    
N5    O30   1.301431 A    
C55   C57   1.421472 A    
C62   N4    1.436841 S    
C53   C73   1.501988 S    
N3    O26   1.298605 A    
O5    C3    1.300387 A    
C17   C18   1.394377 A    
C52   H19   1.083165 S    
C8    H3    1.079739 S    
V2    O10   2.153288 S    
C2    C60   1.492599 S    
C35   C36   1.406559 A    
C48   H14   1.084476 S    
C5    C6    1.400427 A    
V3    O20   1.707925 S    
C19   C24   1.412061 A    
C69   H23   1.107791 S    
O17   V4    1.703292 S    
N5    O29   1.300745 A    
V4    O20   2.153353 S    
O8    V2    2.001557 S    
O14   C66   1.297139 A    
C22   C25   1.425542 A    
O19   C68   1.298366 A    
N1    O22   1.300058 A    
C46   H15   1.077375 S    
C72   H34   1.109040 S    
C23   C28   1.421162 A    
C49   C50   1.427810 A    
O1    V2    2.009554 S    
C10   C14   1.423736 A    
C4    C14   1.500368 S    
O7    V1    2.157636 S    
C61   H21   1.078904 S    
C34   H9    1.080949 S    
O18   V4    2.011290 S    
C71   H31   1.109886 S    
C19   H7    1.081748 S    
C59   C60   1.417474 A    
O13   V3    2.001759 S    
C45   C46   1.413031 A    
C15   H4    1.080138 S    
C13   C18   1.415259 A    
C6    N3    1.434638 S    
O1    C2    1.294130 A    
O9    C4    1.296745 A    
C59   C64   1.414649 A    
C3    C20   1.491976 S    
H1    C17   1.082197 S    
C18   H6    1.074547 S    
C47   H16   1.084098 S    
O11   C66   1.299614 A    
C73   H37   1.110515 S    
O12   V3    2.004180 S    
O16   V4    2.015488 S    
C5    C10   1.416436 A    
C11   C67   1.491180 S    
C11   C12   1.417772 A    
N4    O28   1.298641 A    
C62   C63   1.394212 A    
O4    C2    1.299722 A    
C56   C60   1.421330 A    
C57   C58   1.424889 A    
N4    O27   1.301557 A    
C24   C31   1.420509 A    
C35   H10   1.084579 S    
C12   C13   1.425767 A    
C31   C71   1.519126 S    
C33   C34   1.405856 A    
C39   C40   1.408801 A    
C12   C15   1.418825 A    
C69   H25   1.111264 S    
O2    C1    1.302486 A    
C46   C47   1.394267 A    
C45   C50   1.425936 A    
O11   V4    2.001619 S    
C16   C17   1.384811 A    
C29   C30   1.417978 A    
C33   C68   1.490758 S    
O17   V3    2.157609 S    
C41   C42   1.400141 A    
O12   C65   1.301010 A    
C32   C33   1.415058 A    
C7    N5    1.429733 S    
O19   V4    2.001502 S    
C43   C48   1.402178 A    
C55   C56   1.426170 A    
H17   C63   1.082834 S    
O14   V3    2.003200 S    
O3    C4    1.301032 A    
C30   C31   1.418875 A    
C39   C44   1.418807 A    
C53   C54   1.397973 A    
O6    V2    2.001235 S    
C21   N1    1.428855 S    
O9    V2    2.011470 S    
C25   C26   1.393693 A    
C72   H32   1.110083 S    
C9    C11   1.418434 A    
C5    H2    1.079780 S    
C51   H18   1.080998 S    
O2    V1    2.003272 S    
O15   V3    2.005580 S    
C26   C27   1.399821 A    
C71   H29   1.106840 S    
C28   C29   1.414220 A    
C22   C23   1.425895 A    
C38   C41   1.402774 A    
N2    O24   1.301105 A    
C35   C40   1.400967 A    
C51   C52   1.392842 A    
C50   C72   1.519073 S    
O8    C3    1.297101 A    
C29   C34   1.415378 A    
C73   H35   1.110971 S    
C16   H5    1.083031 S    
C43   C44   1.409266 A    
C70   H28   1.108170 S    
C37   C38   1.409500 A    
O4    V1    2.004330 S    
O3    V1    2.005578 S    
V1    O10   1.707913 S    
N3    O25   1.301165 A    
O15   C67   1.294377 A    
C40   C47   1.397001 A    
C61   C62   1.404056 A    
C20   C21   1.411141 A    
C42   H13   1.083685 S    
C27   C32   1.419797 A    
C54   H20   1.081535 S    
C63   C64   1.388427 A    
C65   O16   1.295346 A    
O7    V2    1.705158 S    
C48   C49   1.408612 A    
C69   H24   1.106434 S    
O5    V1    2.001956 S    
C25   C69   1.513695 S    
C30   N2    1.437468 S    
C42   C43   1.405409 A    
C21   C22   1.423319 A    
C26   H8    1.077178 S    
C38   C39   1.413451 A    
C7    C8    1.392397 A    
C44   C45   1.417295 A    
C58   C61   1.416439 A    
C72   H33   1.107533 S    
C9    C10   1.423711 A    
C41   H12   1.083704 S    
C70   H26   1.108749 S    
O18   C67   1.297986 A    
C70   H27   1.109990 S    
C64   H22   1.080758 S    
N1    O21   1.301440 A    
C37   H11   1.084243 S    
C71   H30   1.109718 S    
C57   C65   1.497097 S    
