data_mof_unit_pretest_1707.cif
_audit_creation_date              2012-12-10T18:32:07-0500
_audit_creation_method            fapswitch 2.2
_symmetry_space_group_name_H-M    P1
_symmetry_Int_Tables_number       1
_space_group_crystal_system       triclinic
_cell_length_a                    18.265833
_cell_length_b                    18.270426
_cell_length_c                    51.323202
_cell_angle_alpha                 90.074707
_cell_angle_beta                  90.011225
_cell_angle_gamma                 90.105658
_cell_volume                      17127.7684809

loop_
_atom_site_label
_atom_site_type_symbol
_atom_type_description
_atom_site_fract_x
_atom_site_fract_y
_atom_site_fract_z
_atom_type_partial_charge
Br1   Br    Br    0.832915 0.701287 0.807291 -0.473459
Br2   Br    Br    0.189963 0.702214 0.692454 -0.427448
Br3   Br    Br    0.576842 0.694192 0.243858 -0.480942
Br4   Br    Br    0.694393 0.423092 0.755941 -0.482427
Br5   Br    Br    0.573846 0.303221 0.761243 -0.484959
Br6   Br    Br    0.696584 0.573864 0.238541 -0.480284
Br7   Br    Br    0.333285 0.798582 0.692727 -0.458996
Br8   Br    Br    0.190272 0.297955 0.307529 -0.452466
Br9   Br    Br    0.640788 0.180304 0.531379 -0.239123
Br10  Br    Br    0.181463 0.640959 0.468892 -0.239710
Br11  Br    Br    0.357952 0.820667 0.531027 -0.227393
Br12  Br    Br    0.701095 0.166549 0.192715 -0.445544
Br13  Br    Br    0.821650 0.358253 0.468727 -0.240887
Br14  Br    Br    0.640849 0.180512 0.468989 -0.239589
Br15  Br    Br    0.821852 0.358021 0.531125 -0.240469
Br16  Br    Br    0.358009 0.820837 0.468631 -0.240882
Br17  Br    Br    0.181609 0.640742 0.531282 -0.226559
Br18  Br    Br    0.138613 0.682361 0.031279 -0.224294
Br19  Br    Br    0.682882 0.139125 0.968965 -0.229291
Br20  Br    Br    0.860040 0.319445 0.031134 -0.226213
Br21  Br    Br    0.320075 0.860294 0.968654 -0.238668
Br22  Br    Br    0.138588 0.682350 0.968885 -0.237374
Br23  Br    Br    0.073847 0.196579 0.738663 -0.484673
Br24  Br    Br    0.320157 0.859951 0.031054 -0.226243
Br25  Br    Br    0.859986 0.319409 0.968732 -0.229938
Br26  Br    Br    0.682907 0.138792 0.031358 -0.224136
Br27  Br    Br    0.310143 0.797126 0.192456 -0.432110
Br28  Br    Br    0.166685 0.700951 0.192719 -0.450682
Br29  Br    Br    0.194177 0.076861 0.743917 -0.482155
Br30  Br    Br    0.797225 0.310021 0.192456 -0.431320
Br31  Br    Br    0.689855 0.797539 0.807533 -0.443105
Br32  Br    Br    0.333352 0.201705 0.307241 -0.475912
C1    C     C_R   0.000123 0.499956 0.679530 0.815264
C2    C     C_R   0.111291 0.577546 0.486329 0.257826
C3    C     C_3   0.732807 0.328912 0.769795 0.122750
C4    C     C_3   0.672822 0.265473 0.770628 0.121135
C5    C     C_3   0.734641 0.672909 0.229297 0.124405
C6    C     C_3   0.318841 0.743960 0.725678 0.095881
C7    C     C_3   0.252048 0.313176 0.276290 0.141061
C8    C     C_3   0.801951 0.742870 0.724611 -0.411309
C9    C     C_3   0.742902 0.198177 0.275410 -0.412224
C10   C     C_3   0.271338 0.331558 0.741934 -0.380693
C11   C     C_3   0.250839 0.808205 0.273893 -0.389315
C12   C     C_3   0.198117 0.742938 0.275417 -0.411483
C13   C     C_R   0.421493 0.890754 0.513611 0.258307
C14   C     C_3   0.329845 0.271398 0.739604 -0.407986
C15   C     C_3   0.808171 0.250906 0.273882 -0.389138
C16   C     C_3   0.749304 0.808093 0.726122 -0.394166
C17   C     C_3   0.301747 0.242666 0.224554 -0.411522
C18   C     C_3   0.249151 0.692018 0.773913 -0.392665
C19   C     C_3   0.771455 0.829789 0.239600 -0.414269
C20   C     C_3   0.829721 0.228803 0.760469 -0.408899
C21   C     C_3   0.771147 0.168559 0.758125 -0.381242
C22   C     C_3   0.831620 0.771310 0.241962 -0.402528
C23   C     C_3   0.301841 0.757328 0.775425 -0.408490
C24   C     C_R   0.891733 0.421732 0.486246 0.258992
C25   C     C_3   0.249111 0.307908 0.226054 -0.390528
C26   C     C_3   0.725671 0.666767 0.754493 -0.344214
C27   C     C_3   0.666796 0.274141 0.245490 -0.365418
C28   C     C_3   0.204723 0.263819 0.776827 -0.400599
C29   C     C_3   0.333635 0.725730 0.248715 -0.396471
C30   C     C_3   0.274187 0.666808 0.245478 -0.350339
C31   C     C_3   0.268244 0.208228 0.776885 -0.395641
C32   C     C_3   0.725706 0.333602 0.248725 -0.386628
C33   C     C_3   0.666330 0.725635 0.751264 -0.408545
C34   C     C_3   0.225692 0.166803 0.254578 -0.357509
C35   C     C_R   0.577404 0.110315 0.486394 0.258937
C36   C     C_3   0.166382 0.774240 0.748685 -0.409258
C37   C     C_3   0.708075 0.768274 0.276864 -0.395042
C38   C     C_3   0.768357 0.291704 0.723102 -0.392160
C39   C     C_3   0.704729 0.236070 0.723159 -0.397625
C40   C     C_3   0.763634 0.704734 0.276807 -0.402312
C41   C     C_3   0.225799 0.833163 0.745441 -0.344942
C42   C     C_3   0.166330 0.225646 0.251350 -0.390207
C43   C     C_3   0.803070 0.701018 0.751088 0.050621
C44   C     C_3   0.701020 0.196874 0.248922 0.052819
C45   C     C_3   0.195876 0.297842 0.749301 0.053056
C46   C     C_R   0.891800 0.421650 0.513674 0.258855
C47   C     C_3   0.298475 0.803465 0.248769 0.053642
C48   C     C_3   0.196889 0.701010 0.248923 0.040453
C49   C     C_3   0.298478 0.196611 0.748775 0.060752
C50   C     C_3   0.803470 0.298481 0.248764 0.051933
C51   C     C_3   0.701577 0.803478 0.751223 0.062036
C52   C     C_3   0.303067 0.201017 0.251071 0.046317
C53   C     C_3   0.201553 0.696494 0.748778 0.059834
C54   C     C_3   0.696599 0.798465 0.248756 0.072212
C55   C     C_3   0.798472 0.303448 0.751229 0.059342
C56   C     C_3   0.695806 0.202173 0.750701 0.051508
C57   C     C_R   0.421513 0.890838 0.486181 0.257888
C58   C     C_3   0.797842 0.695879 0.249295 0.075135
C59   C     C_3   0.303090 0.799015 0.748915 0.048552
C60   C     C_3   0.201578 0.303483 0.251208 0.049840
C61   C     C_R   0.468722 0.942833 0.555066 0.565373
C62   C     C_R   0.943839 0.469112 0.444873 0.564025
C63   C     C_R   0.530206 0.057793 0.555178 0.567046
C64   C     C_R   0.058788 0.530660 0.444884 0.567838
C65   C     C_R   0.468790 0.943178 0.444829 0.563913
C66   C     C_R   0.059053 0.530288 0.555144 0.567978
C67   C     C_R   0.530377 0.058087 0.444929 0.568170
C68   C     C_R   0.111363 0.577446 0.513760 0.258604
C69   C     C_R   0.944050 0.468846 0.555100 0.563963
C70   C     C_R   0.969490 0.442907 0.055093 0.565639
C71   C     C_R   0.443508 0.969859 0.944853 0.564376
C72   C     C_R   0.029537 0.558621 0.055150 0.568772
C73   C     C_R   0.559130 0.030132 0.944906 0.568801
C74   C     C_R   0.969375 0.442879 0.944860 0.565479
C75   C     C_R   0.559172 0.029569 0.055164 0.569175
C76   C     C_R   0.029554 0.558529 0.944898 0.568278
C77   C     C_R   0.443491 0.969415 0.055082 0.565705
C78   C     C_R   0.536066 0.057059 0.527700 -0.128888
C79   C     C_R   0.076004 0.611488 0.013763 0.258843
C80   C     C_R   0.058074 0.536363 0.472373 -0.128776
C81   C     C_R   0.462824 0.943803 0.527590 -0.129915
C82   C     C_R   0.944795 0.463121 0.472342 -0.127546
C83   C     C_R   0.536147 0.057210 0.472411 -0.129629
C84   C     C_R   0.944917 0.462966 0.527622 -0.127456
C85   C     C_R   0.462866 0.943973 0.472305 -0.126847
C86   C     C_R   0.058213 0.536169 0.527667 -0.130915
C87   C     C_R   0.035371 0.557865 0.027669 -0.130932
C88   C     C_R   0.558407 0.035818 0.972395 -0.130172
C89   C     C_R   0.963507 0.443737 0.027619 -0.128889
C90   C     C_R   0.612029 0.076412 0.986372 0.257711
C91   C     C_R   0.444340 0.963816 0.972321 -0.126858
C92   C     C_R   0.035370 0.557825 0.972379 -0.128722
C93   C     C_R   0.444351 0.963565 0.027603 -0.129238
C94   C     C_R   0.963453 0.443721 0.972336 -0.128787
C95   C     C_R   0.558437 0.035522 0.027688 -0.130804
C96   C     C_R   0.499456 0.000476 0.513807 -0.085550
C97   C     C_R   0.001477 0.499691 0.486194 -0.086077
C98   C     C_R   0.499486 0.000556 0.486195 -0.085995
C99   C     C_R   0.001542 0.499604 0.513807 -0.085663
C100  C     C_R   0.999425 0.500801 0.013807 -0.084682
C101  C     C_R   0.922765 0.390170 0.013672 0.257909
C102  C     C_R   0.501387 0.999742 0.986195 -0.085148
C103  C     C_R   0.999412 0.500787 0.986194 -0.085086
C104  C     C_R   0.501397 0.999605 0.013808 -0.084697
C105  C     C_2   0.893577 0.792380 0.770130 0.339171
C106  C     C_2   0.792248 0.106482 0.229934 0.339195
C107  C     C_2   0.162136 0.265710 0.701758 0.362824
C108  C     C_2   0.221010 0.890722 0.219148 0.447627
C109  C     C_2   0.106477 0.792140 0.229954 0.339123
C110  C     C_2   0.255950 0.149685 0.702433 0.519263
C111  C     C_2   0.890833 0.221002 0.219119 0.447724
C112  C     C_R   0.499995 0.000077 0.320473 0.808072
C113  C     C_R   0.390803 0.922983 0.986204 0.258130
C114  C     C_2   0.779272 0.890974 0.780851 0.461623
C115  C     C_2   0.393722 0.292523 0.269937 0.338643
C116  C     C_2   0.279109 0.608972 0.719212 0.460876
C117  C     C_2   0.649849 0.755906 0.202400 0.522649
C118  C     C_2   0.755862 0.350604 0.797531 0.523637
C119  C     C_2   0.661957 0.234412 0.798227 0.369441
C120  C     C_2   0.765995 0.662185 0.201723 0.364209
C121  C     C_2   0.393561 0.707753 0.729992 0.339361
C122  C     C_2   0.279510 0.391183 0.280681 0.449815
C123  C     C_R   0.076005 0.611469 0.986332 0.258099
C124  C     C_R   0.390815 0.922853 0.013633 0.258663
C125  C     C_R   0.922734 0.390164 0.986243 0.257693
C126  C     C_R   0.612047 0.076260 0.013804 0.258108
C127  C     C_R   0.065977 0.497863 0.890259 -0.082782
C128  C     C_R   0.503310 0.933369 0.109801 -0.075205
C129  C     C_R   0.933417 0.503088 0.890172 -0.077915
C130  C     C_R   0.498663 0.065920 0.109783 -0.078784
C131  C     C_R   0.933437 0.502827 0.109822 -0.073170
C132  C     C_R   0.000087 0.500033 0.320471 0.806163
C133  C     C_R   0.503843 0.933844 0.890180 -0.077361
C134  C     C_R   0.066028 0.498387 0.109759 -0.079139
C135  C     C_R   0.498491 0.066365 0.890250 -0.081369
C136  C     C_R   0.566026 0.997075 0.390253 -0.086085
C137  C     C_R   0.004493 0.433486 0.609792 -0.077787
C138  C     C_R   0.433558 0.004173 0.390184 -0.079402
C139  C     C_R   0.998092 0.565959 0.609783 -0.081613
C140  C     C_R   0.433417 0.003289 0.609822 -0.078824
C141  C     C_R   0.004526 0.433798 0.390173 -0.079547
C142  C     C_R   0.565918 0.996792 0.609751 -0.082782
C143  C     C_R   0.499976 0.999982 0.679528 0.819089
C144  C     C_R   0.997504 0.566237 0.390262 -0.086079
C145  C     C_R   0.066178 0.497763 0.863084 -0.198793
C146  C     C_R   0.502888 0.933411 0.136975 -0.151285
C147  C     C_R   0.933471 0.502842 0.862998 -0.146491
C148  C     C_R   0.498397 0.066108 0.136956 -0.169655
C149  C     C_R   0.933473 0.502562 0.136995 -0.162232
C150  C     C_R   0.503431 0.933768 0.863008 -0.171904
C151  C     C_R   0.066211 0.498280 0.136934 -0.169136
C152  C     C_R   0.498227 0.066437 0.863073 -0.186324
C153  C     C_R   0.566197 0.996991 0.363077 -0.198585
C154  C     C_R   0.500080 0.999950 0.179531 0.833244
C155  C     C_R   0.004011 0.433503 0.636966 -0.185069
C156  C     C_R   0.433581 0.003945 0.363010 -0.169656
C157  C     C_R   0.997763 0.566125 0.636957 -0.172778
C158  C     C_R   0.433469 0.003153 0.636996 -0.146417
C159  C     C_R   0.004117 0.433750 0.363000 -0.174052
C160  C     C_R   0.566119 0.996806 0.636925 -0.199155
C161  C     C_R   0.997240 0.566338 0.363085 -0.198048
C162  C     C_R   0.999892 0.500200 0.849191 -0.024204
C163  C     C_R   0.500423 0.999821 0.150815 -0.031768
C164  C     C_R   0.999898 0.500286 0.150813 -0.027668
C165  C     C_R   0.999988 0.500035 0.820472 0.819417
C166  C     C_R   0.500564 0.000094 0.849190 -0.025166
C167  C     C_R   0.499936 0.000329 0.349193 -0.022271
C168  C     C_R   0.000596 0.499858 0.650811 -0.024535
C169  C     C_R   0.499864 0.999971 0.650810 -0.023797
C170  C     C_R   0.000452 0.500055 0.349192 -0.023888
C171  C     C_R   0.999633 0.500554 0.903926 0.276720
C172  C     C_R   0.501134 0.999588 0.096080 0.271297
C173  C     C_R   0.999676 0.500674 0.096078 0.271651
C174  C     C_R   0.501273 0.000098 0.903926 0.277316
C175  C     C_R   0.499740 0.000661 0.403928 0.279967
C176  C     C_R   0.500121 0.000040 0.820471 0.815573
C177  C     C_R   0.001442 0.499675 0.596077 0.277146
C178  C     C_R   0.499607 0.000092 0.596076 0.276763
C179  C     C_R   0.001146 0.499999 0.403927 0.280064
C180  C     C_R   0.858513 0.358870 0.750308 0.839818
C181  C     C_R   0.358757 0.141350 0.249984 0.804304
C182  C     C_R   0.141677 0.640907 0.749864 0.845632
C183  C     C_R   0.641155 0.858485 0.249684 0.830365
C184  C     C_R   0.141693 0.359063 0.250131 0.858514
C185  C     C_R   0.640369 0.142199 0.749915 0.827394
C186  C     C_R   0.857795 0.640422 0.250083 0.800505
C187  C     C_R   0.999983 0.500061 0.179529 0.822464
C188  C     C_R   0.358783 0.858673 0.750011 0.789646
C189  C     C_R   0.358338 0.859058 0.249858 0.846568
C190  C     C_R   0.858770 0.641362 0.749993 0.789909
C191  C     C_R   0.641360 0.141186 0.250016 0.792257
C192  C     C_R   0.140414 0.357791 0.750081 0.826989
C193  C     C_R   0.641696 0.859065 0.750136 0.845448
C194  C     C_R   0.141206 0.641361 0.250017 0.808658
C195  C     C_R   0.358491 0.141161 0.749693 0.840435
C196  C     C_R   0.859067 0.358350 0.249855 0.847409
C197  C     C_3   0.818762 0.756037 0.774362 0.098058
C198  C     C_R   0.577363 0.110239 0.513824 0.259133
C199  C     C_3   0.755923 0.181136 0.225653 0.099561
C200  C     C_3   0.172898 0.234548 0.729340 0.124938
C201  C     C_3   0.248219 0.812801 0.223636 0.141117
C202  C     C_3   0.181174 0.755843 0.225663 0.096856
C203  C     C_3   0.232811 0.171185 0.730162 0.125940
C204  C     C_3   0.812873 0.248183 0.223624 0.138942
C205  C     C_3   0.751854 0.812992 0.776363 0.138154
C206  C     C_3   0.318940 0.256210 0.274276 0.100224
C207  C     C_3   0.251844 0.686926 0.723661 0.136629
C208  C     C_3   0.671244 0.732801 0.230124 0.122434
H1    H     H_    0.857086 0.762509 0.718726 0.245559
H2    H     H_    0.280819 0.640237 0.774463 0.265651
H3    H     H_    0.190961 0.902635 0.201401 0.117574
H4    H     H_    0.058660 0.772212 0.219545 0.114971
H5    H     H_    0.217149 0.120475 0.690195 0.092437
H6    H     H_    0.902791 0.190934 0.201365 0.117545
H7    H     H_    0.809439 0.903026 0.798582 0.119946
H8    H     H_    0.441494 0.272831 0.280367 0.108192
H9    H     H_    0.309224 0.596903 0.701486 0.120557
H10   H     H_    0.620739 0.717077 0.190140 0.095879
H11   H     H_    0.717114 0.379936 0.809705 0.093799
H12   H     H_    0.609042 0.238587 0.807738 0.134570
H13   H     H_    0.769050 0.849896 0.219269 0.247092
H14   H     H_    0.762050 0.609239 0.192193 0.142282
H15   H     H_    0.441351 0.727570 0.719567 0.107511
H16   H     H_    0.309739 0.403375 0.298386 0.115849
H17   H     H_    0.849830 0.231453 0.780809 0.251893
H18   H     H_    0.768303 0.135895 0.776298 0.238743
H19   H     H_    0.864481 0.768561 0.223818 0.224997
H20   H     H_    0.356915 0.737815 0.781361 0.246332
H21   H     H_    0.280851 0.359754 0.225457 0.267931
H22   H     H_    0.716533 0.622742 0.739815 0.190165
H23   H     H_    0.622780 0.283237 0.260148 0.175421
H24   H     H_    0.216423 0.307304 0.791470 0.190686
H25   H     H_    0.762498 0.143132 0.281311 0.243717
H26   H     H_    0.363237 0.716658 0.267406 0.188439
H27   H     H_    0.283264 0.622844 0.260132 0.198291
H28   H     H_    0.312661 0.229322 0.789742 0.198315
H29   H     H_    0.716584 0.363234 0.267421 0.185816
H30   H     H_    0.636702 0.716400 0.732573 0.176938
H31   H     H_    0.216445 0.122671 0.239949 0.196839
H32   H     H_    0.136749 0.783494 0.767364 0.178248
H33   H     H_    0.729149 0.812686 0.289732 0.195522
H34   H     H_    0.812768 0.270589 0.710287 0.200459
H35   H     H_    0.716351 0.192555 0.708536 0.193191
H36   H     H_    0.268622 0.364264 0.723770 0.238428
H37   H     H_    0.807038 0.716391 0.291476 0.189282
H38   H     H_    0.216698 0.877264 0.760080 0.190945
H39   H     H_    0.136565 0.216280 0.232695 0.191548
H40   H     H_    0.720249 0.641021 0.774014 0.258026
H41   H     H_    0.641067 0.279404 0.225950 0.255156
H42   H     H_    0.153379 0.236548 0.783185 0.230182
H43   H     H_    0.375097 0.719143 0.233050 0.255727
H44   H     H_    0.279503 0.641039 0.225936 0.255703
H45   H     H_    0.249713 0.155911 0.785716 0.214537
H46   H     H_    0.719134 0.375015 0.233066 0.256715
H47   H     H_    0.219190 0.860003 0.274419 0.267080
H48   H     H_    0.624859 0.719082 0.766927 0.246308
H49   H     H_    0.220414 0.141219 0.274131 0.255108
H50   H     H_    0.124952 0.780665 0.733003 0.246123
H51   H     H_    0.655694 0.749801 0.285684 0.213146
H52   H     H_    0.749993 0.343961 0.714230 0.215491
H53   H     H_    0.653458 0.263261 0.716776 0.230973
H54   H     H_    0.736272 0.653417 0.283125 0.225372
H55   H     H_    0.220488 0.858761 0.725893 0.258038
H56   H     H_    0.124972 0.219205 0.267057 0.250931
H57   H     H_    0.783676 0.705090 0.708838 0.182945
H58   H     H_    0.143039 0.762522 0.281328 0.243503
H59   H     H_    0.705180 0.216458 0.291169 0.185429
H60   H     H_    0.288624 0.370924 0.757353 0.215525
H61   H     H_    0.286303 0.808018 0.291548 0.180676
H62   H     H_    0.216381 0.705263 0.291169 0.187944
H63   H     H_    0.377862 0.286950 0.751796 0.218271
H64   H     H_    0.807937 0.286398 0.291541 0.180529
H65   H     H_    0.713876 0.807727 0.708459 0.177303
H66   H     H_    0.283350 0.204767 0.208836 0.185103
H67   H     H_    0.213663 0.692366 0.791557 0.180542
H68   H     H_    0.786946 0.877859 0.251781 0.198306
H69   H     H_    0.350059 0.268886 0.719279 0.251423
H70   H     H_    0.877772 0.213288 0.748322 0.218631
H71   H     H_    0.788417 0.129193 0.742726 0.216100
H72   H     H_    0.870866 0.788623 0.257410 0.203990
H73   H     H_    0.283549 0.795148 0.791160 0.185814
H74   H     H_    0.213542 0.307414 0.208428 0.179597
H75   H     H_    0.117384 0.495645 0.900739 0.158173
H76   H     H_    0.505479 0.881869 0.099365 0.164311
H77   H     H_    0.881911 0.505428 0.900581 0.163442
H78   H     H_    0.496728 0.117332 0.099334 0.161967
H79   H     H_    0.881922 0.504864 0.099405 0.163685
H80   H     H_    0.859992 0.219283 0.274396 0.267376
H81   H     H_    0.506284 0.882401 0.900597 0.162774
H82   H     H_    0.117459 0.496482 0.099291 0.162045
H83   H     H_    0.496275 0.117805 0.900722 0.158344
H84   H     H_    0.617405 0.994116 0.400726 0.157249
H85   H     H_    0.007365 0.382028 0.599352 0.159498
H86   H     H_    0.382104 0.007235 0.400602 0.162099
H87   H     H_    0.995488 0.617345 0.599337 0.160930
H88   H     H_    0.381937 0.006098 0.599407 0.162895
H89   H     H_    0.007621 0.382380 0.400582 0.162259
H90   H     H_    0.617303 0.994051 0.599279 0.158018
H91   H     H_    0.781045 0.859946 0.725607 0.265385
H92   H     H_    0.994635 0.617630 0.400743 0.157274
H93   H     H_    0.118175 0.495610 0.852983 0.175068
H94   H     H_    0.504618 0.881500 0.147117 0.193029
H95   H     H_    0.881557 0.504879 0.852831 0.192185
H96   H     H_    0.496461 0.118106 0.147082 0.186483
H97   H     H_    0.881539 0.504259 0.147152 0.186408
H98   H     H_    0.505487 0.881822 0.852851 0.188681
H99   H     H_    0.118218 0.496484 0.147044 0.186168
H100  H     H_    0.495990 0.118374 0.852962 0.173717
H101  H     H_    0.618146 0.994091 0.352969 0.174239
H102  H     H_    0.356838 0.262255 0.218596 0.245898
H103  H     H_    0.006447 0.381616 0.647104 0.174695
H104  H     H_    0.381697 0.006767 0.352851 0.187978
H105  H     H_    0.995099 0.618084 0.647087 0.185491
H106  H     H_    0.381579 0.005729 0.647158 0.191427
H107  H     H_    0.006846 0.381849 0.352835 0.188616
H108  H     H_    0.618095 0.994200 0.647032 0.174939
H109  H     H_    0.994310 0.618249 0.352984 0.174084
H110  H     H_    0.941269 0.772603 0.780586 0.108734
H111  H     H_    0.772337 0.058641 0.219529 0.118143
H112  H     H_    0.109197 0.261596 0.692242 0.133899
N1    N     N_R   0.499496 0.000247 0.568051 -0.366115
N2    N     N_R   0.001262 0.499937 0.431952 -0.365844
N3    N     N_R   0.499628 0.000648 0.431952 -0.365828
N4    N     N_R   0.001540 0.499573 0.568051 -0.366260
N5    N     N_R   0.999558 0.500742 0.068052 -0.366406
N6    N     N_R   0.501304 0.000054 0.931951 -0.366180
N7    N     N_R   0.999506 0.500664 0.931951 -0.366030
N8    N     N_R   0.501293 0.999484 0.068053 -0.366253
O1    O     O_3   0.000000 0.500000 0.750000 -0.504027
O2    O     O_R   0.438690 0.000330 0.691960 -0.610271
O3    O     O_R   0.999670 0.438690 0.308040 -0.631197
O4    O     O_R   0.561310 0.999670 0.691960 -0.655060
O5    O     O_R   0.499670 0.061310 0.191960 -0.630347
O6    O     O_R   0.061310 0.500330 0.808040 -0.655056
O7    O     O_R   0.500330 0.938690 0.191960 -0.615370
O8    O     O_R   0.938690 0.499670 0.808040 -0.610243
O9    O     O_R   0.500330 0.061310 0.808040 -0.647185
O10   O     O_R   0.938690 0.500330 0.191960 -0.631463
O11   O     O_R   0.499670 0.938690 0.808040 -0.627220
O12   O     O_3   0.500000 0.000000 0.250000 -0.505132
O13   O     O_R   0.061310 0.499670 0.191960 -0.632273
O14   O     O_R   0.913470 0.352550 0.734780 -0.642910
O15   O     O_R   0.352550 0.086530 0.265220 -0.589600
O16   O     O_R   0.086530 0.647450 0.734780 -0.620470
O17   O     O_R   0.647450 0.913470 0.265220 -0.657129
O18   O     O_R   0.086530 0.352550 0.265220 -0.604430
O19   O     O_R   0.647450 0.086530 0.734780 -0.629935
O20   O     O_R   0.913470 0.647450 0.265220 -0.650722
O21   O     O_R   0.352550 0.913470 0.734780 -0.597984
O22   O     O_R   0.413470 0.852550 0.234780 -0.612720
O23   O     O_3   0.000000 0.500000 0.250000 -0.505597
O24   O     O_R   0.852550 0.586530 0.765220 -0.597507
O25   O     O_R   0.586530 0.147450 0.234780 -0.606337
O26   O     O_R   0.147450 0.413470 0.765220 -0.630506
O27   O     O_R   0.586530 0.852550 0.765220 -0.620001
O28   O     O_R   0.147450 0.586530 0.234780 -0.590043
O29   O     O_R   0.413470 0.147450 0.765220 -0.643700
O30   O     O_R   0.852550 0.413470 0.234780 -0.609520
O31   O     O_R   0.147200 0.586220 0.765220 -0.615516
O32   O     O_R   0.586220 0.852800 0.234780 -0.595337
O33   O     O_R   0.852800 0.413780 0.765220 -0.598422
O34   O     O_3   0.500000 0.000000 0.750000 -0.504043
O35   O     O_R   0.413780 0.147200 0.234780 -0.654736
O36   O     O_R   0.852800 0.586220 0.234780 -0.626143
O37   O     O_R   0.413780 0.852800 0.765220 -0.654236
O38   O     O_R   0.147200 0.413780 0.234780 -0.617957
O39   O     O_R   0.586220 0.147200 0.765220 -0.626764
O40   O     O_R   0.647200 0.086220 0.265220 -0.650974
O41   O     O_R   0.086220 0.352800 0.734780 -0.626571
O42   O     O_R   0.352800 0.913780 0.265220 -0.617560
O43   O     O_R   0.913780 0.647200 0.734780 -0.654946
O44   O     O_R   0.352800 0.086220 0.734780 -0.597844
O45   O     O_R   0.999670 0.561310 0.691960 -0.627290
O46   O     O_R   0.913780 0.352800 0.265220 -0.617460
O47   O     O_R   0.647200 0.913780 0.734780 -0.616429
O48   O     O_R   0.086220 0.647200 0.265220 -0.653622
O49   O     O_2   0.445868 0.884660 0.568971 -0.473559
O50   O     O_2   0.885669 0.446283 0.430912 -0.484221
O51   O     O_2   0.553060 0.115853 0.569199 -0.478387
O52   O     O_2   0.116804 0.553679 0.430912 -0.478679
O53   O     O_2   0.445890 0.885122 0.430816 -0.484403
O54   O     O_2   0.117166 0.553144 0.569128 -0.469848
O55   O     O_2   0.553362 0.116175 0.431008 -0.477789
O56   O     O_R   0.561310 0.000330 0.308040 -0.648156
O57   O     O_2   0.885885 0.446038 0.569039 -0.483738
O58   O     O_2   0.947429 0.384469 0.069018 -0.474816
O59   O     O_2   0.385113 0.947706 0.930874 -0.483512
O60   O     O_2   0.051683 0.617010 0.069141 -0.468555
O61   O     O_2   0.617435 0.052518 0.930956 -0.471293
O62   O     O_2   0.947187 0.384482 0.930882 -0.475572
O63   O     O_2   0.617529 0.051722 0.069162 -0.467793
O64   O     O_2   0.051798 0.616848 0.930947 -0.477584
O65   O     O_2   0.385046 0.947240 0.069001 -0.475105
O66   O     O_2   0.902614 0.841423 0.754299 -0.553219
O67   O     O_R   0.000330 0.438690 0.691960 -0.647104
O68   O     O_2   0.841409 0.097738 0.245754 -0.559327
O69   O     O_2   0.211999 0.294824 0.689765 -0.560820
O70   O     O_2   0.230951 0.940153 0.234778 -0.575093
O71   O     O_2   0.097669 0.841304 0.245787 -0.558891
O72   O     O_2   0.315635 0.165426 0.693286 -0.560870
O73   O     O_2   0.940245 0.230984 0.234743 -0.574461
O74   O     O_2   0.769336 0.940316 0.765245 -0.568463
O75   O     O_2   0.402638 0.341439 0.254047 -0.551200
O76   O     O_2   0.269127 0.559681 0.734848 -0.568757
O77   O     O_2   0.665561 0.815597 0.193279 -0.560128
O78   O     O_R   0.438690 0.999670 0.308040 -0.629661
O79   O     O_2   0.815406 0.334858 0.806753 -0.554550
O80   O     O_2   0.711717 0.205350 0.810241 -0.553240
O81   O     O_2   0.795104 0.712078 0.189756 -0.562999
O82   O     O_2   0.402412 0.658790 0.745856 -0.553168
O83   O     O_2   0.269564 0.440387 0.265020 -0.572781
O84   O     O_R   0.000330 0.561310 0.308040 -0.646910
Zn1   Zn    Zn3+2 0.912170 0.500020 0.771750 1.050031
Zn2   Zn    Zn3+2 0.000020 0.587830 0.728250 1.012868
Zn3   Zn    Zn3+2 0.587830 0.999980 0.271750 0.979776
Zn4   Zn    Zn3+2 0.999980 0.412170 0.728250 1.011090
Zn5   Zn    Zn3+2 0.587830 0.000020 0.728250 1.016670
Zn6   Zn    Zn3+2 0.999980 0.587830 0.271750 0.982896
Zn7   Zn    Zn3+2 0.412170 0.999980 0.728250 1.050207
Zn8   Zn    Zn3+2 0.000020 0.412170 0.271750 1.040877
Zn9   Zn    Zn3+2 0.500020 0.087830 0.228250 1.018639
Zn10  Zn    Zn3+2 0.087830 0.499980 0.771750 1.016914
Zn11  Zn    Zn3+2 0.499980 0.912170 0.228250 1.056051
Zn12  Zn    Zn3+2 0.087830 0.500020 0.228250 1.046904
Zn13  Zn    Zn3+2 0.499980 0.087830 0.771750 1.010558
Zn14  Zn    Zn3+2 0.912170 0.499980 0.228250 1.029542
Zn15  Zn    Zn3+2 0.500020 0.912170 0.771750 1.013498
Zn16  Zn    Zn3+2 0.412170 0.000020 0.271750 1.036449

loop_
_geom_bond_atom_site_label_1
_geom_bond_atom_site_label_2
_ccdc_geom_bond_type
C70   N5    A    
C51   C205  S    
Br19  C90   S    
C116  H9    S    
O6    Zn10  S    
C55   C180  S    
C9    H25   S    
C71   O59   S    
C70   O58   S    
C71   C91   A    
C73   N6    A    
O31   Zn10  S    
C18   H67   S    
C75   N8    A    
C72   N5    A    
C173  N5    S    
O78   Zn16  S    
C184  O38   A    
C36   H32   S    
C190  O24   A    
C139  C177  A    
Br15  C46   S    
C1    O67   A    
Br5   C4    S    
C56   C185  S    
C191  O25   A    
C23   H20   S    
C42   C60   S    
C43   C197  S    
O32   Zn11  S    
C131  H79   S    
C86   C99   A    
C78   C198  A    
O14   Zn4   S    
C17   H102  S    
C91   C113  A    
C26   C43   S    
C39   H35   S    
C199  C204  S    
C80   C97   A    
O27   Zn15  S    
C11   H47   S    
C10   H36   S    
C156  H104  S    
Br16  C57   S    
O1    Zn4   S    
C25   H74   S    
C76   C92   A    
O30   Zn14  S    
C111  O73   D    
C42   H39   S    
O15   Zn16  S    
C7    C122  S    
C48   C202  S    
C95   C104  A    
C137  C155  A    
C17   H66   S    
C127  H75   S    
C181  O15   A    
C140  C158  A    
C50   C196  S    
C114  H7    S    
C141  C159  A    
C37   H51   S    
C130  C172  A    
C3    C4    S    
C38   H52   S    
C11   C12   S    
O17   Zn3   S    
O16   Zn2   S    
O34   Zn15  S    
C151  C164  A    
C105  O66   D    
C171  N7    S    
C128  C146  A    
O13   Zn12  S    
O33   Zn1   S    
C149  H97   S    
Br28  C202  S    
C152  C166  A    
C108  C201  S    
C12   H58   S    
C121  O82   D    
C197  C205  S    
C115  C206  S    
C194  O28   A    
C117  H10   S    
C8    C16   S    
C21   H18   S    
C92   C103  A    
C66   O54   S    
O18   Zn8   S    
C8    C43   S    
C140  H88   S    
C119  H12   S    
C37   H33   S    
C165  O6    A    
C155  C168  A    
C143  O2    A    
C75   C95   A    
O23   Zn8   S    
C9    C44   S    
C192  O41   A    
C20   H70   S    
Br26  C126  S    
C21   H71   S    
C65   C85   A    
Br17  C68   S    
C31   H45   S    
C39   C56   S    
C162  C165  S    
C137  H85   S    
C110  O72   D    
O4    Zn5   S    
C79   C123  A    
Br24  C124  S    
C78   C96   A    
O22   Zn11  S    
C25   C60   S    
C131  C149  A    
C2    C80   A    
C181  O35   A    
C62   O50   S    
C71   N6    A    
C4    C56   S    
O45   Zn2   S    
C106  H111  S    
C29   H43   S    
C17   C52   S    
C30   C48   S    
C16   H65   S    
C153  H101  S    
C22   C58   S    
C66   N4    A    
O34   Zn13  S    
C155  H103  S    
Br2   C207  S    
C107  O69   D    
C159  H107  S    
C34   C42   S    
C24   C46   A    
C176  O9    A    
C193  O27   A    
C79   C87   A    
O24   Zn1   S    
C39   H53   S    
C149  C164  A    
C14   H63   S    
Br29  C203  S    
C182  O16   A    
O7    Zn11  S    
O8    Zn1   S    
C185  O39   A    
C3    C55   S    
O11   Zn15  S    
C107  H112  S    
O42   Zn16  S    
Br14  C35   S    
C49   C203  S    
C73   C88   A    
C134  C173  A    
O9    Zn13  S    
C144  C161  A    
C174  N6    S    
C70   C89   A    
C201  C202  S    
C144  H92   S    
C130  C148  A    
Br3   C208  S    
Br13  C24   S    
C188  O21   A    
C69   O57   S    
C121  H15   S    
O84   Zn6   S    
C36   C53   S    
C69   N4    A    
C38   C55   S    
C122  O83   D    
O12   Zn16  S    
C73   O61   S    
C66   C86   A    
C63   O51   S    
Br22  C123  S    
C165  O8    A    
C109  H4    S    
O1    Zn1   S    
C138  H86   S    
C74   N7    A    
C43   C190  S    
C108  O70   D    
O23   Zn6   S    
C190  O43   A    
C109  O71   D    
C160  H108  S    
C189  O22   A    
C183  O32   A    
Br9   C198  S    
C179  N2    S    
C111  C204  S    
C37   C40   S    
C40   C58   S    
C26   C33   S    
C54   C208  S    
C135  C152  A    
C161  H109  S    
C9    C15   S    
C153  C167  A    
C33   H30   S    
C118  O79   D    
C110  C203  S    
C57   C85   A    
C115  H8    S    
C89   C100  A    
C164  C187  S    
C20   C21   S    
Br12  C199  S    
C94   C125  A    
C183  O17   A    
C46   C84   A    
O37   Zn15  S    
O56   Zn3   S    
C76   N7    A    
C139  H87   S    
C195  O44   A    
O35   Zn9   S    
O40   Zn3   S    
C111  H6    S    
O48   Zn6   S    
C53   C182  S    
O12   Zn9   S    
C16   H91   S    
C10   H60   S    
C29   C47   S    
C65   N3    A    
C12   H62   S    
O67   Zn4   S    
C101  C125  A    
C29   C30   S    
C112  O78   A    
C29   H26   S    
C58   C186  S    
C19   H68   S    
C150  H98   S    
C195  O29   A    
C10   C45   S    
C92   C123  A    
O20   Zn6   S    
Br8   C7    S    
C5    C120  S    
C6    C121  S    
C48   C194  S    
O26   Zn10  S    
C27   C44   S    
O25   Zn9   S    
C142  C160  A    
C83   C98   A    
C65   O53   S    
C38   H34   S    
C177  N4    S    
C50   C204  S    
C28   H24   S    
O5    Zn9   S    
C15   H64   S    
C187  O10   A    
O23   Zn12  S    
C191  O40   A    
C81   C96   A    
C122  H16   S    
O34   Zn7   S    
C52   C181  S    
C25   H21   S    
C36   H50   S    
C133  C150  A    
C8    H57   S    
C145  H93   S    
C67   C83   A    
C147  H95   S    
O43   Zn2   S    
C180  O14   A    
C143  O4    A    
C10   C14   S    
C59   C188  S    
C23   C59   S    
C34   H31   S    
C18   C53   S    
C196  O46   A    
C148  H96   S    
C113  C124  A    
C105  H110  S    
C34   H49   S    
C120  O81   D    
C132  O84   A    
C172  N8    S    
C2    C68   A    
C160  C169  A    
C63   N1    A    
C38   C39   S    
C13   C57   A    
C31   H28   S    
C8    H1    S    
C93   C124  A    
C61   O49   S    
C27   H41   S    
Br4   C3    S    
C1    O45   A    
C26   H22   S    
C22   H19   S    
C141  C179  A    
C19   C54   S    
O3    Zn8   S    
C47   C189  S    
C44   C191  S    
O29   Zn13  S    
C145  C162  A    
C135  C174  A    
C115  O75   D    
C130  H78   S    
C47   C201  S    
C141  H89   S    
O12   Zn11  S    
C5    C208  S    
C91   C102  A    
C1    C168  S    
C6    C59   S    
C161  C170  A    
C134  H82   S    
Br21  C113  S    
C187  O13   A    
O36   Zn14  S    
C64   C80   A    
C45   C192  S    
C12   C48   S    
C110  H5    S    
C136  C175  A    
C119  O80   D    
C4    C119  S    
C61   C81   A    
Br18  C79   S    
C132  O3    A    
C95   C126  A    
C148  C163  A    
C5    C58   S    
C93   C104  A    
C105  C197  S    
O39   Zn13  S    
C157  H105  S    
C94   C103  A    
C152  H100  S    
C28   C31   S    
O41   Zn4   S    
C82   C97   A    
C28   H42   S    
Br11  C13   S    
C68   C86   A    
C154  O7    A    
C19   H13   S    
C7    C60   S    
O34   Zn5   S    
C27   H23   S    
C146  H94   S    
C185  O19   A    
C52   C206  S    
C134  C151  A    
C63   C78   A    
C96   C98   A    
C128  C172  A    
C176  O11   A    
C41   H38   S    
C112  O56   A    
C74   C94   A    
C144  C179  A    
C108  H3    S    
C194  O48   A    
C9    H59   S    
O47   Zn5   S    
C112  C167  S    
Br32  C206  S    
C30   H44   S    
C20   H17   S    
C77   O65   S    
C60   C184  S    
C178  N1    S    
C75   O63   S    
C32   H29   S    
C128  H76   S    
C13   C81   A    
C142  H90   S    
C15   H80   S    
C69   C84   A    
C186  O20   A    
C133  H81   S    
C147  C162  A    
C120  H14   S    
C116  C207  S    
C150  C166  A    
C62   C82   A    
C17   C25   S    
C118  H11   S    
C11   H61   S    
C27   C32   S    
C31   C49   S    
C33   H48   S    
C158  H106  S    
C129  H77   S    
C106  C199  S    
C196  O30   A    
C140  C178  A    
C23   H73   S    
C33   C51   S    
O21   Zn7   S    
C11   C47   S    
C61   N1    A    
O28   Zn12  S    
C117  C208  S    
C139  C157  A    
C40   H37   S    
C136  H84   S    
C15   C50   S    
C35   C83   A    
C54   C183  S    
C6    C207  S    
C35   C198  A    
C109  C202  S    
C72   O60   S    
O10   Zn14  S    
C107  C200  S    
C159  C170  A    
Br20  C101  S    
C154  O5    A    
C133  C174  A    
C88   C102  A    
Br23  C200  S    
Br31  C205  S    
C189  O42   A    
C188  O37   A    
C64   O52   S    
C127  C145  A    
C16   C51   S    
C14   H69   S    
C175  N3    S    
C88   C90   A    
C180  O33   A    
C22   H72   S    
C90   C126  A    
C77   N8    A    
C28   C45   S    
C166  C176  S    
C154  C163  S    
C41   C59   S    
C192  O26   A    
C102  C104  A    
C156  C167  A    
C36   C41   S    
C106  O68   D    
C131  C173  A    
C200  C203  S    
C53   C207  S    
C186  O36   A    
C67   O55   S    
C30   H27   S    
C14   C49   S    
O44   Zn7   S    
C127  C171  A    
C114  C205  S    
O46   Zn8   S    
C44   C199  S    
C87   C100  A    
Br6   C5    S    
Br10  C2    S    
C85   C98   A    
C32   C50   S    
C132  C170  S    
C157  C168  A    
C77   C93   A    
O1    Zn10  S    
C3    C118  S    
O12   Zn3   S    
Br25  C125  S    
C129  C147  A    
C62   N2    A    
C138  C156  A    
C74   O62   S    
C182  O31   A    
C114  O74   D    
C184  O18   A    
C51   C193  S    
C143  C169  S    
C32   H46   S    
C45   C200  S    
C136  C153  A    
C49   C195  S    
C142  C178  A    
O38   Zn12  S    
O1    Zn2   S    
C129  C171  A    
C20   C55   S    
C67   N3    A    
C26   H40   S    
C18   H2    S    
C151  H99   S    
C64   N2    A    
C158  C169  A    
O2    Zn7   S    
C146  C163  A    
C18   C23   S    
C41   H55   S    
C19   C22   S    
Br30  C204  S    
C72   C87   A    
C42   H56   S    
C76   O64   S    
C138  C175  A    
C116  O76   D    
C117  O77   D    
C84   C99   A    
C40   H54   S    
C100  C103  A    
Br7   C6    S    
C21   C56   S    
C193  O47   A    
O23   Zn14  S    
Br27  C201  S    
C34   C52   S    
Br1   C197  S    
C24   C82   A    
C137  C177  A    
O19   Zn5   S    
C89   C101  A    
C135  H83   S    
C7    C206  S    
C37   C54   S    
C97   C99   A    
