data_mof_unit_pretest_293.cif
_audit_creation_date              2012-12-10T20:31:07-0500
_audit_creation_method            fapswitch 2.2
_symmetry_space_group_name_H-M    P1
_symmetry_Int_Tables_number       1
_space_group_crystal_system       triclinic
_cell_length_a                    15.001699
_cell_length_b                    10.710242
_cell_length_c                    9.863948
_cell_angle_alpha                 88.890722
_cell_angle_beta                  90.007887
_cell_angle_gamma                 90.677323
_cell_volume                      1584.45080069

loop_
_atom_site_label
_atom_site_type_symbol
_atom_type_description
_atom_site_fract_x
_atom_site_fract_y
_atom_site_fract_z
_atom_type_partial_charge
C1    C     C_R   0.503350 0.259583 0.500735 0.875880
C2    C     C_R   0.185027 0.513544 0.376379 -0.264554
C3    C     C_R   0.230812 0.510026 0.499813 -0.075356
C4    C     C_R   0.326627 0.502633 0.499956 0.886504
C5    C     C_R   0.185061 0.514432 0.623085 -0.267160
C6    C     C_R   0.535699 0.060291 0.618637 0.137805
C7    C     C_R   0.519471 0.128047 0.499294 -0.104395
C8    C     C_R   0.523946 0.066879 0.374478 -0.218202
C9    C     C_R   0.524466 0.937748 0.372796 -0.228697
C10   C     C_R   0.521120 0.870848 0.496072 -0.105909
C11   C     C_R   0.536374 0.932610 0.616705 0.134795
C12   C     C_R   0.907437 0.511996 0.624238 0.119534
C13   C     C_3   0.490883 0.918413 0.750510 -0.462548
C14   C     C_3   0.489811 0.059348 0.752893 -0.518309
C15   C     C_R   0.429847 0.448679 0.072923 0.169816
C16   C     C_R   0.503992 0.739924 0.498733 0.881766
C17   C     C_R   0.564973 0.560373 0.070630 -0.146461
C18   C     C_R   0.565064 0.560205 0.926722 -0.144614
C19   C     C_R   0.429341 0.449869 0.929634 0.166003
C20   C     C_3   0.399832 0.316562 0.926800 -0.079433
C21   C     C_3   0.400943 0.314796 0.081661 -0.067622
C22   C     C_R   0.673435 0.500821 0.499981 0.891521
C23   C     C_R   0.953860 0.512404 0.252162 -0.217778
C24   C     C_R   0.815245 0.507838 0.623386 -0.261645
C25   C     C_R   0.769418 0.504663 0.499922 -0.072875
C26   C     C_R   0.815237 0.506781 0.376353 -0.260883
C27   C     C_R   0.907423 0.510958 0.375331 0.119452
C28   C     C_R   0.953780 0.513004 0.499754 0.059686
C29   C     C_3   0.309713 0.296643 0.856626 -0.840431
C30   C     C_3   0.311564 0.294160 0.154467 -0.817650
C31   C     C_R   0.046483 0.514488 0.252144 -0.218964
C32   C     C_R   0.092872 0.514902 0.375301 0.121578
C33   C     C_R   0.046509 0.514906 0.499713 0.061322
C34   C     C_R   0.092899 0.515851 0.624102 0.122094
C35   C     C_R   0.046523 0.516452 0.747249 -0.219148
C36   C     C_R   0.953895 0.514447 0.747317 -0.218049
H1    H     H_    0.779390 0.506846 0.718899 0.158052
H2    H     H_    0.779378 0.504935 0.280889 0.158235
H3    H     H_    0.454065 0.253899 0.123432 0.149018
H4    H     H_    0.918614 0.511138 0.156249 0.139644
H5    H     H_    0.081775 0.514562 0.156239 0.138292
H6    H     H_    0.220879 0.514592 0.281131 0.162021
H7    H     H_    0.220942 0.516136 0.718281 0.162726
H8    H     H_    0.081829 0.517278 0.843138 0.138333
H9    H     H_    0.918660 0.514016 0.843265 0.139637
H10   H     H_    0.520235 0.117125 0.278602 0.164036
H11   H     H_    0.260377 0.367091 0.887340 0.234973
H12   H     H_    0.520145 0.891528 0.276238 0.172408
H13   H     H_    0.318603 0.302801 0.745158 0.253793
H14   H     H_    0.283368 0.201784 0.881958 0.238772
H15   H     H_    0.321578 0.299265 0.265555 0.254286
H16   H     H_    0.261855 0.364782 0.122706 0.230114
H17   H     H_    0.285049 0.199491 0.132633 0.238516
H18   H     H_    0.423148 0.875668 0.743129 0.211366
H19   H     H_    0.534899 0.876065 0.829133 0.202012
H20   H     H_    0.421215 0.097026 0.746376 0.214431
H21   H     H_    0.533783 0.096718 0.833572 0.197495
H22   H     H_    0.618359 0.607223 0.123911 0.147319
H23   H     H_    0.618529 0.606871 0.871491 0.147372
H24   H     H_    0.453120 0.259469 0.884866 0.157111
N1    N     N_R   0.499390 0.499140 0.142800 -0.119508
N2    N     N_R   0.499390 0.499180 0.857150 -0.119010
O1    O     O_R   0.500010 0.316790 0.614690 -0.618157
O2    O     O_R   0.500000 0.316760 0.385350 -0.627866
O3    O     O_R   0.367850 0.499990 0.614680 -0.622591
O4    O     O_R   0.367840 0.499950 0.385340 -0.621144
O5    O     O_R   0.500000 0.683240 0.614650 -0.618672
O6    O     O_R   0.499990 0.683210 0.385310 -0.621806
O7    O     O_R   0.632160 0.500050 0.614660 -0.630535
O8    O     O_R   0.632150 0.500010 0.385320 -0.630229
Zn1   Zn    Zn3+2 0.500010 0.500020 0.653130 0.941028
Zn2   Zn    Zn3+2 0.499990 0.499980 0.346870 0.941456

loop_
_geom_bond_atom_site_label_1
_geom_bond_atom_site_label_2
_ccdc_geom_bond_type
N2    Zn1   S    
C14   H20   S    
C30   H15   S    
C24   C25   A    
C6    C7    A    
C16   O6    A    
C23   C27   A    
C6    C14   S    
C13   H18   S    
C9    C10   A    
C12   C24   A    
C22   O7    A    
O5    Zn1   S    
C31   C32   A    
C21   H3    S    
C15   C21   S    
C17   H22   S    
O6    Zn2   S    
C17   N1    A    
C32   C33   A    
C3    C4    S    
C33   C34   A    
C15   N1    A    
O3    Zn1   S    
C7    C8    A    
C16   O5    A    
C29   H13   S    
C13   C14   S    
C5    C34   A    
C4    O4    A    
C35   H8    S    
C11   C13   S    
C6    C11   A    
C26   C27   A    
C10   C16   S    
C20   C29   S    
C2    H6    S    
C1    O1    A    
N1    Zn2   S    
C2    C32   A    
C22   C25   S    
C29   H11   S    
C28   C33   A    
C17   C18   A    
C2    C3    A    
C29   H14   S    
O2    Zn2   S    
C5    H7    S    
C4    O3    A    
C30   H17   S    
C8    H10   S    
C20   H24   S    
C12   C36   A    
C10   C11   A    
C19   N2    A    
C23   H4    S    
C1    O2    A    
C3    C5    A    
C18   H23   S    
C36   H9    S    
C20   C21   S    
C12   C28   A    
C9    H12   S    
C24   H1    S    
C34   C35   A    
C21   C30   S    
C27   C28   A    
O7    Zn1   S    
C14   H21   S    
C30   H16   S    
C26   H2    S    
O8    Zn2   S    
C31   H5    S    
C1    C7    S    
C25   C26   A    
C15   C19   A    
C22   O8    A    
O4    Zn2   S    
C18   N2    A    
C19   C20   S    
O1    Zn1   S    
C8    C9    A    
C13   H19   S    
C35   C36   A    
C23   C31   A    
