data_mof_unit_pretest_1259.cif
_audit_creation_date              2013-03-05T15:39:27-0500
_audit_creation_method            fapswitch 2.2
_symmetry_space_group_name_H-M    P1
_symmetry_Int_Tables_number       1
_space_group_crystal_system       triclinic
_cell_length_a                    10.878355
_cell_length_b                    10.90728
_cell_length_c                    10.88965
_cell_angle_alpha                 80.664406
_cell_angle_beta                  98.81729
_cell_angle_gamma                 90.24844
_cell_volume                      1259.6321778

loop_
_atom_site_label
_atom_site_type_symbol
_atom_site_description
_atom_site_fract_x
_atom_site_fract_y
_atom_site_fract_z
_atom_type_partial_charge
Zn1   Zn    Zn3+2 0.396020 0.396030 0.603970 1.138397
Zn2   Zn    Zn3+2 0.618560 0.587010 0.606350 1.132268
Zn3   Zn    Zn3+2 0.396030 0.620930 0.379070 1.140816
Zn4   Zn    Zn3+2 0.589390 0.396030 0.410610 1.131657
O1    O     O_3   0.500000 0.500000 0.500000 -0.579942
O2    O     O_R   0.767360 0.410530 0.454140 -0.596529
O3    O     O_R   0.222430 0.443930 0.556060 -0.602877
O4    O     O_R   0.597340 0.544190 0.781580 -0.601819
O5    O     O_R   0.412870 0.601350 0.208220 -0.580793
O6    O     O_R   0.597340 0.765700 0.560080 -0.609871
O7    O     O_R   0.548200 0.222430 0.451790 -0.594706
O8    O     O_R   0.441590 0.789440 0.401000 -0.593426
O9    O     O_R   0.412860 0.222430 0.587130 -0.573769
O10   O     O_R   0.441590 0.410520 0.779910 -0.588317
O11   O     O_R   0.548210 0.443940 0.230290 -0.596521
O12   O     O_R   0.787780 0.544200 0.591150 -0.614362
O13   O     O_R   0.222430 0.601350 0.398650 -0.586480
C1    C     C_R   0.834323 0.472621 0.528774 0.889978
C2    C     C_R   0.163813 0.526541 0.471393 0.864407
C3    C     C_R   0.524312 0.472947 0.838242 0.912161
C4    C     C_R   0.475986 0.527601 0.160098 0.843467
C5    C     C_R   0.523211 0.834437 0.475371 0.885930
C6    C     C_R   0.477042 0.164183 0.523543 0.813089
C7    C     C_2   0.474807 0.028633 0.536965 0.100415
C8    C     C_2   0.530304 0.966738 0.460156 0.064204
C9    C     C_2   0.027853 0.531614 0.455112 0.003164
C10   C     C_2   0.967401 0.466710 0.544074 0.040615
C11   C     C_2   0.459849 0.533479 0.023512 0.120800
C12   C     C_2   0.537607 0.466720 0.971918 0.011482
S1    S     S_3+6 0.399515 0.945650 0.659546 0.089874
O14   O     O_2   0.301833 0.864709 0.602615 -0.277032
O15   O     O_2   0.494420 0.865036 0.752279 -0.220069
O16   O     O_3   0.331349 0.041382 0.736792 -0.457916
H1    H     H_    0.283648 0.986361 0.793215 0.403293
S2    S     S_3+6 0.592017 0.032907 0.321852 0.120449
O17   O     O_2   0.499946 0.124683 0.238780 -0.209277
O18   O     O_2   0.711526 0.097548 0.357205 -0.216268
O19   O     O_3   0.620974 0.921034 0.239673 -0.465439
H2    H     H_    0.696008 0.875862 0.289022 0.374364
N1    N     N_R   0.960887 0.601593 0.340455 0.225713
O20   O     O_R   0.002043 0.603316 0.234119 -0.260737
O21   O     O_R   0.866648 0.673506 0.343589 -0.390209
N2    N     N_R   0.029492 0.411067 0.666579 0.221720
O22   O     O_R   0.997008 0.301500 0.716437 -0.316765
O23   O     O_R   0.093216 0.480358 0.738857 -0.255124
S3    S     S_3+6 0.329971 0.624302 0.934929 0.121288
O24   O     O_2   0.324944 0.636455 0.794855 -0.250533
O25   O     O_2   0.213187 0.564327 0.971105 -0.210183
O26   O     O_3   0.337573 0.767132 0.974775 -0.466225
H3    H     H_    0.250947 0.800319 0.954941 0.393014
N3    N     N_R   0.651508 0.409382 0.042076 0.223968
O27   O     O_R   0.682564 0.298253 0.027316 -0.273960
O28   O     O_R   0.735879 0.477552 0.094732 -0.277388

loop_
_geom_bond_atom_site_label_1
_geom_bond_atom_site_label_2
_geom_bond_distance
_ccdc_geom_bond_type
N3    O28   1.301968 A    
N2    O22   1.300967 A    
C9    N1    1.445347 S    
Zn3   O5    1.942770 S    
C10   N2    1.438354 S    
Zn1   O10   1.935944 S    
Zn2   O12   1.939086 S    
S2    O17   1.503562 D    
C6    C7    1.462361 S    
O5    C4    1.282558 A    
Zn4   O11   1.931065 S    
N1    O21   1.301446 A    
O16   H1    0.991136 S    
O6    C5    1.271266 A    
Zn4   O7    1.940616 S    
S1    O15   1.502975 D    
N2    O23   1.300927 A    
S3    O26   1.682066 S    
C11   S3    1.786712 S    
C9    C10   1.356792 D    
O4    C3    1.266897 A    
C8    S2    1.786894 S    
Zn1   O1    1.952507 S    
O7    C6    1.278077 A    
C11   C12   1.358358 D    
O13   C2    1.280833 A    
C4    C11   1.461615 S    
Zn3   O13   1.939743 S    
O3    C2    1.274287 A    
C3    C12   1.431092 S    
S1    O14   1.503464 D    
O2    C1    1.281656 A    
C7    S1    1.791294 S    
Zn2   O1    1.947663 S    
Zn1   O9    1.943837 S    
N3    O27   1.300995 A    
Zn2   O6    1.937908 S    
S3    O25   1.503231 D    
O8    C5    1.260902 A    
O11   C4    1.276733 A    
S2    O19   1.683172 S    
O19   H2    0.990412 S    
C7    C8    1.364323 D    
O9    C6    1.290488 A    
O10   C3    1.279337 A    
O12   C1    1.268145 A    
Zn4   O2    1.933447 S    
C12   N3    1.439291 S    
O26   H3    0.990398 S    
C2    C9    1.462581 S    
S3    O24   1.502054 D    
N1    O20   1.301335 A    
Zn3   O8    1.943985 S    
S1    O16   1.682463 S    
S2    O18   1.504039 D    
Zn1   O3    1.931115 S    
Zn2   O4    1.938448 S    
C1    C10   1.432146 S    
Zn4   O1    1.958843 S    
Zn3   O1    1.935457 S    
C5    C8    1.428699 S    
