data_mof_unit_pretest_1993.cif
_audit_creation_date              2012-12-11T17:14:09-0500
_audit_creation_method            fapswitch 2.2
_symmetry_space_group_name_H-M    P1
_symmetry_Int_Tables_number       1
_space_group_crystal_system       triclinic
_cell_length_a                    8.37709
_cell_length_b                    16.581435
_cell_length_c                    17.338436
_cell_angle_alpha                 99.636357
_cell_angle_beta                  97.510027
_cell_angle_gamma                 93.143219
_cell_volume                      2346.77047162

loop_
_atom_site_label
_atom_site_type_symbol
_atom_type_description
_atom_site_fract_x
_atom_site_fract_y
_atom_site_fract_z
_atom_type_partial_charge
Ba1   Ba    Ba6+2 0.836100 0.536190 0.461710 1.201469
Ba2   Ba    Ba6+2 0.353720 0.463880 0.538300 0.951653
C1    C     C_3   0.562588 0.818851 0.251513 0.651941
C2    C     C_3   0.561273 0.737342 0.282314 0.790120
C3    C     C_3   0.441555 0.327744 0.293956 0.470836
C4    C     C_3   0.434741 0.301876 0.204611 0.970782
C5    C     C_3   0.201976 0.299838 0.750124 0.879897
C6    C     C_3   0.239023 0.278062 0.832402 0.943388
C7    C     C_3   0.627804 0.253129 0.712716 0.567403
C8    C     C_3   0.574475 0.169617 0.731626 0.942925
C9    C     C_2   0.267835 0.504803 0.274110 0.448446
C10   C     C_3   0.387551 0.502832 0.215791 -0.094834
C11   C     C_2   0.309865 0.508667 0.133841 -0.164532
C12   C     C_3   0.062265 0.715664 0.248678 1.450463
C13   C     C_2   0.150778 0.486861 0.112157 -0.072965
C14   C     C_2   0.051268 0.467098 0.174533 -0.143449
C15   C     C_1   0.118359 0.471040 0.249603 0.020589
C16   C     C_R   0.886135 0.479039 0.863746 0.626050
C17   C     C_R   0.827177 0.464063 0.783341 -0.021658
C18   C     C_R   0.075110 0.529616 0.753751 0.111929
C19   C     C_R   0.137428 0.541405 0.835339 -0.183709
C20   C     C_R   0.045611 0.513300 0.890741 0.027537
C21   C     C_2   0.081149 0.470913 0.025814 0.489887
C22   C     C_2   0.112690 0.524848 0.977107 0.052183
C23   C     C_3   0.023620 0.742918 0.168965 0.316981
C24   C     C_R   0.921262 0.488569 0.728919 0.141530
C25   C     C_R   0.389418 0.730105 0.460477 0.219924
C26   C     C_R   0.537847 0.758394 0.505874 0.020765
C27   C     C_R   0.587917 0.842482 0.519027 0.452434
C28   C     C_R   0.485891 0.898716 0.489011 0.090009
C29   C     C_R   0.326093 0.869618 0.451952 0.231237
C30   C     C_R   0.278742 0.785080 0.438954 -0.029851
C31   C     C_R   0.616143 0.141621 0.475175 0.276479
C32   C     C_R   0.664636 0.226160 0.481829 -0.126998
C33   C     C_R   0.724641 0.089573 0.509219 0.258393
C34   C     C_3   0.212015 0.734056 0.646476 0.855305
C35   C     C_R   0.820183 0.256529 0.517678 0.370847
C36   C     C_R   0.930153 0.205974 0.548008 -0.019200
C37   C     C_R   0.881976 0.122476 0.544297 0.481514
C38   C     C_3   0.115704 0.810993 0.663233 0.651278
C39   C     C_3   0.963231 0.271855 0.344849 1.203853
C40   C     C_3   0.963397 0.179123 0.313821 1.160458
C41   C     C_3   0.723420 0.678588 0.716911 0.895484
C42   C     C_3   0.672725 0.715569 0.798195 0.729043
H1    H     H_    0.985867 0.790551 0.653902 0.144844
H2    H     H_    0.702503 0.783035 0.809893 0.070786
H3    H     H_    0.455825 0.731513 0.313703 0.051451
H4    H     H_    0.318119 0.337479 0.307956 -0.121254
H5    H     H_    0.519341 0.386047 0.313125 0.001774
H6    H     H_    0.356332 0.341745 0.173625 -0.235526
H7    H     H_    0.664239 0.822515 0.216512 0.126878
H8    H     H_    0.092992 0.707758 0.125904 0.037742
H9    H     H_    0.306898 0.335982 0.737823 -0.083744
H10   H     H_    0.342863 0.239344 0.834773 -0.067453
H11   H     H_    0.557488 0.257971 0.654641 -0.113660
H12   H     H_    0.441732 0.164727 0.730007 -0.013932
H13   H     H_    0.192688 0.579563 0.001241 0.019313
H14   H     H_    0.924476 0.446602 0.157012 0.151499
H15   H     H_    0.387050 0.518300 0.089969 0.130560
H16   H     H_    0.255963 0.572846 0.855664 0.164513
H17   H     H_    0.195086 0.716105 0.262776 -0.879910
H18   H     H_    0.059889 0.809468 0.175029 0.022479
N1    N     N_2   0.534508 0.984363 0.498197 -0.078058
N2    N     N_2   0.683104 0.003515 0.505581 -0.046938
O1    O     O_2   0.836060 0.445790 0.307930 -0.416207
O2    O     O_3   0.682394 0.732102 0.663824 -0.609080
O3    O     O_3   0.998869 0.768986 0.307069 -0.592176
O4    O     O_2   0.353650 0.554240 0.692110 -0.395533
O5    O     O_3   0.081100 0.548460 0.594090 -0.393193
O6    O     O_3   0.584850 0.404680 0.643890 -0.411982
O7    O     O_3   0.199161 0.686255 0.706631 -0.548123
O8    O     O_3   0.621030 0.400630 0.459910 -0.328405
O9    O     O_3   0.161970 0.361060 0.604300 -0.393220
O10   O     O_2   0.268203 0.213448 0.556281 -0.427700
O11   O     O_3   0.167150 0.228012 0.692989 -0.632330
O12   O     O_3   0.108600 0.451610 0.405920 -0.302795
O13   O     O_3   0.568670 0.599440 0.540100 -0.312921
O14   O     O_2   0.371480 0.300500 0.461810 -0.406131
O15   O     O_3   0.503056 0.264926 0.330906 -0.530533
O16   O     O_2   0.493186 0.463149 0.782501 -0.449181
O17   O     O_3   0.595112 0.315487 0.773300 -0.571640
O18   O     O_3   0.604850 0.595390 0.356120 -0.332649
O19   O     O_2   0.717257 0.543846 0.222627 -0.396262
O20   O     O_3   0.009395 0.315987 0.288818 -0.745289
O21   O     O_3   0.553502 0.671732 0.218442 -0.579520
O22   O     O_2   0.818230 0.699530 0.538240 -0.391351
O23   O     O_3   0.027730 0.639010 0.395710 -0.320809
O24   O     O_2   0.952689 0.788261 0.454035 -0.312782
P1    P     P_3+3 0.011660 0.422550 0.320180 1.273334
P2    P     P_3+3 0.650900 0.688870 0.561900 1.306735
P3    P     P_3+3 0.067073 0.745076 0.399999 1.335881
P4    P     P_3+3 0.178040 0.577520 0.679830 1.197606
P5    P     P_3+3 0.132094 0.253266 0.597943 1.191672
P6    P     P_3+3 0.564802 0.578061 0.253053 1.176963
P7    P     P_3+3 0.541192 0.297588 0.433479 1.243790
P8    P     P_3+3 0.624019 0.412448 0.746628 1.168705
F1    F     F_    0.700459 0.738620 0.334843 -0.707313
O25   O     O_3   0.153183 0.851538 0.742272 -0.697371
H19   H     H_    0.255234 0.886531 0.747594 0.327217
O26   O     O_3   0.136159 0.865271 0.610238 -0.630318
H20   H     H_    0.251221 0.886621 0.619000 0.304484
F2    F     F_    0.810721 0.289288 0.356605 -0.690951
F3    F     F_    0.066954 0.292264 0.414927 -0.665594
O27   O     O_3   0.857501 0.155215 0.242552 -0.624367
H21   H     H_    0.900821 0.181498 0.201417 0.293754
F4    F     F_    0.909567 0.136877 0.368864 -0.674967
O28   O     O_3   0.120251 0.157023 0.304251 -0.667229
H22   H     H_    0.157299 0.185324 0.263035 0.303930
O29   O     O_3   0.889985 0.672538 0.725433 -0.772259
H23   H     H_    0.941899 0.724857 0.757482 0.292764
O30   O     O_3   0.645832 0.600807 0.688898 -0.604139
H24   H     H_    0.653451 0.571956 0.734037 0.276027
O31   O     O_3   0.581998 0.885506 0.314802 -0.716600
H25   H     H_    0.698669 0.893278 0.336354 0.348208
O32   O     O_3   0.757606 0.683446 0.860148 -0.736611
H26   H     H_    0.696215 0.632055 0.864918 0.328795
F5    F     F_    0.507873 0.701679 0.797489 -0.689164
O33   O     O_3   0.418872 0.822634 0.201201 -0.672148
H27   H     H_    0.335116 0.837732 0.235376 0.308696
F6    F     F_    0.369401 0.221612 0.180922 -0.639370
O34   O     O_3   0.590912 0.308625 0.184426 -0.703210
H28   H     H_    0.578521 0.296853 0.125836 0.336231
F7    F     F_    0.072546 0.347254 0.749915 -0.735648
F8    F     F_    0.279451 0.349490 0.887380 -0.668486
O35   O     O_3   0.103206 0.235834 0.850530 -0.613310
H29   H     H_    0.135044 0.222092 0.903673 0.337637
O36   O     O_3   0.793700 0.255813 0.708767 -0.668060
H30   H     H_    0.814488 0.295673 0.673985 0.288815
O37   O     O_3   0.613156 0.105474 0.675181 -0.745935
H31   H     H_    0.729149 0.097474 0.689429 0.369750
F9    F     F_    0.994858 0.636602 0.242131 -0.681067
F10   F     F_    0.645466 0.161857 0.806680 -0.598028
F11   F     F_    0.783871 0.464472 0.915385 -0.638930
O38   O     O_3   0.995369 0.396617 0.993718 -0.610414
H32   H     H_    0.996176 0.362107 0.035211 0.329016
F12   F     F_    0.331707 0.512292 0.351081 -0.642375
O39   O     O_3   0.857079 0.475575 0.650994 -0.640413
H33   H     H_    0.928827 0.438690 0.624440 0.384437
O40   O     O_3   0.470155 0.106855 0.432661 -0.624675
H34   H     H_    0.403853 0.148938 0.414115 0.358399
O41   O     O_3   0.213507 0.921413 0.427567 -0.621276
H35   H     H_    0.257202 0.979206 0.444262 0.396807
F13   F     F_    0.731501 0.869681 0.564470 -0.601936
F14   F     F_    0.987361 0.073031 0.575261 -0.599352
F15   F     F_    0.348505 0.648680 0.440584 -0.644936
F16   F     F_    0.869169 0.335591 0.518296 -0.642710
O42   O     O_3   0.858055 0.728035 0.141600 -0.694489
H36   H     H_    0.841097 0.746116 0.089595 0.319810
O43   O     O_3   0.374498 0.759631 0.647719 -0.796394
H37   H     H_    0.416267 0.789268 0.701702 0.332277
O44   O     O_3   0.148771 0.691732 0.571077 -0.707012
H38   H     H_    0.230905 0.654777 0.553847 0.357929

loop_
_geom_bond_atom_site_label_1
_geom_bond_atom_site_label_2
_ccdc_geom_bond_type
Ba1   O23   S    
Ba1   P2    S    
O18   P6    S    
O23   P3    S    
C32   C35   A    
Ba1   O13   S    
C39   C40   S    
C33   C37   A    
O30   H24   S    
O9    P5    S    
C24   O39   S    
C10   P6    S    
O43   H37   S    
C5    C6    S    
O2    P2    S    
O1    P1    D    
C10   C11   S    
C18   P4    S    
C7    O36   S    
C26   C27   A    
C16   C17   A    
Ba2   O4    S    
C38   O25   S    
C3    C4    S    
C34   O43   S    
C30   P3    S    
O32   H26   S    
C27   F13   S    
C39   F2    S    
C16   F11   S    
Ba1   Ba2   S    
C17   C24   A    
O33   H27   S    
O4    P4    D    
O8    P7    S    
O41   H35   S    
O7    P4    S    
O42   H36   S    
C42   O32   S    
C14   C15   D    
Ba1   O1    S    
C12   O3    S    
C33   N2    S    
C7    H11   S    
C35   F16   S    
O16   P8    D    
Ba2   O5    S    
C8    H12   S    
C7    C8    S    
C34   O7    S    
C25   F15   S    
O12   P1    S    
C13   C21   S    
O44   H38   S    
C2    F1    S    
O10   P5    D    
C3    H5    S    
C41   O30   S    
Ba2   O8    S    
C4    F6    S    
O27   H21   S    
C42   H2    S    
C12   F9    S    
C38   H1    S    
C3    H4    S    
O13   P2    S    
Ba1   O8    S    
C13   C14   S    
C34   C38   S    
C15   P1    S    
C32   P7    S    
C19   H16   S    
C1    O31   S    
C6    H10   S    
O17   P8    S    
C1    H7    S    
C6    F8    S    
C5    O11   S    
C2    O21   S    
Ba1   O18   S    
C39   O20   S    
Ba1   O5    S    
C39   F3    S    
C29   O41   S    
O6    P8    S    
C41   C42   S    
O15   P7    S    
C35   C36   A    
Ba2   O14   S    
C1    O33   S    
O21   P6    S    
C29   C30   A    
O24   P3    D    
O14   P7    D    
C21   C22   D    
O3    P3    S    
C31   C32   A    
C23   O42   S    
C14   H14   S    
C18   C19   A    
Ba2   P4    S    
C40   F4    S    
O34   H28   S    
Ba2   O9    S    
C12   H17   S    
C11   C13   D    
O22   P2    D    
O35   H29   S    
C20   C22   S    
C3    O15   S    
O20   P1    S    
C5    H9    S    
O28   H22   S    
C1    C2    S    
O5    P4    S    
Ba2   O12   S    
O11   P5    S    
O31   H25   S    
C40   O28   S    
Ba1   O22   S    
C9    C15   D    
Ba1   P1    S    
C4    H6    S    
C21   O38   S    
C25   C30   A    
C16   C20   A    
Ba1   O12   S    
C5    F7    S    
C22   H13   S    
C40   O27   S    
C38   O26   S    
O40   H34   S    
C34   O44   S    
O38   H32   S    
C11   H15   S    
O39   H33   S    
O37   H31   S    
C8    O37   S    
Ba2   O13   S    
Ba2   O6    S    
C9    F12   S    
O19   P6    D    
C28   C29   A    
C36   C37   A    
C18   C24   A    
C42   F5    S    
C31   O40   S    
C41   O2    S    
C36   P5    S    
C28   N1    S    
O26   H20   S    
C31   C33   A    
C23   H18   S    
C12   C23   S    
C8    F10   S    
C23   H8    S    
C27   C28   A    
N1    N2    D    
C6    O35   S    
C37   F14   S    
O25   H19   S    
O29   H23   S    
C25   C26   A    
C26   P2    S    
C41   O29   S    
C4    O34   S    
C19   C20   A    
C17   P8    S    
O36   H30   S    
C9    C10   S    
C7    O17   S    
C2    H3    S    
