data_mof_unit_pretest_1869.cif
_audit_creation_date              2012-12-10T18:09:59-0500
_audit_creation_method            fapswitch 2.2
_symmetry_space_group_name_H-M    P1
_symmetry_Int_Tables_number       1
_space_group_crystal_system       triclinic
_cell_length_a                    18.381584
_cell_length_b                    18.382283
_cell_length_c                    32.007708
_cell_angle_alpha                 90.000037
_cell_angle_beta                  90.002596
_cell_angle_gamma                 90.000027
_cell_volume                      10815.2598177

loop_
_atom_site_label
_atom_site_type_symbol
_atom_type_description
_atom_site_fract_x
_atom_site_fract_y
_atom_site_fract_z
_atom_type_partial_charge
C1    C     C_R   0.639860 0.500019 1.000000 0.841859
C2    C     C_R   0.360140 0.500019 0.000000 0.841858
C3    C     C_R   0.139860 0.000019 0.499999 0.841859
C4    C     C_R   0.860140 0.000019 0.500001 0.841860
C5    C     C_3   0.502102 0.567477 0.735929 -0.195784
C6    C     C_3   0.497970 0.567480 0.264071 -0.195783
C7    C     C_3   0.998271 0.067488 0.235929 -0.195788
C8    C     C_3   0.001638 0.067491 0.764071 -0.195789
C9    C     C_1   0.499965 0.499679 0.837274 -0.031098
C10   C     C_1   0.500035 0.499680 0.162726 -0.031098
C11   C     C_1   0.999983 0.999679 0.337274 -0.031099
C12   C     C_1   0.000018 0.999680 0.662726 -0.031099
C13   C     C_1   0.499994 0.499222 0.662711 0.079521
C14   C     C_1   0.500005 0.499223 0.337289 0.079521
C15   C     C_1   0.000021 0.999223 0.162711 0.079522
C16   C     C_1   0.999980 0.999223 0.837289 0.079522
C17   C     C_1   0.717326 0.500051 0.999998 -0.163794
C18   C     C_1   0.282674 0.500051 0.000002 -0.163793
C19   C     C_1   0.217326 0.000051 0.499998 -0.163793
C20   C     C_1   0.782674 0.000051 0.500002 -0.163793
C21   C     C_1   0.782568 0.500043 0.999998 -0.162630
C22   C     C_1   0.217432 0.500042 0.000002 -0.162629
C23   C     C_1   0.282568 0.000043 0.499998 -0.162627
C24   C     C_1   0.717432 0.000043 0.500002 -0.162629
C25   C     C_R   0.500000 0.360017 0.500000 0.846863
C26   C     C_R   1.000000 0.860017 0.000000 0.846863
C27   C     C_R   0.500002 0.499890 0.580207 0.808744
C28   C     C_R   0.499998 0.499891 0.419793 0.808743
C29   C     C_R   0.000002 0.999891 0.080207 0.808741
C30   C     C_R   0.999998 0.999891 0.919793 0.808741
C31   C     C_R   0.500000 0.639714 0.500000 0.833383
C32   C     C_R   0.000000 0.139714 0.000000 0.833378
C33   C     C_R   1.000000 0.639925 0.000000 0.841441
C34   C     C_R   0.500000 0.139925 0.500000 0.841438
C35   C     C_R   0.860034 0.500017 0.999999 0.841873
C36   C     C_R   0.139966 0.500016 0.000001 0.841873
C37   C     C_R   0.360034 0.000017 0.499999 0.841871
C38   C     C_R   0.639966 0.000016 0.500001 0.841871
C39   C     C_R   0.499996 0.500001 0.919789 0.822280
C40   C     C_R   0.500004 0.500001 0.080211 0.822281
C41   C     C_R   0.999995 0.000001 0.419789 0.822283
C42   C     C_R   0.000005 0.000002 0.580210 0.822284
C43   C     C_R   0.000000 0.360018 1.000000 0.841611
C44   C     C_R   0.500000 0.860018 0.500000 0.841611
C45   C     C_1   0.500000 0.282583 0.500000 -0.158853
C46   C     C_1   1.000000 0.782583 0.000000 -0.158853
C47   C     C_1   1.000000 0.717360 0.000000 -0.162001
C48   C     C_1   0.500000 0.217360 0.500000 -0.162001
C49   C     C_1   0.500000 0.717230 0.500000 -0.163610
C50   C     C_1   0.000000 0.217230 1.000000 -0.163613
C51   C     C_1   0.000000 0.282501 1.000000 -0.164176
C52   C     C_1   0.500000 0.782501 0.500000 -0.164172
C53   C     C_3   0.558234 0.462548 0.736427 0.000533
C54   C     C_3   0.560417 0.466185 0.263591 0.000211
C55   C     C_3   0.439547 0.466250 0.736408 0.000210
C56   C     C_3   0.441725 0.462611 0.263573 0.000530
C57   C     C_3   0.060248 0.965902 0.236425 0.000415
C58   C     C_3   0.058509 0.962965 0.763589 0.000327
C59   C     C_3   0.941541 0.962885 0.236411 0.000324
C60   C     C_3   0.939798 0.965821 0.763575 0.000414
C61   C     C_3   0.560878 0.531482 0.764084 -0.190964
C62   C     C_3   0.558862 0.535151 0.235934 -0.190597
C63   C     C_3   0.441176 0.535213 0.764066 -0.190602
C64   C     C_3   0.439155 0.531547 0.235916 -0.190970
C65   C     C_3   0.058992 0.034875 0.264082 -0.190552
C66   C     C_3   0.060687 0.031914 0.735932 -0.191020
C67   C     C_3   0.939270 0.031831 0.264068 -0.191015
C68   C     C_3   0.940961 0.034795 0.735918 -0.190547
C69   C     C_1   0.499981 0.499947 0.874941 -0.158217
C70   C     C_1   0.500019 0.499947 0.125059 -0.158217
C71   C     C_1   0.999986 0.999947 0.374941 -0.158218
C72   C     C_1   0.000015 0.999947 0.625059 -0.158218
C73   C     C_1   0.500004 0.499655 0.625046 -0.096927
C74   C     C_1   0.499995 0.499655 0.374954 -0.096927
C75   C     C_1   0.000009 0.999656 0.125046 -0.096929
C76   C     C_1   0.999991 0.999656 0.874954 -0.096928
C77   C     C_3   0.497806 0.429977 0.764202 0.007549
C78   C     C_3   0.502119 0.429975 0.235797 0.007548
C79   C     C_3   0.001762 0.929966 0.264203 0.007551
C80   C     C_3   0.998333 0.929964 0.735796 0.007551
C81   C     C_3   0.499943 0.498924 0.791440 0.132671
C82   C     C_3   0.500056 0.498925 0.208560 0.132672
C83   C     C_3   0.999999 0.998924 0.291440 0.132675
C84   C     C_3   0.000003 0.998925 0.708560 0.132675
C85   C     C_3   0.499959 0.498311 0.708578 0.028671
C86   C     C_3   0.500039 0.498311 0.291422 0.028672
C87   C     C_3   0.000040 0.998311 0.208578 0.028672
C88   C     C_3   0.999962 0.998312 0.791422 0.028672
Cu1   Cu    Cu3+1 0.500000 0.427500 0.000000 0.981244
Cu2   Cu    Cu3+1 0.000000 0.927500 0.500000 0.981240
Cu3   Cu    Cu3+1 0.500000 0.572500 0.000000 0.983853
Cu4   Cu    Cu3+1 0.000000 0.072500 0.500000 0.983850
Cu5   Cu    Cu3+1 0.572520 0.499840 0.500000 0.998465
Cu6   Cu    Cu3+1 0.427480 0.499840 0.500000 0.998468
Cu7   Cu    Cu3+1 0.072520 0.999840 0.000000 0.998475
Cu8   Cu    Cu3+1 0.927480 0.999840 0.000000 0.998466
Cu9   Cu    Cu3+1 0.000000 0.500000 0.958560 0.987717
Cu10  Cu    Cu3+1 0.000000 0.500000 0.041440 0.987719
Cu11  Cu    Cu3+1 0.500000 1.000000 0.458560 0.987726
Cu12  Cu    Cu3+1 0.500000 0.000000 0.541440 0.987727
H1    H     H_    0.610923 0.558366 0.775863 0.158904
H2    H     H_    0.607179 0.565045 0.224171 0.159313
H3    H     H_    0.392891 0.565159 0.775829 0.159313
H4    H     H_    0.389139 0.558485 0.224137 0.158902
H5    H     H_    0.107438 0.064546 0.275859 0.159333
H6    H     H_    0.110550 0.059149 0.724168 0.158879
H7    H     H_    0.889370 0.058998 0.275833 0.158881
H8    H     H_    0.892475 0.064401 0.724141 0.159334
H9    H     H_    0.503876 0.624161 0.724018 0.162388
H10   H     H_    0.496258 0.624165 0.275982 0.162387
H11   H     H_    0.996834 0.124181 0.224017 0.162384
H12   H     H_    0.002998 0.124186 0.775983 0.162383
O1    O     O_R   0.605840 0.438770 0.000000 -0.580318
O2    O     O_R   0.394160 0.438770 0.000000 -0.580321
O3    O     O_R   0.105840 0.938770 0.500000 -0.580322
O4    O     O_R   0.894160 0.938770 0.500000 -0.580318
O5    O     O_R   0.000000 0.394210 0.965010 -0.581117
O6    O     O_R   0.000000 0.394210 0.034990 -0.581116
O7    O     O_R   0.500000 0.894210 0.465010 -0.581115
O8    O     O_R   0.500000 0.894210 0.534990 -0.581113
O9    O     O_R   0.605760 0.561230 0.000000 -0.580379
O10   O     O_R   0.394240 0.561230 0.000000 -0.580379
O11   O     O_R   0.105760 0.061230 0.500000 -0.580379
O12   O     O_R   0.894240 0.061230 0.500000 -0.580381
O13   O     O_R   0.500000 0.438780 0.939540 -0.580383
O14   O     O_R   0.500000 0.438780 0.060460 -0.580382
O15   O     O_R   0.000000 0.938780 0.439540 -0.580384
O16   O     O_R   0.000000 0.938780 0.560460 -0.580384
O17   O     O_R   0.500000 0.561230 0.939540 -0.578318
O18   O     O_R   0.500000 0.561230 0.060460 -0.578318
O19   O     O_R   0.000000 0.061230 0.439540 -0.578319
O20   O     O_R   0.000000 0.061230 0.560460 -0.578319
O21   O     O_R   0.561200 0.394070 0.500000 -0.578157
O22   O     O_R   0.438800 0.394070 0.500000 -0.578161
O23   O     O_R   0.061200 0.894070 0.000000 -0.578160
O24   O     O_R   0.938800 0.894070 0.000000 -0.578155
O25   O     O_R   0.561230 0.499860 0.560460 -0.573397
O26   O     O_R   0.561230 0.499860 0.439540 -0.572620
O27   O     O_R   0.438770 0.499860 0.560460 -0.572612
O28   O     O_R   0.438770 0.499860 0.439540 -0.573389
O29   O     O_R   0.061230 0.999860 0.060460 -0.572682
O30   O     O_R   0.061230 0.999860 0.939540 -0.573310
O31   O     O_R   0.938770 0.999860 0.060460 -0.573323
O32   O     O_R   0.938770 0.999860 0.939540 -0.572696
O33   O     O_R   0.561270 0.605640 0.500000 -0.581485
O34   O     O_R   0.438730 0.605640 0.500000 -0.581484
O35   O     O_R   0.061270 0.105640 0.000000 -0.581484
O36   O     O_R   0.938730 0.105640 0.000000 -0.581487
O37   O     O_R   0.000000 0.605780 0.965000 -0.581377
O38   O     O_R   0.000000 0.605780 0.035000 -0.581377
O39   O     O_R   0.500000 0.105780 0.465000 -0.581377
O40   O     O_R   0.500000 0.105780 0.535000 -0.581377
O41   O     O_R   0.894200 0.500000 0.965010 -0.581066
O42   O     O_R   0.894200 0.500000 0.034990 -0.580842
O43   O     O_R   0.105800 0.500000 0.965010 -0.580841
O44   O     O_R   0.105800 0.500000 0.034990 -0.581065
O45   O     O_R   0.394200 0.000000 0.465010 -0.580846
O46   O     O_R   0.394200 0.000000 0.534990 -0.581058
O47   O     O_R   0.605800 0.000000 0.465010 -0.581060
O48   O     O_R   0.605800 0.000000 0.534990 -0.580847
C89   C     C_2   0.625215 0.423338 0.722060 0.821369
O49   O     O_2   0.667910 0.399369 0.747885 -0.590076
O50   O     O_R   0.638491 0.414186 0.679417 -0.765240
H13   H     H_    0.685273 0.386689 0.673767 0.339467
C90   C     C_2   0.629654 0.431134 0.277982 0.821731
O51   O     O_2   0.673730 0.409766 0.252171 -0.590242
O52   O     O_R   0.643455 0.422865 0.320629 -0.764852
H14   H     H_    0.691819 0.398268 0.326296 0.339469
C91   C     C_2   0.370273 0.431272 0.722018 0.821727
O53   O     O_2   0.326171 0.409958 0.747828 -0.590243
O54   O     O_R   0.356467 0.423011 0.679371 -0.764853
H15   H     H_    0.308076 0.398466 0.673704 0.339469
C92   C     C_2   0.374703 0.423472 0.277940 0.821365
O55   O     O_2   0.331980 0.399553 0.252115 -0.590077
O56   O     O_R   0.361420 0.414329 0.320582 -0.765239
H16   H     H_    0.314609 0.386882 0.326232 0.339467
C93   C     C_2   0.129338 0.930543 0.222056 0.821559
O57   O     O_2   0.173320 0.909023 0.247880 -0.590232
O58   O     O_R   0.143109 0.922160 0.179414 -0.764848
H17   H     H_    0.191369 0.897350 0.173762 0.339459
C94   C     C_2   0.125747 0.924215 0.777977 0.821530
O59   O     O_2   0.168604 0.900502 0.752165 -0.590088
O60   O     O_R   0.139077 0.915200 0.820624 -0.765231
H18   H     H_    0.186039 0.888021 0.826289 0.339480
C95   C     C_2   0.874356 0.924044 0.222023 0.821535
O61   O     O_2   0.831528 0.900277 0.247835 -0.590084
O62   O     O_R   0.861041 0.915005 0.179376 -0.765240
H19   H     H_    0.814116 0.887761 0.173711 0.339480
C96   C     C_2   0.870757 0.930368 0.777943 0.821565
O63   O     O_2   0.826802 0.908793 0.752119 -0.590229
O64   O     O_R   0.857000 0.921959 0.820586 -0.764856
H20   H     H_    0.808774 0.897084 0.826237 0.339460
C97   C     C_3   0.495346 0.352846 0.782248 -0.394555
C98   C     C_3   0.493718 0.294585 0.747971 -0.337025
C99   C     C_3   0.490966 0.218430 0.766832 -0.790606
H21   H     H_    0.539710 0.208621 0.786562 0.258796
H22   H     H_    0.441170 0.211865 0.786133 0.258528
H23   H     H_    0.489948 0.177337 0.741411 0.246685
H24   H     H_    0.445218 0.302172 0.727779 0.234686
H25   H     H_    0.543025 0.298881 0.728110 0.234973
H26   H     H_    0.544042 0.344771 0.802296 0.222849
H27   H     H_    0.446052 0.347806 0.802138 0.222928
C100  C     C_3   0.504495 0.352841 0.217751 -0.394555
C101  C     C_3   0.506062 0.294578 0.252029 -0.337024
C102  C     C_3   0.508729 0.218420 0.233167 -0.790603
H28   H     H_    0.459973 0.208664 0.213439 0.258799
H29   H     H_    0.558517 0.211801 0.213866 0.258525
H30   H     H_    0.509705 0.177326 0.258589 0.246684
H31   H     H_    0.554572 0.302113 0.272220 0.234685
H32   H     H_    0.456762 0.298929 0.271892 0.234974
H33   H     H_    0.455790 0.344819 0.197705 0.222847
H34   H     H_    0.553782 0.347748 0.197861 0.222931
C103  C     C_3   0.003674 0.852820 0.282251 -0.394562
C104  C     C_3   0.005338 0.794559 0.247974 -0.337027
C105  C     C_3   0.006917 0.718371 0.266836 -0.790586
H35   H     H_    0.056152 0.711336 0.286554 0.258431
H36   H     H_    0.957586 0.708997 0.286149 0.258890
H37   H     H_    0.008208 0.677285 0.241415 0.246681
H38   H     H_    0.956477 0.799387 0.227790 0.234864
H39   H     H_    0.054313 0.801645 0.228106 0.234794
H40   H     H_    0.052752 0.847513 0.302295 0.222657
H41   H     H_    0.954748 0.844999 0.302144 0.223122
C106  C     C_3   0.996525 0.852816 0.717749 -0.394563
C107  C     C_3   0.994941 0.794553 0.752026 -0.337030
C108  C     C_3   0.993464 0.718362 0.733164 -0.790584
H42   H     H_    0.944237 0.711261 0.713446 0.258429
H43   H     H_    0.042806 0.709055 0.713851 0.258893
H44   H     H_    0.992229 0.677275 0.758585 0.246682
H45   H     H_    0.043796 0.799446 0.772210 0.234866
H46   H     H_    0.945957 0.801572 0.771894 0.234794
H47   H     H_    0.947453 0.847442 0.697705 0.222659
H48   H     H_    0.045460 0.845060 0.697855 0.223123

loop_
_geom_bond_atom_site_label_1
_geom_bond_atom_site_label_2
_ccdc_geom_bond_type
Cu6   O34   S    
C59   C95   S    
C15   C75   T    
C100  C101  S    
Cu10  O42   S    
C67   C83   S    
Cu5   Cu6   S    
C39   O13   A    
Cu11  O47   S    
C78   C82   S    
C2    C18   S    
C54   C86   S    
C91   O54   S    
C91   O53   D    
C57   C79   S    
C61   H1    S    
O50   H13   S    
C28   O28   A    
C35   O42   A    
C80   C84   S    
C67   H7    S    
C107  C108  S    
Cu9   Cu10  S    
C60   C88   S    
C30   O32   A    
Cu8   O24   S    
C32   O35   A    
Cu1   O13   S    
C103  C104  S    
Cu12  O40   S    
C8    C66   S    
C4    O12   A    
C27   O25   A    
C40   C70   S    
C63   C81   S    
C58   C94   S    
C14   C74   T    
Cu4   O20   S    
C9    C69   T    
C38   O47   A    
Cu5   O21   S    
C33   O38   A    
Cu4   O12   S    
Cu5   O25   S    
C54   C78   S    
C55   C77   S    
C11   C71   T    
C95   O62   S    
Cu8   O32   S    
C44   O8    A    
C6    C64   S    
C29   O31   A    
C94   O59   D    
C33   O37   A    
C108  H44   S    
C56   C78   S    
C12   C84   S    
C37   O45   A    
C96   O64   S    
C77   C97   S    
C30   O30   A    
Cu5   O26   S    
C57   C93   S    
C59   C67   S    
C46   C47   T    
C31   O34   A    
C103  H40   S    
C58   C66   S    
C7    C87   S    
Cu7   Cu8   S    
C3    O11   A    
C60   C96   S    
C93   O58   S    
Cu3   O10   S    
C55   C63   S    
C101  H31   S    
C24   C38   S    
Cu2   O15   S    
C56   C64   S    
Cu5   O33   S    
Cu12  O8    S    
Cu9   O41   S    
Cu1   Cu3   S    
C18   C22   T    
C25   O21   A    
C61   C81   S    
C58   C80   S    
C41   C71   S    
C99   H23   S    
C5    C85   S    
C44   C52   S    
C94   O60   S    
C98   C99   S    
C12   C72   T    
C40   O14   A    
C90   O52   S    
C92   O55   D    
Cu9   O5    S    
Cu6   O27   S    
C6    H10   S    
C100  H33   S    
C53   C61   S    
C31   C49   S    
C68   H8    S    
C65   H5    S    
C89   O50   S    
C106  H47   S    
C89   O49   D    
Cu1   O1    S    
Cu1   O14   S    
C2    O10   A    
Cu2   Cu4   S    
Cu8   O36   S    
Cu10  O44   S    
C5    C61   S    
O64   H20   S    
C68   C84   S    
C20   C24   T    
Cu4   O19   S    
Cu7   O35   S    
C78   C100  S    
C14   C86   S    
C106  C107  S    
C63   H3    S    
C105  H37   S    
C59   C79   S    
O52   H14   S    
C41   O19   A    
C34   O40   A    
C104  C105  S    
C99   H21   S    
C39   O17   A    
C44   O7    A    
C11   C83   S    
C102  H28   S    
Cu11  O39   S    
C10   C82   S    
C27   O27   A    
C97   H27   S    
C57   C87   S    
C8    C88   S    
C66   C84   S    
C80   C106  S    
C37   O46   A    
C55   C85   S    
C19   C23   T    
C105  H35   S    
C3    O3    A    
O60   H18   S    
C107  H46   S    
C7    C65   S    
C5    C63   S    
C30   C76   S    
C103  H41   S    
Cu12  O48   S    
C56   C86   S    
O56   H16   S    
C77   C81   S    
C49   C52   T    
C29   O29   A    
Cu7   O23   S    
C50   C51   T    
C39   C69   S    
C28   O26   A    
Cu2   O3    S    
Cu6   O22   S    
C3    C19   S    
C25   O22   A    
O54   H15   S    
C64   C82   S    
C92   O56   S    
C43   O5    A    
C29   C75   S    
C10   C70   T    
C13   C73   T    
C8    C68   S    
Cu2   O4    S    
Cu11  O45   S    
Cu3   O9    S    
C53   C77   S    
C33   C47   S    
C98   H25   S    
C100  H34   S    
Cu4   O11   S    
C34   C48   S    
C54   C90   S    
C13   C85   S    
C41   O15   A    
C26   O24   A    
C25   C45   S    
C106  H48   S    
C36   O44   A    
C15   C87   S    
Cu3   O17   S    
Cu10  O38   S    
C45   C48   T    
C64   H4    S    
C40   O18   A    
Cu1   O2    S    
C60   C80   S    
Cu9   O37   S    
C53   C85   S    
C1    O9    A    
C108  H42   S    
C16   C76   T    
C93   O57   D    
C4    O4    A    
C35   O41   A    
C57   C65   S    
C58   C88   S    
Cu3   O18   S    
C34   O39   A    
Cu7   O29   S    
C32   O36   A    
C4    C20   S    
C42   O16   A    
Cu11  O7    S    
C22   C36   S    
C1    C17   S    
C6    C86   S    
Cu11  Cu12  S    
C56   C92   S    
C104  H38   S    
C6    C62   S    
C105  H36   S    
C21   C35   S    
C38   O48   A    
O62   H19   S    
C23   C37   S    
C107  H45   S    
Cu8   O31   S    
C79   C83   S    
C2    O2    A    
C53   C89   S    
C95   O61   D    
C66   H6    S    
C97   H26   S    
C42   O20   A    
C43   C51   S    
C28   C74   S    
Cu10  O6    S    
C108  H43   S    
C8    H12   S    
C7    H11   S    
C32   C50   S    
Cu9   O43   S    
C62   C82   S    
C96   O63   D    
C59   C87   S    
C65   C83   S    
C1    O1    A    
C26   C46   S    
C43   O6    A    
C7    C67   S    
O58   H17   S    
C31   O33   A    
C98   H24   S    
Cu12  O46   S    
C90   O51   D    
C79   C103  S    
C101  C102  S    
C60   C68   S    
Cu7   O30   S    
C97   C98   S    
C26   O23   A    
C101  H32   S    
C16   C88   S    
Cu2   O16   S    
Cu6   O28   S    
C54   C62   S    
C104  H39   S    
C102  H30   S    
C5    H9    S    
C99   H22   S    
C42   C72   S    
C27   C73   S    
C102  H29   S    
C55   C91   S    
C36   O43   A    
C9    C81   S    
C62   H2    S    
C17   C21   T    
