data_mof_unit_pretest_1560.cif
_audit_creation_date              2012-12-10T18:30:45-0500
_audit_creation_method            fapswitch 2.2
_symmetry_space_group_name_H-M    P1
_symmetry_Int_Tables_number       1
_space_group_crystal_system       triclinic
_cell_length_a                    18.26994
_cell_length_b                    18.246697
_cell_length_c                    42.952667
_cell_angle_alpha                 89.999934
_cell_angle_beta                  90.000047
_cell_angle_gamma                 90.00004
_cell_volume                      14318.961338

loop_
_atom_site_label
_atom_site_type_symbol
_atom_type_description
_atom_site_fract_x
_atom_site_fract_y
_atom_site_fract_z
_atom_type_partial_charge
C1    C     C_R   1.000000 0.500000 0.665823 0.498561
C2    C     C_R   0.500000 0.000000 0.131532 0.033578
C3    C     C_3   0.198955 0.698799 0.750774 0.082688
C4    C     C_3   0.301922 0.800159 0.750443 0.077301
C5    C     C_3   0.198959 0.301204 0.249229 0.082684
C6    C     C_3   0.698078 0.199840 0.750443 0.077302
C7    C     C_3   0.801043 0.698797 0.249227 0.082684
C8    C     C_R   0.066287 0.501119 0.884991 -0.134395
C9    C     C_R   0.500616 0.933622 0.115003 -0.133786
C10   C     C_R   0.933713 0.498880 0.884991 -0.134395
C11   C     C_R   0.499384 0.066378 0.115003 -0.133786
C12   C     C_R   0.933713 0.501117 0.115009 -0.134395
C13   C     C_R   1.000000 0.500000 0.131540 0.033532
C14   C     C_R   0.499382 0.933622 0.884997 -0.133787
C15   C     C_R   0.066287 0.498882 0.115009 -0.134394
C16   C     C_R   0.500618 0.066378 0.884997 -0.133787
C17   C     C_R   0.566287 0.001117 0.384991 -0.134393
C18   C     C_R   0.000616 0.433622 0.615003 -0.133786
C19   C     C_R   0.433713 0.998883 0.384991 -0.134393
C20   C     C_R   0.999385 0.566378 0.615003 -0.133784
C21   C     C_R   0.433713 0.001118 0.615009 -0.134394
C22   C     C_R   0.999384 0.433622 0.384997 -0.133785
C23   C     C_R   0.566287 0.998883 0.615009 -0.134393
C24   C     C_R   0.500000 1.000000 0.868468 0.033578
C25   C     C_R   0.000616 0.566378 0.384997 -0.133786
C26   C     C_R   0.066295 0.501105 0.917452 -0.125565
C27   C     C_R   0.500609 0.933613 0.082543 -0.125576
C28   C     C_R   0.933705 0.498894 0.917452 -0.125566
C29   C     C_R   0.499391 0.066387 0.082543 -0.125576
C30   C     C_R   0.933705 0.501103 0.082548 -0.125565
C31   C     C_R   0.499389 0.933613 0.917457 -0.125576
C32   C     C_R   0.066295 0.498897 0.082548 -0.125566
C33   C     C_R   0.500610 0.066387 0.917457 -0.125576
C34   C     C_R   0.566295 0.001103 0.417452 -0.125565
C35   C     C_R   0.500000 0.000000 0.368459 0.033532
C36   C     C_R   0.000610 0.433613 0.582543 -0.125575
C37   C     C_R   0.433705 0.998897 0.417452 -0.125565
C38   C     C_R   0.999392 0.566387 0.582543 -0.125575
C39   C     C_R   0.433705 0.001104 0.582548 -0.125565
C40   C     C_R   0.999392 0.433613 0.417457 -0.125575
C41   C     C_R   0.566295 0.998897 0.582548 -0.125565
C42   C     C_R   0.000609 0.566387 0.417457 -0.125575
C43   C     C_R   1.000000 0.500000 0.934029 0.032777
C44   C     C_R   0.500000 0.000000 0.065966 0.032722
C45   C     C_R   1.000000 0.500000 0.065971 0.032776
C46   C     C_R   0.000000 0.500000 0.631532 0.033578
C47   C     C_R   0.500000 1.000000 0.934033 0.032722
C48   C     C_R   0.500000 0.000000 0.434029 0.032776
C49   C     C_R   0.000001 0.500000 0.565967 0.032722
C50   C     C_R   0.500000 0.000000 0.565971 0.032776
C51   C     C_R   0.000001 0.500000 0.434033 0.032722
C52   C     C_3   0.246647 0.350093 0.696919 -0.406632
C53   C     C_3   0.336923 0.777919 0.309254 -0.410641
C54   C     C_3   0.753270 0.649842 0.696949 -0.406641
C55   C     C_3   0.663054 0.222099 0.309249 -0.410644
C56   C     C_3   0.753298 0.350140 0.303060 -0.406640
C57   C     C_R   0.500000 0.000000 0.631540 0.033532
C58   C     C_3   0.663046 0.777897 0.690752 -0.410650
C59   C     C_3   0.246662 0.649890 0.303074 -0.406636
C60   C     C_3   0.336894 0.222053 0.690738 -0.410642
C61   C     C_3   0.746629 0.850079 0.196913 -0.406631
C62   C     C_3   0.836858 0.277976 0.809271 -0.410637
C63   C     C_3   0.253345 0.149897 0.196923 -0.406636
C64   C     C_3   0.163136 0.722026 0.809270 -0.410641
C65   C     C_3   0.253385 0.850065 0.803093 -0.406629
C66   C     C_3   0.163087 0.277929 0.190743 -0.410641
C67   C     C_3   0.746594 0.149948 0.803099 -0.406628
C68   C     C_R   0.000000 0.500000 0.368468 0.033578
C69   C     C_3   0.836883 0.722045 0.190735 -0.410641
C70   C     C_3   0.099034 0.196154 0.752615 -0.408121
C71   C     C_3   0.212703 0.908448 0.233874 -0.400741
C72   C     C_3   0.900966 0.803867 0.752564 -0.408108
C73   C     C_3   0.787303 0.091541 0.233885 -0.400738
C74   C     C_3   0.900969 0.196142 0.247421 -0.408108
C75   C     C_3   0.787302 0.908464 0.766112 -0.400737
C76   C     C_3   0.099029 0.803845 0.247397 -0.408115
C77   C     C_3   0.212715 0.091561 0.766142 -0.400743
C78   C     C_3   0.599032 0.696160 0.252627 -0.408123
C79   C     C_R   0.500000 0.000000 0.531605 0.345219
C80   C     C_3   0.712728 0.408423 0.733838 -0.400747
C81   C     C_3   0.400971 0.303846 0.252609 -0.408116
C82   C     C_3   0.287273 0.591573 0.733841 -0.400745
C83   C     C_3   0.400962 0.696159 0.747365 -0.408131
C84   C     C_3   0.287293 0.408445 0.266132 -0.400741
C85   C     C_3   0.599034 0.303835 0.747353 -0.408131
C86   C     C_3   0.712717 0.591566 0.266147 -0.400744
C87   C     C_R   0.000001 0.500000 0.468396 0.345282
C88   C     C_R   0.500000 0.000000 0.468395 0.345219
C89   C     C_R   0.500000 0.000000 0.334165 0.495882
C90   C     C_R   0.000001 0.500000 0.531604 0.345282
C91   C     C_R   1.000000 0.500000 0.031605 0.345219
C92   C     C_R   0.500000 1.000000 0.968396 0.345282
C93   C     C_R   1.000000 0.499999 0.968395 0.345219
C94   C     C_R   0.500000 0.000000 0.031603 0.345282
C95   C     C_R   0.140503 0.641873 0.750439 0.502980
C96   C     C_R   0.640630 0.858169 0.250268 0.497189
C97   C     C_R   0.859497 0.358127 0.750439 0.502975
C98   C     C_R   0.359371 0.141832 0.250269 0.497192
C99   C     C_R   0.859495 0.641871 0.249562 0.502977
C100  C     C_R   0.000000 0.500000 0.334176 0.498560
C101  C     C_R   0.359369 0.858170 0.749732 0.497189
C102  C     C_R   0.140507 0.358131 0.249563 0.502978
C103  C     C_R   0.640631 0.141829 0.749732 0.497187
C104  C     C_R   0.640509 0.141867 0.250435 0.502982
C105  C     C_R   0.140629 0.358169 0.750269 0.497191
C106  C     C_R   0.359492 0.858131 0.250436 0.502977
C107  C     C_R   0.859374 0.641834 0.750270 0.497196
C108  C     C_R   0.359494 0.141871 0.749562 0.502979
C109  C     C_R   0.859373 0.358166 0.249730 0.497194
C110  C     C_R   0.640510 0.858133 0.749565 0.502986
C111  C     C_R   0.500000 0.000000 0.665835 0.495883
C112  C     C_R   0.140628 0.641832 0.249731 0.497190
C113  C     C_3   0.219674 0.281501 0.715043 -0.080083
C114  C     C_3   0.274221 0.784985 0.285016 -0.081505
C115  C     C_3   0.780282 0.718456 0.715047 -0.080089
C116  C     C_3   0.725765 0.215030 0.285016 -0.081508
C117  C     C_3   0.780294 0.281532 0.284954 -0.080088
C118  C     C_3   0.725760 0.784964 0.714985 -0.081511
C119  C     C_3   0.219687 0.718488 0.284955 -0.080085
C120  C     C_3   0.274206 0.215001 0.714983 -0.081506
C121  C     C_3   0.719665 0.781492 0.215043 -0.080081
C122  C     C_R   0.500000 0.000000 0.165823 0.498556
C123  C     C_3   0.774185 0.285020 0.785018 -0.081503
C124  C     C_3   0.280318 0.218493 0.215044 -0.080084
C125  C     C_3   0.225811 0.714985 0.785018 -0.081505
C126  C     C_3   0.280344 0.781483 0.784958 -0.080080
C127  C     C_3   0.225784 0.284990 0.214983 -0.081505
C128  C     C_3   0.719647 0.218526 0.784959 -0.080078
C129  C     C_3   0.774199 0.714994 0.214983 -0.081505
C130  C     C_3   0.267858 0.327311 0.767008 -0.249648
C131  C     C_3   0.330289 0.728499 0.236366 -0.255237
C132  C     C_3   0.732170 0.672718 0.767035 -0.249651
C133  C     C_R   0.000000 0.500000 0.834165 0.495879
C134  C     C_3   0.669719 0.271492 0.236356 -0.255236
C135  C     C_3   0.732163 0.327289 0.232972 -0.249649
C136  C     C_3   0.669723 0.728511 0.763649 -0.255237
C137  C     C_3   0.267849 0.672698 0.232984 -0.249649
C138  C     C_3   0.330298 0.271510 0.763623 -0.255242
C139  C     C_3   0.767864 0.827317 0.267003 -0.249648
C140  C     C_3   0.830312 0.228476 0.736393 -0.255247
C141  C     C_3   0.232147 0.172694 0.267013 -0.249648
C142  C     C_3   0.169691 0.771521 0.736389 -0.255250
C143  C     C_3   0.232130 0.827324 0.733004 -0.249645
C144  C     C_R   0.500000 1.000000 0.834176 0.498553
C145  C     C_3   0.169707 0.228496 0.263630 -0.255239
C146  C     C_3   0.767876 0.172670 0.733009 -0.249646
C147  C     C_3   0.830302 0.771514 0.263619 -0.255244
C148  C     C_3   0.169866 0.229274 0.766812 -0.106344
C149  C     C_3   0.234689 0.826853 0.230004 -0.104146
C150  C     C_3   0.830162 0.770755 0.766791 -0.106337
C151  C     C_3   0.765323 0.173136 0.230010 -0.104149
C152  C     C_3   0.830155 0.229253 0.233203 -0.106338
C153  C     C_3   0.765328 0.826869 0.769987 -0.104151
C154  C     C_3   0.169857 0.770733 0.233193 -0.106342
C155  C     C_R   1.000000 0.500000 0.165835 0.495880
C156  C     C_3   0.234701 0.173158 0.770002 -0.104144
C157  C     C_3   0.669872 0.729280 0.266817 -0.106345
C158  C     C_3   0.734719 0.326824 0.729988 -0.104142
C159  C     C_3   0.330139 0.270731 0.266809 -0.106341
C160  C     C_3   0.265285 0.673172 0.729990 -0.104141
C161  C     C_3   0.330121 0.729286 0.733179 -0.106348
C162  C     C_3   0.265307 0.326849 0.269998 -0.104146
C163  C     C_3   0.669884 0.270708 0.733174 -0.106348
C164  C     C_3   0.734706 0.673163 0.270005 -0.104143
C165  C     C_3   0.198076 0.300157 0.749558 0.077300
C166  C     C_R   1.000000 0.500000 0.868460 0.033532
C167  C     C_3   0.301040 0.801205 0.250770 0.082682
C168  C     C_3   0.801928 0.699847 0.749561 0.077298
C169  C     C_3   0.698962 0.198793 0.250769 0.082685
C170  C     C_3   0.801928 0.300154 0.250440 0.077300
C171  C     C_3   0.698962 0.801207 0.749231 0.082687
C172  C     C_3   0.198074 0.699844 0.250441 0.077302
C173  C     C_3   0.301042 0.198797 0.749228 0.082685
C174  C     C_3   0.698076 0.800158 0.249558 0.077302
C175  C     C_3   0.801045 0.301200 0.750774 0.082684
C176  C     C_3   0.301925 0.199844 0.249559 0.077301
H1    H     H_    0.169696 0.263594 0.702370 0.140198
H2    H     H_    0.742357 0.333691 0.792775 0.133825
H3    H     H_    0.313928 0.768044 0.332790 0.125340
H4    H     H_    0.375389 0.733116 0.303276 0.124040
H5    H     H_    0.368967 0.829190 0.311323 0.158348
H6    H     H_    0.792179 0.603514 0.699299 0.136342
H7    H     H_    0.698906 0.631113 0.705209 0.128914
H8    H     H_    0.749855 0.661743 0.671664 0.126833
H9    H     H_    0.686038 0.231993 0.332784 0.125340
H10   H     H_    0.624581 0.266891 0.303263 0.124042
H11   H     H_    0.631020 0.170822 0.311321 0.158341
H12   H     H_    0.749890 0.338226 0.328344 0.126834
H13   H     H_    0.330294 0.236400 0.202369 0.140194
H14   H     H_    0.792213 0.396464 0.300712 0.136355
H15   H     H_    0.698934 0.368882 0.294804 0.128911
H16   H     H_    0.631022 0.829179 0.688678 0.158344
H17   H     H_    0.686027 0.767992 0.667217 0.125340
H18   H     H_    0.624567 0.733114 0.696742 0.124043
H19   H     H_    0.250056 0.661822 0.328356 0.126834
H20   H     H_    0.207742 0.603569 0.300728 0.136371
H21   H     H_    0.301028 0.631134 0.294826 0.128906
H22   H     H_    0.368931 0.170778 0.688669 0.158364
H23   H     H_    0.313886 0.231922 0.667204 0.125336
H24   H     H_    0.257643 0.666317 0.792776 0.133823
H25   H     H_    0.375368 0.266854 0.696709 0.124040
H26   H     H_    0.707713 0.896403 0.199260 0.136380
H27   H     H_    0.801002 0.868839 0.205152 0.128903
H28   H     H_    0.750004 0.838132 0.171632 0.126837
H29   H     H_    0.813835 0.268129 0.832803 0.125334
H30   H     H_    0.875328 0.233164 0.803310 0.124039
H31   H     H_    0.868903 0.329246 0.811337 0.158375
H32   H     H_    0.292263 0.103575 0.199270 0.136373
H33   H     H_    0.198977 0.131141 0.205169 0.128905
H34   H     H_    0.249956 0.161833 0.171641 0.126836
H35   H     H_    0.330329 0.763567 0.797624 0.140202
H36   H     H_    0.186158 0.731881 0.832802 0.125334
H37   H     H_    0.124661 0.766832 0.803307 0.124041
H38   H     H_    0.131098 0.670752 0.811338 0.158378
H39   H     H_    0.250019 0.838111 0.828374 0.126836
H40   H     H_    0.292298 0.896390 0.800746 0.136384
H41   H     H_    0.199008 0.868825 0.794859 0.128904
H42   H     H_    0.131046 0.329201 0.188674 0.158353
H43   H     H_    0.186086 0.268056 0.167208 0.125337
H44   H     H_    0.124619 0.233126 0.196719 0.124042
H45   H     H_    0.749953 0.161912 0.828380 0.126837
H46   H     H_    0.257609 0.333652 0.207213 0.133824
H47   H     H_    0.707677 0.103625 0.800754 0.136393
H48   H     H_    0.800971 0.131180 0.794870 0.128901
H49   H     H_    0.868924 0.670772 0.188667 0.158367
H50   H     H_    0.813870 0.731905 0.167202 0.125336
H51   H     H_    0.875354 0.766851 0.196703 0.124041
H52   H     H_    0.077993 0.151027 0.767373 0.115018
H53   H     H_    0.053719 0.236311 0.752210 0.160360
H54   H     H_    0.108285 0.174769 0.728781 0.128593
H55   H     H_    0.258476 0.945266 0.227271 0.142602
H56   H     H_    0.167699 0.922686 0.217632 0.114095
H57   H     H_    0.669659 0.236451 0.797620 0.140201
H58   H     H_    0.195876 0.920999 0.258103 0.143582
H59   H     H_    0.922023 0.849019 0.767304 0.115008
H60   H     H_    0.946288 0.763718 0.752156 0.160396
H61   H     H_    0.891672 0.825215 0.728727 0.128588
H62   H     H_    0.741532 0.054724 0.227278 0.142602
H63   H     H_    0.832314 0.077299 0.217648 0.114087
H64   H     H_    0.804115 0.078993 0.258116 0.143597
H65   H     H_    0.922022 0.150996 0.232677 0.115009
H66   H     H_    0.946289 0.236294 0.247826 0.160386
H67   H     H_    0.891692 0.174786 0.271258 0.128592
H68   H     H_    0.742371 0.666328 0.207219 0.133824
H69   H     H_    0.741532 0.945279 0.772721 0.142599
H70   H     H_    0.832320 0.922708 0.782346 0.114084
H71   H     H_    0.804105 0.921014 0.741879 0.143609
H72   H     H_    0.077984 0.848979 0.232643 0.115013
H73   H     H_    0.053715 0.763687 0.247800 0.160372
H74   H     H_    0.108287 0.825218 0.271232 0.128598
H75   H     H_    0.258493 0.054747 0.772744 0.142594
H76   H     H_    0.167720 0.077331 0.782389 0.114099
H77   H     H_    0.195876 0.078995 0.741916 0.143578
H78   H     H_    0.577995 0.651038 0.267390 0.115019
H79   H     H_    0.286254 0.381613 0.758238 0.130052
H80   H     H_    0.553720 0.736321 0.252224 0.160353
H81   H     H_    0.608271 0.674768 0.228794 0.128596
H82   H     H_    0.758510 0.445234 0.727241 0.142591
H83   H     H_    0.667747 0.422644 0.717582 0.114113
H84   H     H_    0.695866 0.420998 0.758060 0.143560
H85   H     H_    0.422014 0.348978 0.267364 0.115014
H86   H     H_    0.446285 0.263688 0.252206 0.160365
H87   H     H_    0.391718 0.325223 0.228774 0.128597
H88   H     H_    0.241491 0.554762 0.727242 0.142588
H89   H     H_    0.332258 0.577350 0.717588 0.114108
H90   H     H_    0.374638 0.705071 0.251001 0.118575
H91   H     H_    0.304127 0.578995 0.758065 0.143567
H92   H     H_    0.421997 0.651043 0.732599 0.115023
H93   H     H_    0.446275 0.736320 0.747771 0.160350
H94   H     H_    0.391725 0.674756 0.771197 0.128591
H95   H     H_    0.241518 0.445261 0.272733 0.142601
H96   H     H_    0.332292 0.422680 0.282376 0.114097
H97   H     H_    0.304126 0.421001 0.241904 0.143579
H98   H     H_    0.578003 0.348945 0.732583 0.115023
H99   H     H_    0.553724 0.263671 0.747757 0.160339
H100  H     H_    0.608258 0.325243 0.771184 0.128596
H101  H     H_    0.713763 0.618402 0.758286 0.130092
H102  H     H_    0.758496 0.554751 0.272746 0.142596
H103  H     H_    0.667728 0.577337 0.282397 0.114104
H104  H     H_    0.695869 0.579000 0.241922 0.143568
H105  H     H_    0.242399 0.833646 0.292790 0.133823
H106  H     H_    0.625366 0.294930 0.250986 0.118580
H107  H     H_    0.713757 0.381599 0.241728 0.130078
H108  H     H_    0.625372 0.705067 0.749020 0.118585
H109  H     H_    0.286251 0.618395 0.241749 0.130059
H110  H     H_    0.374638 0.294934 0.748981 0.118564
H111  H     H_    0.786258 0.881615 0.258229 0.130041
H112  H     H_    0.874644 0.205066 0.751042 0.118548
H113  H     H_    0.213747 0.118392 0.258245 0.130054
H114  H     H_    0.125360 0.794936 0.751037 0.118546
H115  H     H_    0.213739 0.881620 0.741781 0.130035
H116  H     H_    0.830244 0.736337 0.702355 0.140193
H117  H     H_    0.125361 0.205070 0.248993 0.118566
H118  H     H_    0.786265 0.118378 0.741792 0.130024
H119  H     H_    0.874640 0.794933 0.248975 0.118557
H120  H     H_    0.154193 0.245965 0.790876 0.114325
H121  H     H_    0.253607 0.823528 0.205352 0.119524
H122  H     H_    0.845878 0.754096 0.790853 0.114304
H123  H     H_    0.746418 0.176456 0.205357 0.119518
H124  H     H_    0.845857 0.245920 0.209140 0.114309
H125  H     H_    0.746429 0.823547 0.794642 0.119516
H126  H     H_    0.154177 0.754051 0.209129 0.114318
H127  H     H_    0.757589 0.166375 0.292795 0.133823
H128  H     H_    0.253630 0.176497 0.794652 0.119534
H129  H     H_    0.654211 0.745978 0.290881 0.114330
H130  H     H_    0.753668 0.323474 0.705342 0.119546
H131  H     H_    0.345816 0.254045 0.290873 0.114322
H132  H     H_    0.246341 0.676523 0.705343 0.119544
H133  H     H_    0.345779 0.745990 0.709115 0.114335
H134  H     H_    0.246384 0.323520 0.294649 0.119527
H135  H     H_    0.654238 0.253997 0.709110 0.114339
H136  H     H_    0.753642 0.676503 0.294654 0.119537
H137  H     H_    0.255248 0.334797 0.792175 0.124051
H138  H     H_    0.830260 0.263640 0.297640 0.140192
H139  H     H_    0.354239 0.738302 0.212902 0.132883
H140  H     H_    0.744814 0.665274 0.792201 0.124030
H141  H     H_    0.645777 0.261678 0.212892 0.132883
H142  H     H_    0.744799 0.334749 0.207806 0.124038
H143  H     H_    0.645781 0.738330 0.787112 0.132887
H144  H     H_    0.255227 0.665218 0.207817 0.124048
H145  H     H_    0.354264 0.261719 0.787085 0.132888
H146  H     H_    0.755260 0.834812 0.292170 0.124055
H147  H     H_    0.854290 0.238250 0.712932 0.132885
H148  H     H_    0.244764 0.165211 0.292179 0.124050
H149  H     H_    0.757588 0.833615 0.707204 0.133821
H150  H     H_    0.145712 0.761744 0.712929 0.132885
H151  H     H_    0.244724 0.834825 0.707836 0.124059
H152  H     H_    0.145752 0.238294 0.287093 0.132882
H153  H     H_    0.755287 0.165158 0.707841 0.124064
H154  H     H_    0.854271 0.761728 0.287080 0.132885
H155  H     H_    0.118258 0.502046 0.872870 0.132518
H156  H     H_    0.501125 0.881580 0.127125 0.132974
H157  H     H_    0.881742 0.497953 0.872869 0.132519
H158  H     H_    0.498875 0.118420 0.127125 0.132974
H159  H     H_    0.881741 0.502042 0.127130 0.132520
H160  H     H_    0.169714 0.736393 0.297633 0.140192
H161  H     H_    0.498872 0.881580 0.872875 0.132974
H162  H     H_    0.118258 0.497957 0.127131 0.132521
H163  H     H_    0.501128 0.118420 0.872875 0.132975
H164  H     H_    0.618258 0.002041 0.372870 0.132522
H165  H     H_    0.001125 0.381580 0.627125 0.132975
H166  H     H_    0.381742 0.997958 0.372869 0.132521
H167  H     H_    0.998876 0.618420 0.627124 0.132975
H168  H     H_    0.381741 0.002043 0.627130 0.132520
H169  H     H_    0.998876 0.381580 0.372875 0.132974
H170  H     H_    0.618258 0.997957 0.627131 0.132522
H171  H     H_    0.242377 0.166338 0.707217 0.133823
H172  H     H_    0.001125 0.618420 0.372875 0.132975
H173  H     H_    0.118330 0.502008 0.929510 0.135534
H174  H     H_    0.501107 0.881506 0.070485 0.135582
H175  H     H_    0.881669 0.497991 0.929510 0.135534
H176  H     H_    0.498893 0.118494 0.070485 0.135582
H177  H     H_    0.881669 0.502004 0.070490 0.135534
H178  H     H_    0.498890 0.881506 0.929515 0.135582
H179  H     H_    0.118330 0.497995 0.070490 0.135534
H180  H     H_    0.501110 0.118494 0.929515 0.135582
H181  H     H_    0.618331 0.002004 0.429510 0.135535
H182  H     H_    0.669683 0.763578 0.202374 0.140199
H183  H     H_    0.001107 0.381506 0.570485 0.135582
H184  H     H_    0.381669 0.997996 0.429510 0.135534
H185  H     H_    0.998894 0.618494 0.570485 0.135582
H186  H     H_    0.381669 0.002005 0.570490 0.135534
H187  H     H_    0.998894 0.381506 0.429515 0.135582
H188  H     H_    0.618330 0.997995 0.570490 0.135535
H189  H     H_    0.001107 0.618494 0.429515 0.135582
H190  H     H_    0.207733 0.396418 0.699267 0.136374
H191  H     H_    0.301019 0.368846 0.705161 0.128907
H192  H     H_    0.250029 0.338154 0.671637 0.126835
N1    N     N_R   0.936093 0.499993 0.984514 -0.233914
N2    N     N_R   0.999998 0.563989 0.515485 -0.233892
N3    N     N_R   0.563907 0.000005 0.484514 -0.233913
N4    N     N_R   0.000004 0.436011 0.515485 -0.233892
N5    N     N_R   0.563907 0.999995 0.515486 -0.233913
N6    N     N_R   0.000003 0.563989 0.484515 -0.233892
N7    N     N_R   0.436093 0.000006 0.515486 -0.233913
N8    N     N_R   0.999998 0.436011 0.484515 -0.233892
N9    N     N_R   0.499998 0.063989 0.015485 -0.233893
N10   N     N_R   0.063907 0.500006 0.984514 -0.233914
N11   N     N_R   0.500001 0.936011 0.015485 -0.233893
N12   N     N_R   0.063907 0.499996 0.015486 -0.233913
N13   N     N_R   0.500004 0.063989 0.984515 -0.233893
N14   N     N_R   0.936093 0.500003 0.015486 -0.233914
N15   N     N_R   0.499996 0.936011 0.984515 -0.233893
N16   N     N_R   0.436093 0.999996 0.484514 -0.233913
O1    O     O_3   1.000000 0.500000 0.750000 -0.422412
O2    O     O_R   0.561290 0.999980 0.680680 -0.551051
O3    O     O_R   0.000020 0.561290 0.319320 -0.548129
O4    O     O_R   0.438710 0.000020 0.680680 -0.551057
O5    O     O_R   0.500020 0.938710 0.180680 -0.548131
O6    O     O_R   0.938710 0.499980 0.819320 -0.551060
O7    O     O_R   0.499980 0.061290 0.180680 -0.548131
O8    O     O_R   0.061290 0.500020 0.819320 -0.551060
O9    O     O_R   0.499980 0.938710 0.819320 -0.548133
O10   O     O_R   0.061290 0.499980 0.180680 -0.551055
O11   O     O_R   0.500020 0.061290 0.819320 -0.548132
O12   O     O_3   0.500000 0.000000 0.250000 -0.422413
O13   O     O_R   0.938710 0.500020 0.180680 -0.551059
O14   O     O_R   0.086240 0.647480 0.731820 -0.557681
O15   O     O_R   0.647480 0.913760 0.268180 -0.554005
O16   O     O_R   0.913760 0.352520 0.731820 -0.557674
O17   O     O_R   0.352520 0.086240 0.268180 -0.554004
O18   O     O_R   0.913760 0.647480 0.268180 -0.557676
O19   O     O_R   0.352520 0.913760 0.731820 -0.554001
O20   O     O_R   0.086240 0.352520 0.268180 -0.557679
O21   O     O_R   0.647480 0.086240 0.731820 -0.554006
O22   O     O_R   0.586240 0.147480 0.231820 -0.557676
O23   O     O_3   0.000000 0.500000 0.250000 -0.422412
O24   O     O_R   0.147480 0.413760 0.768180 -0.553999
O25   O     O_R   0.413760 0.852520 0.231820 -0.557673
O26   O     O_R   0.852520 0.586240 0.768180 -0.553999
O27   O     O_R   0.413760 0.147480 0.768180 -0.557670
O28   O     O_R   0.852520 0.413760 0.231820 -0.554001
O29   O     O_R   0.586240 0.852520 0.768180 -0.557673
O30   O     O_R   0.147480 0.586240 0.231820 -0.554003
O31   O     O_R   0.852520 0.413810 0.768170 -0.556597
O32   O     O_R   0.413810 0.147480 0.231830 -0.558227
O33   O     O_R   0.147480 0.586190 0.768170 -0.556596
O34   O     O_3   0.500000 0.000000 0.750000 -0.422413
O35   O     O_R   0.586190 0.852520 0.231830 -0.558226
O36   O     O_R   0.147480 0.413810 0.231830 -0.556594
O37   O     O_R   0.586190 0.147480 0.768170 -0.558226
O38   O     O_R   0.852520 0.586190 0.231830 -0.556596
O39   O     O_R   0.413810 0.852520 0.768170 -0.558226
O40   O     O_R   0.352520 0.913810 0.268170 -0.556594
O41   O     O_R   0.913810 0.647480 0.731830 -0.558231
O42   O     O_R   0.647480 0.086190 0.268170 -0.556592
O43   O     O_R   0.086190 0.352520 0.731830 -0.558229
O44   O     O_R   0.647480 0.913810 0.731830 -0.556592
O45   O     O_R   0.000020 0.438710 0.680680 -0.548129
O46   O     O_R   0.086190 0.647480 0.268170 -0.558229
O47   O     O_R   0.352520 0.086190 0.731830 -0.556596
O48   O     O_R   0.913810 0.352520 0.268170 -0.558229
O49   O     O_R   0.438710 0.999980 0.319320 -0.551054
O50   O     O_R   0.999980 0.561290 0.680680 -0.548126
O51   O     O_R   0.561290 0.000020 0.319320 -0.551052
O52   O     O_R   0.999980 0.438710 0.319320 -0.548128
Zn1   Zn    Zn3+2 0.087550 0.500010 0.775970 0.901191
Zn2   Zn    Zn3+2 0.000010 0.412450 0.724030 0.902867
Zn3   Zn    Zn3+2 0.412450 0.999990 0.275970 0.901193
Zn4   Zn    Zn3+2 0.999990 0.587550 0.724030 0.902866
Zn5   Zn    Zn3+2 0.412450 0.000010 0.724030 0.901193
Zn6   Zn    Zn3+2 0.999990 0.412450 0.275970 0.902864
Zn7   Zn    Zn3+2 0.587550 0.999990 0.724030 0.901192
Zn8   Zn    Zn3+2 0.000010 0.587550 0.275970 0.902863
Zn9   Zn    Zn3+2 0.500010 0.912450 0.224030 0.902862
Zn10  Zn    Zn3+2 0.912450 0.499990 0.775970 0.901192
Zn11  Zn    Zn3+2 0.499990 0.087550 0.224030 0.902862
Zn12  Zn    Zn3+2 0.912450 0.500010 0.224030 0.901192
Zn13  Zn    Zn3+2 0.499990 0.912450 0.775970 0.902862
Zn14  Zn    Zn3+2 0.087550 0.499990 0.224030 0.901192
Zn15  Zn    Zn3+2 0.500010 0.087550 0.775970 0.902862
Zn16  Zn    Zn3+2 0.587550 0.000010 0.275970 0.901192

loop_
_geom_bond_atom_site_label_1
_geom_bond_atom_site_label_2
_ccdc_geom_bond_type
C113  H1    S    
C97   O16   A    
C8    C26   A    
C32   C45   A    
C41   C50   A    
O43   Zn2   S    
C76   H74   S    
C50   C79   S    
C75   H71   S    
C15   C32   A    
C93   N1    A    
C52   C113  S    
O13   Zn12  S    
C150  H122  S    
C7    C99   S    
C98   O32   A    
C73   H63   S    
C77   C156  S    
C133  O6    A    
C6    C146  S    
C1    C46   S    
C136  H143  S    
C10   C28   A    
C79   N5    A    
C85   H98   S    
C145  H152  S    
C104  O42   A    
C71   H58   S    
C30   C45   A    
C5    C102  S    
C117  C170  S    
C134  C169  S    
C29   H176  S    
C82   H91   S    
C98   O17   A    
C137  H144  S    
C60   H22   S    
O51   Zn16  S    
C110  C171  S    
C38   H185  S    
C108  C173  S    
C130  H137  S    
C157  H129  S    
C148  C165  S    
C76   H72   S    
C123  H2    S    
C124  H13   S    
O10   Zn14  S    
O9    Zn13  S    
C156  C173  S    
C103  O21   A    
C94   N9    A    
C151  H123  S    
C160  H132  S    
C27   H174  S    
C59   H19   S    
C72   H60   S    
C39   H186  S    
C66   H43   S    
C113  C120  S    
C82   C160  S    
C111  O4    A    
C136  C171  S    
C19   H166  S    
C150  C168  S    
O1    Zn10  S    
C100  O3    A    
O35   Zn9   S    
O30   Zn14  S    
C67   H47   S    
N2    N6    A    
C124  C127  S    
C35   C89   S    
O21   Zn7   S    
C63   H32   S    
C29   C44   A    
C58   H16   S    
C33   C47   A    
C34   C48   A    
C17   C34   A    
C63   H34   S    
C130  C138  S    
C12   H159  S    
C101  O39   A    
O1    Zn1   S    
C102  O20   A    
C70   H52   S    
C79   N7    A    
C133  O8    A    
C72   H59   S    
C135  H142  S    
O48   Zn6   S    
C58   H17   S    
C144  O9    A    
C23   C41   A    
C85   H100  S    
O6    Zn10  S    
C19   C35   A    
C133  C166  S    
C65   H41   S    
C130  C165  S    
C132  H140  S    
C57   C111  S    
C118  C171  S    
C10   H157  S    
C162  H134  S    
C82   H89   S    
O38   Zn12  S    
C136  H108  S    
C44   C94   S    
C74   H66   S    
C6    C163  S    
C69   C129  S    
C64   C125  S    
C115  H116  S    
C71   H55   S    
C54   H7    S    
C64   H36   S    
C3    C95   S    
O44   Zn7   S    
C52   H191  S    
C62   H30   S    
C8    H155  S    
O50   Zn4   S    
O14   Zn4   S    
C81   H85   S    
C97   C175  S    
C11   H158  S    
C56   C117  S    
C14   C31   A    
C69   H50   S    
C63   C124  S    
C146  H118  S    
C23   H170  S    
C114  C167  S    
C112  C172  S    
O19   Zn5   S    
C41   H188  S    
C65   H39   S    
C126  H35   S    
C55   C116  S    
C61   C121  S    
C135  C170  S    
C14   C24   A    
C67   H45   S    
C105  O24   A    
O46   Zn8   S    
C27   C44   A    
C78   H81   S    
C141  H148  S    
O8    Zn1   S    
C72   H61   S    
C86   H104  S    
C19   C37   A    
C114  C119  S    
C10   C166  A    
C157  C174  S    
C33   H180  S    
O3    Zn8   S    
C131  C167  S    
C96   O15   A    
C45   C91   S    
C2    C11   A    
C53   H3    S    
C134  H141  S    
C7    C147  S    
O23   Zn8   S    
C56   H14   S    
C122  O7    A    
C144  O11   A    
C5    C145  S    
C64   H37   S    
C77   H77   S    
C80   H83   S    
C70   C148  S    
C83   H94   S    
C68   C100  S    
C91   N14   A    
C61   H26   S    
C75   C153  S    
C80   C158  S    
C139  H146  S    
C132  C136  S    
C158  H130  S    
C77   H76   S    
O12   Zn16  S    
C157  C164  S    
C75   H70   S    
O52   Zn6   S    
C158  C163  S    
C120  H171  S    
O28   Zn12  S    
C42   H189  S    
C81   H87   S    
C72   C150  S    
C159  C176  S    
C82   H88   S    
C128  H57   S    
C23   C57   A    
C84   H95   S    
C4    C161  S    
C156  H128  S    
O32   Zn11  S    
C123  C175  S    
C96   O35   A    
C134  C135  S    
C164  H136  S    
C129  H68   S    
C89   O49   A    
C40   C51   A    
C148  C156  S    
C151  C169  S    
C4    C126  S    
C99   O38   A    
C106  C167  S    
C26   H173  S    
C13   C15   A    
C70   H53   S    
C6    C128  S    
C73   H62   S    
C67   C128  S    
C130  H79   S    
C88   N3    A    
C149  H121  S    
O15   Zn16  S    
C76   C154  S    
C146  H153  S    
C86   H102  S    
C56   H15   S    
C18   H165  S    
C153  H125  S    
C158  C175  S    
C12   C13   A    
C139  C174  S    
C115  C168  S    
C2    C9    A    
C147  H154  S    
C20   C46   A    
C159  H131  S    
C106  O40   A    
C142  H114  S    
O23   Zn6   S    
C108  O47   A    
C122  O5    A    
C111  O2    A    
C149  C167  S    
C52   H190  S    
C49   C90   S    
C116  H127  S    
O5    Zn9   S    
C38   C49   A    
O25   Zn9   S    
C134  H106  S    
C110  O29   A    
C96   C174  S    
O29   Zn13  S    
O23   Zn14  S    
C83   H92   S    
C99   O18   A    
C91   N12   A    
C61   H28   S    
C113  C165  S    
O34   Zn7   S    
C155  O10   A    
O20   Zn6   S    
O37   Zn15  S    
C47   C92   S    
C55   H10   S    
C137  C172  S    
C66   H44   S    
C127  H46   S    
C118  H149  S    
C125  H24   S    
C150  C153  S    
O34   Zn15  S    
C141  C176  S    
C151  C152  S    
C48   C88   S    
C20   H167  S    
C32   H179  S    
N7    N16   A    
C89   O51   A    
C87   N8    A    
C88   N16   A    
C31   C47   A    
C84   H97   S    
O39   Zn13  S    
O31   Zn10  S    
C25   C68   A    
C63   H33   S    
C76   H73   S    
C18   C46   A    
O11   Zn15  S    
O16   Zn2   S    
C2    C122  S    
C107  O26   A    
O12   Zn3   S    
C135  H107  S    
C95   O14   A    
C64   H38   S    
C140  C146  S    
N1    N14   A    
C58   H18   S    
C85   H99   S    
C149  C154  S    
O41   Zn4   S    
N9    N13   A    
C131  C137  S    
C94   N11   A    
C98   C176  S    
C114  H105  S    
N11   N15   A    
C121  C174  S    
O40   Zn3   S    
C54   C115  S    
C5    C127  S    
C138  C173  S    
C159  C162  S    
C139  H111  S    
C6    C103  S    
C140  H112  S    
C142  H150  S    
C30   H177  S    
C22   C68   A    
C112  O30   A    
C73   H64   S    
C124  C176  S    
C74   H67   S    
C97   O31   A    
O23   Zn12  S    
C155  O13   A    
O45   Zn2   S    
C95   O33   A    
C125  C126  S    
C85   C163  S    
C140  H147  S    
C54   H8    S    
C86   C164  S    
C52   H192  S    
N10   N12   A    
C62   H31   S    
C84   C162  S    
C53   C114  S    
C9    C27   A    
C104  O22   A    
C109  O28   A    
C107  C168  S    
C59   C119  S    
C119  H160  S    
C12   C30   A    
C121  C129  S    
C69   H49   S    
C25   C42   A    
O34   Zn5   S    
C90   N4    A    
C59   H20   S    
C7    C164  S    
O17   Zn3   S    
C28   C43   A    
O27   Zn15  S    
C78   H80   S    
C5    C162  S    
C66   H42   S    
C65   C126  S    
O42   Zn16  S    
C71   C149  S    
C147  H119  S    
C24   C144  S    
C140  C175  S    
O34   Zn13  S    
C141  C145  S    
C43   C93   S    
C105  C165  S    
C60   C120  S    
O33   Zn1   S    
C67   H48   S    
C152  H124  S    
C7    C129  S    
N4    N8    A    
C60   H25   S    
C87   N6    A    
C138  H145  S    
C142  C143  S    
C121  H182  S    
C17   C35   A    
C18   C36   A    
C36   C49   A    
O1    Zn2   S    
C81   C159  S    
C143  H151  S    
C1    O50   A    
C3    C142  S    
C106  O25   A    
C4    C143  S    
C131  H90   S    
C116  C117  S    
C132  H101  S    
C139  C147  S    
C1    O45   A    
C40   H187  S    
O18   Zn8   S    
C103  O37   A    
O36   Zn14  S    
C154  H126  S    
C100  O52   A    
C92   N15   A    
C58   C118  S    
C152  C170  S    
C66   C127  S    
C107  O41   A    
C83   H93   S    
C101  O19   A    
C25   H172  S    
C105  O43   A    
C60   H23   S    
O22   Zn11  S    
C74   H65   S    
C13   C155  S    
C56   H12   S    
N3    N5    A    
C131  H139  S    
C37   H184  S    
C71   H56   S    
C54   H6    S    
C77   H75   S    
C55   H11   S    
C62   H29   S    
C75   H69   S    
C42   C51   A    
C16   H163  S    
C17   H164  S    
C115  C118  S    
O26   Zn10  S    
C81   H86   S    
C16   C24   A    
C4    C101  S    
O12   Zn9   S    
C74   C152  S    
C108  O27   A    
C69   H51   S    
C62   C123  S    
C22   H169  S    
C26   C43   A    
C117  H138  S    
C90   N2    A    
C148  H120  S    
C109  O48   A    
C84   H96   S    
C78   H78   S    
C65   H40   S    
C102  O36   A    
C51   C87   S    
O2    Zn7   S    
C14   H161  S    
O49   Zn3   S    
C110  O44   A    
C112  O46   A    
C70   H54   S    
C21   C57   A    
C53   H5    S    
C16   C33   A    
O47   Zn5   S    
C20   C38   A    
C78   C157  S    
C21   C39   A    
C137  H109  S    
C22   C40   A    
C153  C171  S    
C154  C172  S    
C86   H103  S    
C37   C48   A    
O7    Zn11  S    
C8    C166  A    
C36   H183  S    
C80   H84   S    
C143  H115  S    
O1    Zn4   S    
C28   H175  S    
C161  H133  S    
C3    C160  S    
C53   H4    S    
C109  C170  S    
C31   H178  S    
C132  C168  S    
O4    Zn5   S    
C3    C125  S    
C141  H113  S    
C9    H156  S    
C138  H110  S    
C160  C161  S    
O24   Zn1   S    
C21   H168  S    
C145  H117  S    
C61   H27   S    
C123  C128  S    
C59   H21   S    
C116  C169  S    
C15   H162  S    
C55   H9    S    
C83   C161  S    
C119  C172  S    
C34   H181  S    
C120  C173  S    
C39   C50   A    
C80   H82   S    
C93   N10   A    
C11   C29   A    
O12   Zn11  S    
C163  H135  S    
C92   N13   A    
C73   C151  S    
C104  C169  S    
