data_mof_unit_pretest_1271.cif
_audit_creation_date              2012-12-10T17:49:37-0500
_audit_creation_method            fapswitch 2.2
_symmetry_space_group_name_H-M    P1
_symmetry_Int_Tables_number       1
_space_group_crystal_system       triclinic
_cell_length_a                    14.694265
_cell_length_b                    14.717449
_cell_length_c                    15.869831
_cell_angle_alpha                 76.957828
_cell_angle_beta                  102.743494
_cell_angle_gamma                 114.848565
_cell_volume                      3003.11817771

loop_
_atom_site_label
_atom_site_type_symbol
_atom_type_description
_atom_site_fract_x
_atom_site_fract_y
_atom_site_fract_z
_atom_type_partial_charge
C1    C     C_R   0.880030 0.312186 0.512777 0.836109
C2    C     C_3   0.065484 0.443786 0.073505 -0.374062
C3    C     C_3   0.999311 0.498722 0.082916 0.330038
C4    C     C_3   0.042104 0.608890 0.034885 -0.378971
C5    C     C_3   0.041698 0.609229 0.937090 -0.374746
C6    C     C_1   0.999784 0.498579 0.175224 -0.116670
C7    C     C_1   0.998474 0.499624 0.824825 -0.116608
C8    C     C_1   0.998786 0.499854 0.749245 -0.177846
C9    C     C_R   0.811792 0.204180 0.520997 -0.193445
C10   C     C_R   0.187817 0.794461 0.486597 -0.051488
C11   C     C_R   0.787133 0.025935 0.559681 0.453131
C12   C     C_R   0.999633 0.499958 0.659681 0.829070
C13   C     C_R   0.851465 0.129211 0.548538 -0.384601
C14   C     C_R   0.706260 0.175891 0.501128 0.378149
C15   C     C_R   0.640669 0.074569 0.524952 -0.095278
C16   C     C_R   0.681293 0.998842 0.546355 0.012420
C17   C     C_R   0.535080 0.046310 0.523237 0.093449
C18   C     C_R   0.468559 0.943438 0.522377 0.063219
C19   C     C_R   0.510872 0.869638 0.539049 -0.246217
C20   C     C_R   0.615138 0.896883 0.553610 -0.157279
C21   C     C_R   0.494896 0.116994 0.527440 -0.183172
C22   C     C_R   0.391203 0.090470 0.518989 -0.273122
C23   C     C_R   0.119746 0.687626 0.486532 0.794225
C24   C     C_R   0.324157 0.992357 0.506966 0.165399
C25   C     C_R   0.362124 0.917853 0.508215 0.085989
C26   C     C_R   0.219326 0.967306 0.495435 -0.202315
C27   C     C_R   0.151447 0.868580 0.486126 -0.195881
C28   C     C_R   0.292125 0.820373 0.494526 -0.249018
C29   C     C_R   0.718489 0.672537 0.359522 -0.310199
C30   C     C_R   0.798899 0.641327 0.380767 0.066410
C31   C     C_R   0.713596 0.507465 0.486570 0.036137
C32   C     C_R   0.628588 0.534857 0.467617 -0.027994
C33   C     C_R   0.633564 0.620236 0.403140 0.165862
C34   C     C_R   0.000088 0.499658 0.340347 0.814818
C35   C     C_R   0.540311 0.482057 0.510611 0.082105
C36   C     C_R   0.459354 0.517235 0.489081 0.075217
C37   C     C_R   0.469510 0.604000 0.425516 -0.241685
C38   C     C_R   0.554499 0.653696 0.383184 -0.192525
C39   C     C_R   0.530095 0.395222 0.574091 -0.232498
C40   C     C_R   0.444764 0.345072 0.615976 -0.217533
C41   C     C_R   0.365725 0.378591 0.596067 0.168834
C42   C     C_R   0.371080 0.464460 0.532071 -0.021927
C43   C     C_R   0.280503 0.325968 0.639295 -0.324820
C44   C     C_R   0.200489 0.357776 0.618522 0.078952
C45   C     C_3   0.065107 0.444134 0.975711 -0.377385
C46   C     C_R   0.286411 0.492366 0.513506 0.007379
C47   C     C_3   0.889505 0.444151 0.940545 -0.373883
C48   C     C_3   0.889903 0.443819 0.038358 -0.381391
C49   C     C_1   0.000161 0.498895 0.250822 -0.177750
C50   C     C_3   0.998645 0.499289 0.917118 0.328336
Cu1   Cu    Cu3+1 0.081750 0.475690 0.522550 0.931257
Cu2   Cu    Cu3+1 0.918250 0.524310 0.477450 0.938399
H1    H     H_    0.036130 0.364258 0.107386 0.162366
H2    H     H_    0.144112 0.482436 0.960239 0.163723
H3    H     H_    0.144663 0.481912 0.104948 0.162961
H4    H     H_    0.995693 0.650040 0.040587 0.160668
H5    H     H_    0.643584 0.837140 0.569255 0.187962
H6    H     H_    0.317065 0.763077 0.489025 0.144035
H7    H     H_    0.070950 0.849898 0.480235 0.152625
H8    H     H_    0.363422 0.147176 0.521743 0.157363
H9    H     H_    0.932666 0.151204 0.558531 0.182185
H10   H     H_    0.035612 0.364765 0.962681 0.159870
H11   H     H_    0.465517 0.789445 0.546075 0.145173
H12   H     H_    0.542939 0.192605 0.541119 0.193760
H13   H     H_    0.189934 0.023748 0.495072 0.137124
H14   H     H_    0.558625 0.719688 0.334535 0.139946
H15   H     H_    0.282327 0.554493 0.464145 0.121726
H16   H     H_    0.134021 0.316444 0.650964 0.123265
H17   H     H_    0.440411 0.278767 0.664299 0.140923
H18   H     H_    0.723099 0.737795 0.309900 0.136293
H19   H     H_    0.865124 0.682337 0.347984 0.128341
H20   H     H_    0.717948 0.445686 0.536257 0.140114
H21   H     H_    0.840157 0.482472 0.899383 0.163633
H22   H     H_    0.412951 0.636041 0.406760 0.129539
H23   H     H_    0.586817 0.363403 0.592982 0.133870
H24   H     H_    0.275391 0.260074 0.688290 0.136931
H25   H     H_    0.856832 0.364782 0.926877 0.159866
H26   H     H_    0.857418 0.364286 0.071605 0.164160
H27   H     H_    0.840766 0.482025 0.044085 0.161190
H28   H     H_    0.120270 0.650532 0.920890 0.162612
H29   H     H_    0.995087 0.650525 0.895870 0.160929
H30   H     H_    0.120872 0.650028 0.065597 0.160568
N1    N     N_R   0.795410 0.560790 0.443550 -0.186070
N2    N     N_R   0.204590 0.439170 0.556520 -0.175816
O1    O     O_R   0.977910 0.338120 0.529720 -0.599094
O2    O     O_R   0.839850 0.379180 0.491640 -0.542704
O3    O     O_R   0.069060 0.479460 0.639610 -0.576667
O4    O     O_R   0.931000 0.520530 0.601530 -0.579516
O5    O     O_R   0.160150 0.620820 0.508360 -0.589302
O6    O     O_R   0.022090 0.661880 0.470280 -0.589458
O7    O     O_R   0.069000 0.479470 0.398470 -0.576021
O8    O     O_R   0.930940 0.520540 0.360390 -0.590883
O9    O     O_3   0.824646 0.950103 0.575825 -0.619602
C51   C     C_3   0.906190 0.963856 0.645428 0.055837
H31   H     H_    0.887313 0.892383 0.692581 0.157165
H32   H     H_    0.919160 0.024403 0.683533 0.122635
C52   C     C_3   0.002972 0.982967 0.610569 -0.330273
H33   H     H_    0.991543 0.916181 0.581649 0.224235
H34   H     H_    0.019843 0.049809 0.558391 0.212442
C53   C     C_3   0.093546 0.001409 0.682996 -0.943480
H35   H     H_    0.107991 0.069558 0.711257 0.248669
H36   H     H_    0.162082 0.014064 0.655815 0.259931
H37   H     H_    0.079302 0.934727 0.735380 0.257254
O10   O     O_3   0.667934 0.246836 0.453843 -0.615986
C54   C     C_3   0.637608 0.232279 0.365007 0.056107
H38   H     H_    0.563273 0.239291 0.343553 0.165835
H39   H     H_    0.626194 0.156003 0.352984 0.127179
C55   C     C_3   0.714679 0.314701 0.309182 -0.288790
H40   H     H_    0.724361 0.390406 0.320194 0.247970
H41   H     H_    0.788943 0.307305 0.328713 0.202839
C56   C     C_3   0.680730 0.306941 0.212152 -0.964977
H42   H     H_    0.673211 0.232876 0.199106 0.256089
H43   H     H_    0.737964 0.368395 0.173899 0.257676
H44   H     H_    0.606944 0.315059 0.190541 0.258457

loop_
_geom_bond_atom_site_label_1
_geom_bond_atom_site_label_2
_ccdc_geom_bond_type
C10   C27   A    
C37   H22   S    
O9    C51   S    
C41   C42   A    
C3    C48   S    
Cu2   O6    S    
C19   C20   A    
C9    C14   A    
C3    C6    S    
Cu1   O1    S    
C30   H19   S    
C7    C8    T    
C25   C28   A    
C54   H39   S    
C26   C27   A    
C37   C38   A    
C48   H27   S    
C36   C37   A    
C24   C26   A    
C2    H3    S    
C22   H8    S    
C15   C16   A    
C29   C33   A    
C45   H10   S    
C1    O2    A    
C31   N1    A    
C55   H40   S    
C18   C19   A    
C42   C46   A    
C48   H26   S    
C30   N1    A    
C9    C13   A    
C34   O7    A    
C21   H12   S    
Cu1   O7    S    
C36   C42   A    
C38   H14   S    
C19   H11   S    
C47   C48   S    
C23   O5    A    
C39   H23   S    
C12   O3    A    
C16   C20   A    
C11   O9    S    
C21   C22   A    
C4    H4    S    
C41   C43   A    
C18   C25   A    
O10   C54   S    
C52   H34   S    
C52   H33   S    
C47   C50   S    
C2    C45   S    
C1    O1    A    
C54   C55   S    
C40   H17   S    
C12   O4    A    
Cu1   Cu2   S    
C32   C35   A    
Cu2   O4    S    
C1    C9    S    
C24   C25   A    
C47   H21   S    
Cu1   O3    S    
C39   C40   A    
C51   C52   S    
C53   H37   S    
C17   C21   A    
C35   C36   A    
Cu2   N1    S    
C35   C39   A    
C43   C44   A    
C29   C30   A    
C5    H29   S    
C11   C16   A    
C14   O10   S    
C31   C32   A    
C8    C12   S    
C53   H36   S    
C17   C18   A    
C23   O6    A    
C4    H30   S    
C56   H43   S    
C5    H28   S    
C51   H32   S    
C46   N2    A    
C31   H20   S    
C45   H2    S    
C22   C24   A    
C5    C50   S    
C44   H16   S    
C47   H25   S    
C3    C4    S    
C52   C53   S    
C29   H18   S    
C10   C28   A    
C43   H24   S    
C15   C17   A    
C40   C41   A    
C34   C49   S    
C56   H42   S    
C26   H13   S    
C7    C50   S    
C4    C5    S    
C44   N2    A    
C2    H1    S    
C28   H6    S    
C10   C23   S    
C54   H38   S    
C33   C38   A    
C55   C56   S    
C32   C33   A    
Cu2   O2    S    
C2    C3    S    
C46   H15   S    
C27   H7    S    
Cu1   O5    S    
C11   C13   A    
C45   C50   S    
C53   H35   S    
C55   H41   S    
C56   H44   S    
C6    C49   T    
C51   H31   S    
C34   O8    A    
Cu2   O8    S    
C13   H9    S    
C14   C15   A    
C20   H5    S    
Cu1   N2    S    
