data_mof_unit_pretest_188.cif
_audit_creation_date              2013-03-05T15:49:44-0500
_audit_creation_method            fapswitch 2.2
_symmetry_space_group_name_H-M    P1
_symmetry_Int_Tables_number       1
_space_group_crystal_system       triclinic
_cell_length_a                    13.433962
_cell_length_b                    13.505851
_cell_length_c                    27.532377
_cell_angle_alpha                 90.298879
_cell_angle_beta                  89.775966
_cell_angle_gamma                 60.187814
_cell_volume                      4334.12179767

loop_
_atom_site_label
_atom_site_type_symbol
_atom_site_description
_atom_site_fract_x
_atom_site_fract_y
_atom_site_fract_z
_atom_type_partial_charge
O1    O     O_R   0.301780 0.195490 0.553940 -0.501091
O2    O     O_R   0.522450 0.158840 0.550250 -0.494002
C1    C     C_R   0.620458 0.100986 0.569874 0.539431
O3    O     O_R   0.694460 0.003360 0.553820 -0.511026
O4    O     O_R   0.657750 0.819520 0.549120 -0.490055
C2    C     C_R   0.570337 0.830751 0.574100 0.558187
O5    O     O_R   0.501990 0.803120 0.552700 -0.496435
O6    O     O_R   0.318230 0.023430 0.549370 -0.507413
C3    C     C_R   0.277340 0.121560 0.569253 0.541098
O7    O     O_R   0.302950 0.194150 0.446980 -0.519304
O8    O     O_R   0.523540 0.157600 0.451100 -0.503922
C4    C     C_R   0.621526 0.099932 0.431145 0.543299
O9    O     O_R   0.695630 0.002030 0.446860 -0.509651
O10   O     O_R   0.658840 0.818280 0.449970 -0.490714
C5    C     C_R   0.601384 0.777197 0.430459 0.555569
O11   O     O_R   0.503160 0.801780 0.445740 -0.511381
O12   O     O_R   0.319320 0.022190 0.450230 -0.503858
C6    C     C_R   0.280006 0.119846 0.430653 0.543062
Cr1   Cr    Cr6+3 0.417550 0.169090 0.500530 1.026344
Cr2   Cr    Cr6+3 0.669180 0.913420 0.499920 1.037130
Cr3   Cr    Cr6+3 0.413260 0.917540 0.499520 1.029109
O13   O     O_3   0.499990 0.000010 0.499990 -0.272240
C7    C     C_3   0.741378 0.656164 0.739428 -0.099302
C8    C     C_3   0.725133 0.739835 0.781445 -0.100543
H1    H     H_    0.792503 0.755828 0.796424 0.118005
H2    H     H_    0.822000 0.603422 0.718618 0.113482
H3    H     H_    0.583129 0.922591 0.753768 0.097937
C9    C     C_1   0.692286 0.619413 0.901139 0.000251
C10   C     C_1   0.592684 0.798768 0.623963 -0.007689
C11   C     C_3   0.675251 0.609868 0.768952 -0.107282
C12   C     C_3   0.658683 0.693979 0.810211 0.045841
C13   C     C_3   0.560818 0.701050 0.746602 -0.077973
C14   C     C_3   0.627178 0.746876 0.717778 0.044353
C15   C     C_3   0.544412 0.784702 0.788574 -0.081193
C16   C     C_3   0.610468 0.831221 0.758894 -0.116787
C17   C     C_1   0.676766 0.657678 0.860800 -0.041402
C18   C     C_1   0.609085 0.774909 0.666274 -0.052621
H4    H     H_    0.463937 0.837505 0.809451 0.165674
H5    H     H_    0.493281 0.685248 0.731665 0.151295
H6    H     H_    0.702148 0.518333 0.773662 0.103635
C19   C     C_3   0.093300 0.128136 0.737940 -0.091363
C20   C     C_3   0.187003 0.058527 0.775202 0.254379
H7    H     H_    0.034540 0.102721 0.720862 0.120987
H8    H     H_    0.364305 0.012857 0.738501 0.110460
C21   C     C_1   0.099891 0.199416 0.900752 0.016008
C22   C     C_1   0.229150 0.136984 0.616937 -0.008048
C23   C     C_3   0.057152 0.236740 0.769515 -0.145659
C24   C     C_3   0.151406 0.164531 0.806528 0.039779
C25   C     C_3   0.144215 0.260043 0.741949 -0.111287
C26   C     C_3   0.180295 0.151661 0.711311 0.022205
C27   C     C_3   0.238142 0.187780 0.779439 -0.144466
C28   C     C_3   0.275134 0.078968 0.747929 -0.104309
C29   C     C_1   0.128687 0.179063 0.858806 -0.000293
C30   C     C_1   0.201626 0.145105 0.659013 -0.043153
H9    H     H_    0.297538 0.212116 0.796700 0.115707
H10   H     H_    0.967525 0.302163 0.778812 0.106664
C31   C     C_3   0.636475 0.274547 0.738231 -0.101295
C32   C     C_3   0.557413 0.263028 0.776265 -0.098066
H11   H     H_    0.475148 0.333701 0.790612 0.119155
H12   H     H_    0.619695 0.354716 0.720234 0.111297
H13   H     H_    0.501775 0.138072 0.740387 0.100776
C33   C     C_1   0.691474 0.207302 0.901370 0.001098
C34   C     C_1   0.636004 0.132904 0.617757 -0.010426
C35   C     C_3   0.742445 0.197993 0.769686 -0.098787
C36   C     C_3   0.663214 0.186196 0.806868 0.051710
C37   C     C_3   0.757266 0.090375 0.742907 -0.092680
C38   C     C_3   0.651527 0.167077 0.712226 0.048141
C39   C     C_3   0.678301 0.078816 0.780829 -0.098787
C40   C     C_3   0.572274 0.155301 0.749405 -0.107421
C41   C     C_1   0.674624 0.196695 0.859232 -0.044582
C42   C     C_1   0.644504 0.151890 0.659884 -0.052935
H14   H     H_    0.695583 0.998751 0.799051 0.111716
H15   H     H_    0.839599 0.019626 0.728641 0.125407
H16   H     H_    0.812803 0.215488 0.778644 0.107355
C43   C     C_R   0.637407 0.717939 0.384071 -0.013803
C44   C     C_R   0.751731 0.636765 0.374116 -0.108779
C45   C     C_R   0.782132 0.580399 0.328887 0.229981
C46   C     C_R   0.696308 0.611330 0.293069 0.016118
C47   C     C_R   0.582840 0.694974 0.303629 -0.164771
C48   C     C_R   0.553540 0.746238 0.348719 -0.132595
C49   C     C_R   0.643110 0.541236 0.220242 -0.114556
C50   C     C_R   0.645663 0.528537 0.170314 -0.128971
C51   C     C_R   0.813642 0.550714 0.165561 -0.113866
C52   C     C_R   0.807112 0.570243 0.215529 -0.063133
C53   C     C_R   0.720581 0.567133 0.243032 0.073809
C54   C     C_R   0.730131 0.533650 0.142479 0.016661
H17   H     H_    0.815863 0.614753 0.402023 0.154209
H18   H     H_    0.575774 0.538170 0.240815 0.107845
H19   H     H_    0.579549 0.517850 0.153273 0.125565
H20   H     H_    0.881082 0.553334 0.144938 0.151167
H21   H     H_    0.516288 0.723019 0.276444 0.120506
H22   H     H_    0.465147 0.810904 0.355515 0.132732
C55   C     C_R   0.231057 0.136866 0.382077 0.017583
C56   C     C_R   0.238019 0.043712 0.356315 -0.130148
C57   C     C_R   0.221960 0.050160 0.306396 -0.125073
C58   C     C_R   0.195983 0.150803 0.281706 0.039305
C59   C     C_R   0.182943 0.245767 0.307981 -0.050829
C60   C     C_R   0.199945 0.239040 0.357754 -0.080481
C61   C     C_R   0.206372 0.226737 0.200385 -0.107594
C62   C     C_R   0.170214 0.249923 0.152405 -0.115233
C63   C     C_R   0.085897 0.128084 0.159876 -0.115567
C64   C     C_R   0.119154 0.107478 0.207930 -0.099439
C65   C     C_R   0.176569 0.159327 0.229073 0.046744
C66   C     C_R   0.106793 0.203300 0.132424 0.023899
H23   H     H_    0.233580 0.975129 0.287032 0.103589
H24   H     H_    0.093464 0.056541 0.229133 0.116996
H25   H     H_    0.036374 0.091388 0.145445 0.154703
H26   H     H_    0.194216 0.312161 0.376740 0.161360
C67   C     C_R   0.637075 0.138118 0.383397 0.021956
C68   C     C_R   0.539934 0.222647 0.359307 -0.122106
C69   C     C_R   0.544366 0.240089 0.309980 -0.115898
C70   C     C_R   0.646869 0.175788 0.283952 0.041415
C71   C     C_R   0.746784 0.098728 0.308926 -0.105566
C72   C     C_R   0.741643 0.079018 0.358269 -0.116614
C73   C     C_R   0.717134 0.088331 0.202198 -0.106732
C74   C     C_R   0.728874 0.097715 0.152242 0.209158
C75   C     C_R   0.590135 0.300128 0.158095 -0.170700
C76   C     C_R   0.580316 0.290363 0.207830 -0.131768
C77   C     C_R   0.648558 0.185431 0.230699 -0.006752
C78   C     C_R   0.672995 0.207458 0.131047 0.012668
H27   H     H_    0.457631 0.269693 0.377595 0.136423
H28   H     H_    0.761830 0.005012 0.218855 0.145728
H29   H     H_    0.465687 0.299343 0.291942 0.103042
H30   H     H_    0.523538 0.366396 0.228469 0.112845
H31   H     H_    0.538706 0.382272 0.141419 0.128205
H32   H     H_    0.817798 0.014121 0.376113 0.134625
O14   O     O_R   0.819250 0.149410 0.965240 -0.479400
O15   O     O_R   0.006940 0.180310 0.968270 -0.480896
C79   C     C_R   0.050509 0.234782 0.948166 0.544682
O16   O     O_R   0.028420 0.332670 0.963010 -0.508221
O17   O     O_R   0.810130 0.520390 0.966030 -0.486597
C80   C     C_R   0.711506 0.563260 0.946824 0.564249
O18   O     O_R   0.636050 0.541380 0.962520 -0.492749
O19   O     O_R   0.666480 0.323610 0.968170 -0.497291
C81   C     C_R   0.722478 0.224267 0.949132 0.556013
O20   O     O_R   0.817280 0.156800 0.072180 -0.457776
O21   O     O_R   0.005110 0.187160 0.067410 -0.505575
C82   C     C_R   0.048192 0.243284 0.086143 0.530900
O22   O     O_R   0.026450 0.340060 0.069950 -0.523850
O23   O     O_R   0.808300 0.527240 0.065170 -0.489335
C83   C     C_R   0.732563 0.515290 0.089988 0.564382
O24   O     O_R   0.634070 0.548770 0.069460 -0.504343
O25   O     O_R   0.664650 0.330470 0.067300 -0.534708
C84   C     C_R   0.717269 0.230751 0.086115 0.557587
Cr4   Cr    Cr6+3 0.909770 0.175810 0.018240 1.086741
Cr5   Cr    Cr6+3 0.913300 0.427650 0.016090 1.047459
Cr6   Cr    Cr6+3 0.657770 0.431010 0.016900 1.036422
O26   O     O_3   0.826940 0.344820 0.017080 -0.288898
H33   H     H_    0.125930 0.343985 0.727505 0.123551
N1    N     N_R   0.898107 0.490925 0.320638 0.059257
O27   O     O_R   0.919026 0.400457 0.295650 -0.352112
O28   O     O_R   0.982139 0.493377 0.342882 -0.391923
H34   H     H_    0.866378 0.592323 0.232262 0.147670
H35   H     H_    0.262723 0.963545 0.374132 0.127868
H36   H     H_    0.253772 0.264970 0.215515 0.101339
H37   H     H_    0.188013 0.307298 0.131609 0.134145
H38   H     H_    0.159942 0.325408 0.290089 0.160472
N2    N     N_R   0.796951 0.996107 0.123754 0.090758
O29   O     O_R   0.882182 0.906866 0.143343 -0.349140
O30   O     O_R   0.764618 0.987068 0.080239 -0.307616
H39   H     H_    0.828062 0.050783 0.289985 0.115970
N3    N     N_R   0.211764 0.947005 0.792673 0.066906
O31   O     O_R   0.242611 0.862938 0.762063 -0.358011
O32   O     O_R   0.204384 0.930392 0.838707 -0.332900

loop_
_geom_bond_atom_site_label_1
_geom_bond_atom_site_label_2
_geom_bond_distance
_ccdc_geom_bond_type
C63   H25   1.083517 S    
C5    C43   1.450975 S    
O22   Cr5   2.038853 S    
C21   C79   1.429689 S    
C55   C56   1.402809 A    
O16   Cr5   2.040391 S    
C19   C20   1.537655 S    
C37   C39   1.548388 S    
C57   C58   1.404037 A    
C78   C84   1.472219 S    
O15   C79   1.272820 A    
C59   C60   1.386151 A    
C23   C25   1.550675 S    
O4    Cr2   1.917488 S    
C45   C46   1.417941 A    
O25   Cr6   1.916709 S    
O19   Cr6   1.930666 S    
O8    Cr1   1.914822 S    
C63   C64   1.382849 A    
C50   H19   1.076947 S    
O21   Cr4   1.924380 S    
O14   C81   1.269345 A    
C71   C72   1.393742 A    
C12   C17   1.459686 S    
C68   H27   1.083286 S    
C11   C12   1.537396 S    
C72   H32   1.083084 S    
O15   Cr4   1.914738 S    
C7    H2    1.110182 S    
C5    O11   1.259767 A    
C62   C66   1.399463 A    
C60   H26   1.083137 S    
C2    C10   1.428944 S    
C33   C41   1.204266 T    
O17   Cr5   1.922562 S    
C15   C16   1.550496 S    
C13   H5    1.110128 S    
O25   C84   1.282737 A    
C76   C77   1.402625 A    
C70   C71   1.408288 A    
C57   H23   1.082560 S    
Cr6   O26   1.972204 S    
C13   C15   1.548289 S    
C68   C69   1.385682 A    
C83   O24   1.299327 A    
C52   C53   1.402994 A    
C24   C27   1.540134 S    
C69   C70   1.400229 A    
C80   O18   1.263868 A    
C7    C14   1.534870 S    
C61   H36   1.082781 S    
C23   C24   1.544491 S    
C26   C28   1.542784 S    
C7    C8    1.549863 S    
O18   Cr6   2.035440 S    
C43   C48   1.395386 A    
N3    O32   1.300247 A    
O20   Cr4   2.030270 S    
C39   H14   1.109898 S    
C62   H37   1.083162 S    
C37   C38   1.536174 S    
C21   C29   1.202671 T    
C3    C22   1.429149 S    
C73   H28   1.082982 S    
Cr3   O13   1.971965 S    
N2    O30   1.301618 A    
C19   H7    1.110256 S    
C56   C57   1.388511 A    
C31   C38   1.535076 S    
C4    C67   1.466249 S    
C49   C50   1.382601 A    
Cr5   O26   1.971985 S    
C44   C45   1.404999 A    
C19   C23   1.555055 S    
C24   C29   1.462010 S    
O1    Cr1   2.033120 S    
C8    C16   1.551366 S    
C69   H29   1.082335 S    
C27   C28   1.554485 S    
C7    C11   1.546882 S    
O10   Cr2   1.929303 S    
Cr1   O13   1.981489 S    
O1    C3    1.269570 A    
C8    H1    1.110050 S    
C61   C65   1.407312 A    
C67   C68   1.406965 A    
C75   C78   1.399512 A    
O23   Cr5   1.924698 S    
C46   C47   1.401843 A    
C39   C40   1.549308 S    
C31   H12   1.110161 S    
C76   H30   1.082078 S    
C27   H9    1.110258 S    
C25   C27   1.551229 S    
C32   H11   1.110058 S    
C50   C54   1.396923 A    
C37   H15   1.110176 S    
O12   Cr3   1.921400 S    
C74   C78   1.416698 A    
C38   C40   1.538905 S    
C59   H38   1.082295 S    
C33   C81   1.432212 S    
C48   H22   1.083156 S    
C43   C44   1.398277 A    
C74   N2    1.438773 S    
C52   H34   1.082866 S    
C32   C36   1.535854 S    
C51   C52   1.393618 A    
O7    Cr1   2.040417 S    
C56   H35   1.082851 S    
C36   C39   1.534297 S    
C58   C59   1.401755 A    
C22   C30   1.202393 T    
O12   C6    1.275163 A    
O6    C3    1.274412 A    
C12   C15   1.535347 S    
C11   H6    1.110671 S    
C32   C40   1.549973 S    
C20   C24   1.524909 S    
O23   C83   1.298896 A    
C44   H17   1.083463 S    
C2    O5    1.293100 A    
C67   C72   1.400309 A    
O14   Cr4   2.043224 S    
C46   C53   1.467968 S    
C34   C42   1.204621 T    
C63   C66   1.404249 A    
C73   C77   1.402355 A    
N2    O29   1.301536 A    
N1    O28   1.301107 A    
C10   C18   1.201965 T    
C1    O3    1.268594 A    
C19   C26   1.539222 S    
Cr4   O26   1.981182 S    
C31   C35   1.549544 S    
C79   O16   1.267374 A    
H13   C40   1.110461 S    
C51   H20   1.082833 S    
O9    Cr2   2.032143 S    
O2    Cr1   1.924078 S    
C15   H4    1.109950 S    
C47   H21   1.083733 S    
O24   Cr6   2.047897 S    
Cr2   O13   1.972480 S    
O6    Cr3   1.925937 S    
C45   N1    1.435826 S    
C70   C77   1.473698 S    
O8    C4    1.269515 A    
C20   N3    1.456475 S    
O11   Cr3   2.044447 S    
O19   C81   1.275473 A    
C1    C34   1.432895 S    
N3    O31   1.300208 A    
O21   C82   1.268860 A    
N1    O27   1.301351 A    
C61   C62   1.391822 A    
C25   H33   1.110110 S    
H3    C16   1.108696 S    
C35   C36   1.538863 S    
O2    C1    1.273980 A    
C8    C12   1.535258 S    
C26   C30   1.460649 S    
O5    Cr3   2.039221 S    
O17   C80   1.271283 A    
C13   C14   1.534866 S    
C11   C13   1.546413 S    
H8    C28   1.109625 S    
C31   C32   1.551170 S    
O4    C2    1.300191 A    
O7    C6    1.268102 A    
C14   C16   1.536179 S    
C66   C82   1.458543 S    
C64   H24   1.082530 S    
C38   C42   1.464567 S    
C64   C65   1.400174 A    
C14   C18   1.459461 S    
C49   H18   1.083658 S    
C82   O22   1.272780 A    
C71   H39   1.082819 S    
C47   C48   1.375392 A    
O3    Cr2   2.046565 S    
C51   C54   1.405968 A    
C4    O9    1.275571 A    
C9    C17   1.201966 T    
O20   C84   1.267890 A    
C25   C26   1.538693 S    
C58   C65   1.468345 S    
C20   C28   1.536868 S    
C6    C55   1.460732 S    
C35   H16   1.110561 S    
O10   C5    1.272069 A    
C9    C80   1.428887 S    
C36   C41   1.464009 S    
C75   C76   1.388382 A    
C75   H31   1.079170 S    
C55   C60   1.402056 A    
C49   C53   1.401407 A    
C73   C74   1.397385 A    
C54   C83   1.462527 S    
C35   C37   1.547819 S    
C23   H10   1.110574 S    
