data_mof_unit_pretest_79.cif
_audit_creation_date              2013-03-05T16:38:04-0500
_audit_creation_method            fapswitch 2.2
_symmetry_space_group_name_H-M    P1
_symmetry_Int_Tables_number       1
_space_group_crystal_system       triclinic
_cell_length_a                    18.862842
_cell_length_b                    18.667008
_cell_length_c                    18.894008
_cell_angle_alpha                 109.381474
_cell_angle_beta                  109.68099
_cell_angle_gamma                 109.132158
_cell_volume                      5135.05404606

loop_
_atom_site_label
_atom_site_type_symbol
_atom_site_description
_atom_site_fract_x
_atom_site_fract_y
_atom_site_fract_z
_atom_type_partial_charge
O1    O     O_R   0.409800 0.552190 0.462000 -0.573801
O2    O     O_R   0.409840 0.447810 0.357640 -0.584506
C1    C     C_R   0.383681 0.503115 0.381664 0.799925
O3    O     O_R   0.590160 0.642370 0.552180 -0.589029
O4    O     O_R   0.590190 0.537990 0.447820 -0.582214
C2    C     C_R   0.620251 0.619723 0.501960 0.782601
Cu1   Cu    Cu3+1 0.499980 0.561800 0.561790 1.025731
Cu2   Cu    Cu3+1 0.500020 0.438200 0.438210 0.995128
O5    O     O_R   0.590160 0.552190 0.642360 -0.577062
O6    O     O_R   0.590200 0.447810 0.538000 -0.585403
O7    O     O_R   0.409810 0.462010 0.552180 -0.572416
O8    O     O_R   0.409840 0.357630 0.447820 -0.583591
C3    C     C_R   0.617610 0.498780 0.618574 0.816064
C4    C     C_R   0.379695 0.381034 0.498495 0.794667
H1    H     H_    0.777798 0.921567 0.889429 0.141763
C5    C     C_R   0.698455 0.859367 0.751659 -0.116927
H2    H     H_    0.647579 0.872316 0.755493 0.147562
C6    C     C_R   0.691743 0.818359 0.671206 -0.057492
H3    H     H_    0.636647 0.802822 0.613865 0.139972
C7    C     C_R   0.756463 0.799523 0.664929 0.083958
C8    C     C_R   0.831063 0.828405 0.741615 -0.163796
H4    H     H_    0.883389 0.818464 0.737669 0.161294
C9    C     C_R   0.840174 0.874124 0.823074 0.046524
C10   C     C_R   0.772289 0.887104 0.827356 -0.197456
C11   C     C_R   0.821359 0.824719 0.576916 -0.178120
H5    H     H_    0.874650 0.884481 0.635627 0.177030
C12   C     C_R   0.815117 0.811365 0.497515 -0.057222
C13   C     C_R   0.742528 0.738142 0.419778 0.101308
C14   C     C_R   0.681547 0.675361 0.423894 -0.127072
H6    H     H_    0.627646 0.617043 0.364256 0.153195
C15   C     C_R   0.686923 0.688813 0.503358 -0.092386
C16   C     C_R   0.755014 0.767706 0.580835 -0.016081
C17   C     C_R   0.656301 0.724753 0.276907 0.362461
C18   C     C_R   0.646745 0.716391 0.196111 -0.069537
C19   C     C_R   0.706647 0.703733 0.172404 -0.088149
H7    H     H_    0.700875 0.696829 0.111212 0.193265
C20   C     C_R   0.776151 0.702456 0.228401 -0.139038
H8    H     H_    0.822369 0.693579 0.210366 0.200511
C21   C     C_R   0.787767 0.714675 0.308934 -0.246911
H9    H     H_    0.843191 0.715839 0.352533 0.136881
C22   C     C_R   0.728567 0.725795 0.333737 0.082513
H10   H     H_    0.539656 0.922793 0.542709 0.138445
C23   C     C_R   0.452531 0.806349 0.532733 -0.076001
C24   C     C_R   0.395015 0.714623 0.478331 0.016114
C25   C     C_R   0.388788 0.671052 0.397164 -0.114948
C26   C     C_R   0.438991 0.718902 0.371720 -0.148123
H11   H     H_    0.430503 0.686803 0.307636 0.155134
C27   C     C_R   0.489242 0.809363 0.421431 0.547215
C28   C     C_R   0.499225 0.852328 0.503553 -0.379155
C29   C     C_R   0.244553 0.578100 0.263766 -0.050392
C30   C     C_R   0.182865 0.497905 0.186347 -0.081692
C31   C     C_R   0.185144 0.420094 0.176029 -0.025701
C32   C     C_R   0.251081 0.424540 0.242152 -0.199949
H12   H     H_    0.251839 0.364733 0.235100 0.174470
C33   C     C_R   0.316569 0.504516 0.316124 -0.078746
C34   C     C_R   0.314776 0.582591 0.326941 -0.072864
C35   C     C_R   0.035757 0.292801 0.083753 -0.092964
H13   H     H_    0.019027 0.324972 0.129470 0.211795
C36   C     C_R   0.972081 0.211564 0.011294 -0.135936
H14   H     H_    0.907137 0.182236 0.001273 0.154943
C37   C     C_R   0.991528 0.168063 0.951515 -0.293564
H15   H     H_    0.940579 0.105315 0.895128 0.153217
C38   C     C_R   0.075662 0.204358 0.964228 0.020274
C39   C     C_R   0.141556 0.286420 0.038620 0.405118
C40   C     C_R   0.119994 0.332792 0.097281 -0.080088
H16   H     H_    0.175100 0.584519 0.531974 0.126720
C41   C     C_R   0.248709 0.536417 0.597765 0.521460
C42   C     C_R   0.266633 0.467928 0.587459 -0.045463
H17   H     H_    0.309351 0.469831 0.644030 0.136425
C43   C     C_R   0.228483 0.396284 0.505068 -0.025927
C44   C     C_R   0.171658 0.393186 0.432090 -0.145964
H18   H     H_    0.141460 0.337057 0.368649 0.179291
C45   C     C_R   0.152327 0.461264 0.441424 0.005000
C46   C     C_R   0.190068 0.532053 0.524464 -0.311618
C47   C     C_R   0.175419 0.252237 0.493946 -0.193409
H19   H     H_    0.119310 0.256578 0.493562 0.177601
C48   C     C_R   0.185534 0.182133 0.496413 -0.086595
C49   C     C_R   0.260065 0.177827 0.500377 -0.010047
C50   C     C_R   0.321218 0.242469 0.498001 -0.222870
H20   H     H_    0.378348 0.239236 0.500543 0.156371
C51   C     C_R   0.311904 0.313704 0.497367 -0.069507
C52   C     C_R   0.239181 0.319680 0.497372 0.015052
C53   C     C_R   0.331638 0.130731 0.596509 -0.253900
H21   H     H_    0.354630 0.193414 0.650332 0.137565
C54   C     C_R   0.355196 0.071894 0.612774 0.051655
C55   C     C_R   0.326148 0.991211 0.543171 -0.273817
H22   H     H_    0.344760 0.945595 0.555517 0.202237
C56   C     C_R   0.273157 0.968343 0.457626 -0.059355
C57   C     C_R   0.247974 0.027346 0.440911 0.447209
C58   C     C_R   0.278610 0.109829 0.511766 -0.020497
H23   H     H_    0.392198 0.473025 0.778212 0.126538
C59   C     C_R   0.523062 0.558914 0.814124 0.023190
C60   C     C_R   0.595909 0.562652 0.807148 -0.092391
H24   H     H_    0.653524 0.625102 0.838123 0.140142
C61   C     C_R   0.594279 0.485807 0.759120 0.059292
C62   C     C_R   0.518972 0.404924 0.717010 -0.167462
H25   H     H_    0.516587 0.345158 0.679231 0.130570
C63   C     C_R   0.446549 0.401029 0.724095 -0.119000
H26   H     H_    0.388403 0.338826 0.691716 0.148491
C64   C     C_R   0.448745 0.477453 0.772940 -0.192821
C65   C     C_R   0.737218 0.488789 0.817023 0.354407
C66   C     C_R   0.812703 0.497528 0.812370 -0.108318
C67   C     C_R   0.821355 0.503187 0.742721 -0.064298
C68   C     C_R   0.755736 0.502469 0.679822 -0.240903
H27   H     H_    0.761703 0.506243 0.625835 0.165364
C69   C     C_R   0.682540 0.497003 0.685282 -0.104654
C70   C     C_R   0.672239 0.490491 0.753761 -0.116910
C71   C     C_R   0.945085 0.572197 0.721939 -0.130003
H28   H     H_    0.933627 0.626850 0.730106 0.132337
C72   C     C_R   0.009333 0.569453 0.701908 -0.240875
H29   H     H_    0.046627 0.622162 0.694989 0.121387
C73   C     C_R   0.023909 0.498321 0.688923 0.060105
C74   C     C_R   0.974728 0.430879 0.698380 -0.055871
H30   H     H_    0.985207 0.375611 0.689047 0.201604
C75   C     C_R   0.910329 0.433534 0.718290 -0.143790
H31   H     H_    0.871285 0.379728 0.722812 0.121606
C76   C     C_R   0.894806 0.504052 0.729810 0.135878
O9    O     O_R   0.052200 0.909800 0.461980 -0.588075
O10   O     O_R   0.947810 0.909820 0.357620 -0.587552
C77   C     C_R   0.000122 0.880539 0.381428 0.789369
O11   O     O_R   0.962020 0.909790 0.552160 -0.592595
O12   O     O_R   0.857630 0.909810 0.447800 -0.571106
C78   C     C_R   0.881437 0.879320 0.498187 0.786172
Cu3   Cu    Cu3+1 0.061810 0.999960 0.561770 1.034479
Cu4   Cu    Cu3+1 0.938190 0.999990 0.438190 0.997960
O13   O     O_R   0.052190 0.090130 0.642340 -0.532339
O14   O     O_R   0.947800 0.090160 0.537980 -0.596056
O15   O     O_R   0.142370 0.090140 0.552150 -0.564209
O16   O     O_R   0.037980 0.090170 0.447800 -0.589090
C79   C     C_R   0.000199 0.119266 0.618655 0.865961
C80   C     C_R   0.118753 0.116682 0.497924 0.807595
O17   O     O_R   0.052200 0.461970 0.909800 -0.583760
O18   O     O_R   0.947810 0.357610 0.909840 -0.594801
C81   C     C_R   0.002051 0.381290 0.883216 0.777656
O19   O     O_R   0.142370 0.552160 0.090140 -0.581290
O20   O     O_R   0.037990 0.447800 0.090170 -0.582295
C82   C     C_R   0.118079 0.497071 0.116472 0.832746
Cu5   Cu    Cu3+1 0.061800 0.561770 0.999960 1.010337
Cu6   Cu    Cu3+1 0.938200 0.438190 0.000000 1.022815
O21   O     O_R   0.052190 0.642350 0.090120 -0.546472
O22   O     O_R   0.947800 0.537990 0.090150 -0.566505
O23   O     O_R   0.962010 0.552150 0.909780 -0.597608
O24   O     O_R   0.857630 0.447800 0.909820 -0.531090
C83   C     C_R   0.998390 0.618868 0.116708 0.884593
C84   C     C_R   0.881040 0.499383 0.880468 0.835854
H32   H     H_    0.080435 0.704640 0.604653 0.117332
C85   C     C_R   0.131153 0.781826 0.551953 0.419313
C86   C     C_R   0.112780 0.793077 0.479541 -0.070667
H33   H     H_    0.162697 0.844424 0.481609 0.152478
C87   C     C_R   0.030849 0.738448 0.404638 -0.065540
C88   C     C_R   0.968055 0.669274 0.401365 -0.197819
H34   H     H_    0.906033 0.624009 0.342369 0.171319
C89   C     C_R   0.984888 0.657172 0.473289 0.441487
C90   C     C_R   0.066710 0.713881 0.548886 -0.358829
C91   C     C_R   0.010323 0.682047 0.258198 -0.157554
H35   H     H_    0.018418 0.629347 0.265071 0.176030
C92   C     C_R   0.998577 0.686038 0.183016 0.007302
C93   C     C_R   0.987083 0.753166 0.172187 0.130989
C94   C     C_R   0.987930 0.816219 0.238340 -0.142763
H36   H     H_    0.977956 0.867455 0.229831 0.152034
C95   C     C_R   0.001958 0.813855 0.315335 -0.089533
C96   C     C_R   0.014533 0.746333 0.325840 0.009936
C97   C     C_R   0.040282 0.798462 0.081120 0.450937
C98   C     C_R   0.024909 0.795411 0.001630 -0.199350
H37   H     H_    0.078299 0.826421 0.992801 0.153725
C99   C     C_R   0.940630 0.752070 0.932876 -0.122513
H38   H     H_    0.929305 0.748832 0.871523 0.174746
C100  C     C_R   0.870678 0.713240 0.942889 -0.234986
H39   H     H_    0.805847 0.680932 0.888728 0.140996
C101  C     C_R   0.883920 0.712622 0.020255 -0.042301
C102  C     C_R   0.969730 0.755283 0.090237 -0.015555
H40   H     H_    0.387717 0.625301 0.050066 0.141747
C103  C     C_R   0.294607 0.532786 0.915261 -0.121661
H41   H     H_    0.330717 0.567766 0.892338 0.150422
C104  C     C_R   0.215620 0.455286 0.855893 -0.144129
H42   H     H_    0.191557 0.430968 0.787286 0.195083
C105  C     C_R   0.168098 0.409268 0.884938 0.104730
C106  C     C_R   0.201205 0.442693 0.974347 -0.030961
H43   H     H_    0.164516 0.409984 0.997790 0.095312
C107  C     C_R   0.280235 0.520078 0.033691 -0.126961
H44   H     H_    0.304874 0.545465 0.102559 0.120496
C108  C     C_R   0.326883 0.565134 0.004132 -0.094249
C109  C     C_R   0.081880 0.258187 0.756552 0.372509
C110  C     C_R   0.001467 0.187750 0.685881 -0.103728
C111  C     C_R   0.923471 0.182645 0.680377 0.015102
C112  C     C_R   0.925966 0.243927 0.748632 -0.241278
H45   H     H_    0.865601 0.238660 0.744752 0.165410
C113  C     C_R   0.005123 0.315271 0.818536 -0.131700
C114  C     C_R   0.084238 0.326132 0.820893 -0.096524
C115  C     C_R   0.810931 0.132393 0.532956 0.354532
C116  C     C_R   0.742522 0.063128 0.449459 -0.173842
C117  C     C_R   0.705681 0.978123 0.436315 -0.180898
H46   H     H_    0.655618 0.923939 0.372192 0.256106
C118  C     C_R   0.728528 0.961656 0.505191 0.430522
C119  C     C_R   0.795696 0.030078 0.588922 0.207286
C120  C     C_R   0.838889 0.115048 0.601561 -0.047086
C121  C     C_2   0.460202 0.859418 0.616177 0.448404
H47   H     H_    0.519994 0.920158 0.665535 0.071203
O25   O     O_2   0.399148 0.839482 0.628977 -0.464278
C122  C     C_2   0.340106 0.663845 0.503442 0.491185
H48   H     H_    0.274848 0.611241 0.454610 0.033301
O26   O     O_2   0.369052 0.676840 0.577525 -0.505174
O27   O     O_3   0.521471 0.854461 0.384775 -0.702730
H49   H     H_    0.544381 0.917559 0.422474 0.317092
C123  C     C_2   0.234849 0.657447 0.280824 0.359531
H50   H     H_    0.290763 0.722027 0.315399 0.087265
O28   O     O_2   0.163724 0.651601 0.259413 -0.567266
C124  C     C_2   0.091472 0.154656 0.897309 0.443414
H51   H     H_    0.038995 0.091591 0.842084 0.053800
O29   O     O_2   0.162084 0.182972 0.901967 -0.464957
O30   O     O_3   0.224653 0.318978 0.050948 -0.684440
H52   H     H_    0.262221 0.379846 0.099342 0.320221
O31   O     O_3   0.289041 0.606263 0.680009 -0.726309
H53   H     H_    0.270808 0.649653 0.676243 0.335701
C125  C     C_2   0.092962 0.459673 0.365428 0.383317
H54   H     H_    0.079716 0.513429 0.374025 0.077139
O32   O     O_2   0.058250 0.398631 0.292425 -0.562943
C126  C     C_2   0.410775 0.096079 0.703053 0.416772
H55   H     H_    0.433022 0.159251 0.756076 0.063159
O33   O     O_2   0.432389 0.046041 0.719461 -0.502102
C127  C     C_2   0.245714 0.881622 0.387869 0.431204
H56   H     H_    0.265135 0.838163 0.404558 0.040953
O34   O     O_2   0.201621 0.857262 0.311606 -0.418752
O35   O     O_3   0.194841 0.002806 0.356045 -0.675540
H57   H     H_    0.179827 0.048353 0.353960 0.317850
C128  C     C_2   0.523363 0.639212 0.863679 0.445574
H58   H     H_    0.466148 0.634838 0.867692 0.094477
O36   O     O_2   0.587206 0.711094 0.900530 -0.525401
O37   O     O_3   0.730479 0.480360 0.884998 -0.693716
H59   H     H_    0.673254 0.469591 0.878736 0.340384
C129  C     C_2   0.089038 0.494631 0.663443 0.342255
H60   H     H_    0.127694 0.548743 0.658972 0.080098
O38   O     O_2   0.099381 0.431042 0.645915 -0.562996
C130  C     C_2   0.921749 0.912976 0.904092 0.318333
H61   H     H_    0.925054 0.941494 0.966194 0.088751
O39   O     O_2   0.986730 0.915397 0.902705 -0.553925
O40   O     O_3   0.212584 0.837601 0.624153 -0.676127
H62   H     H_    0.215527 0.820729 0.669180 0.336922
O41   O     O_3   0.920685 0.589041 0.467397 -0.717586
H63   H     H_    0.942609 0.589203 0.523139 0.321105
O42   O     O_3   0.123437 0.841607 0.149990 -0.638438
H64   H     H_    0.165052 0.867913 0.132954 0.327916
C131  C     C_2   0.806403 0.665304 0.023970 0.369022
H65   H     H_    0.745399 0.659877 0.985396 0.084294
O43   O     O_2   0.808200 0.627736 0.065879 -0.557432
O44   O     O_3   0.156693 0.260327 0.758750 -0.711845
H66   H     H_    0.205172 0.296894 0.819393 0.354435
O45   O     O_3   0.855809 0.216548 0.549246 -0.734637
H67   H     H_    0.853899 0.214514 0.495644 0.322025
C132  C     C_2   0.707275 0.078302 0.376065 0.391640
H68   H     H_    0.722343 0.143593 0.387034 0.084652
O46   O     O_2   0.659249 0.017361 0.301817 -0.522435
O47   O     O_3   0.683687 0.877262 0.487659 -0.665616
H69   H     H_    0.694210 0.877438 0.542634 0.353849
O48   O     O_3   0.820016 0.010676 0.654825 -0.773111
H70   H     H_    0.861260 0.065139 0.711208 0.329203
O49   O     O_3   0.598043 0.733404 0.303105 -0.696392
H71   H     H_    0.540506 0.704742 0.251362 0.299355
C133  C     C_2   0.578430 0.725689 0.138464 0.344877
H72   H     H_    0.543610 0.753825 0.162112 0.094108
O50   O     O_2   0.561001 0.703249 0.063521 -0.540759

loop_
_geom_bond_atom_site_label_1
_geom_bond_atom_site_label_2
_geom_bond_distance
_ccdc_geom_bond_type
C65   C70   1.412768 A    
O19   Cu5   1.970390 S    
C100  H39   1.081846 S    
C33   C34   1.416431 A    
C65   C66   1.415381 A    
C119  O48   1.384015 S    
C91   C92   1.393381 A    
C66   C67   1.412490 A    
C45   C46   1.403400 A    
C129  H60   1.083721 S    
C61   C62   1.402169 A    
O20   C82   1.286591 A    
C54   C126  1.478709 S    
C83   C92   1.446812 S    
O35   H57   0.988530 S    
C57   O35   1.383655 S    
C68   C69   1.392073 A    
C95   C96   1.419397 A    
C35   H13   1.081606 S    
C126  H55   1.085673 S    
Cu1   Cu2   2.683653 S    
C21   C22   1.396254 A    
C67   C76   1.481540 S    
C48   C49   1.412683 A    
O45   H67   0.988635 S    
O30   H52   0.987652 S    
Cu1   O7    1.971426 S    
C27   O27   1.375889 S    
C44   C45   1.406180 A    
C127  H56   1.085609 S    
C73   C129  1.475672 S    
C13   C14   1.392740 A    
C19   C20   1.393453 A    
O41   H63   0.991932 S    
C86   C87   1.402526 A    
O42   H64   0.991665 S    
C125  O32   1.220289 D    
C66   C84   1.463661 S    
O47   H69   0.988318 S    
Cu2   O6    1.973787 S    
O7    C4    1.291439 A    
C55   C56   1.402829 A    
C93   C102  1.487892 S    
C35   C36   1.391804 A    
C5    H2    1.082546 S    
C101  C102  1.420248 A    
O13   C79   1.293599 A    
O17   Cu5   1.967251 S    
C131  H65   1.084097 S    
H16   C46   1.084001 S    
C13   C22   1.479319 S    
C116  C132  1.486050 S    
C71   H28   1.083460 S    
O24   C84   1.292429 A    
C18   C19   1.406698 A    
C48   C80   1.455641 S    
C121  O25   1.220529 D    
C85   C90   1.408112 A    
O5    C3    1.289113 A    
C72   H29   1.083346 S    
C68   H27   1.085328 S    
O11   Cu3   1.974688 S    
C67   C68   1.390098 A    
C85   C86   1.398250 A    
O1    Cu1   1.973786 S    
C42   H17   1.081168 S    
C9    C130  1.477169 S    
Cu6   O24   1.970390 S    
C92   C93   1.406224 A    
C97   C98   1.407868 A    
C25   C34   1.491057 S    
C71   C72   1.396887 A    
C122  H48   1.082651 S    
C131  O43   1.219014 D    
C62   C63   1.397851 A    
C85   O40   1.379108 S    
C9    C10   1.401811 A    
C94   C95   1.406832 A    
C39   O30   1.384258 S    
C97   O42   1.379765 S    
C43   C44   1.401588 A    
H23   C64   1.083373 S    
C97   C102  1.412026 A    
O44   H66   0.990460 S    
C115  C120  1.411808 A    
Cu3   O15   1.971881 S    
C11   C16   1.394968 A    
C103  C104  1.398345 A    
C2    C15   1.462007 S    
C59   C128  1.477436 S    
C36   H14   1.082420 S    
C5    C10   1.395498 A    
C132  H68   1.083877 S    
C103  H41   1.082947 S    
C8    H4    1.083802 S    
C99   C100  1.390855 A    
O23   C84   1.300654 A    
C37   H15   1.083895 S    
C130  O39   1.221162 D    
O20   Cu6   1.973223 S    
C109  C114  1.411287 A    
C73   C74   1.404575 A    
O37   H59   0.987687 S    
C107  C108  1.396859 A    
C51   C52   1.412274 A    
C72   C73   1.402651 A    
O12   C78   1.292722 A    
C32   C33   1.396949 A    
C91   C96   1.389612 A    
C32   H12   1.085074 S    
C60   C61   1.403716 A    
C87   C96   1.483054 S    
C26   C27   1.389456 A    
C36   C37   1.391144 A    
C105  C114  1.493335 S    
C128  H58   1.085649 S    
C89   O41   1.379189 S    
C38   C39   1.418887 A    
C41   C42   1.396138 A    
C106  H43   1.075622 S    
C101  C131  1.478781 S    
C86   H33   1.079630 S    
C104  C105  1.407853 A    
Cu5   O23   1.973224 S    
O22   C83   1.293084 A    
C124  H51   1.086105 S    
C21   H9    1.079431 S    
C50   C51   1.400533 A    
C12   C78   1.453501 S    
C49   C50   1.395386 A    
C6    H3    1.083247 S    
C75   C76   1.404028 A    
C11   H5    1.085360 S    
C54   C55   1.398972 A    
C56   C127  1.483481 S    
C29   C34   1.407916 A    
C116  C117  1.400679 A    
C74   C75   1.398025 A    
C113  C114  1.421640 A    
O1    C1    1.289731 A    
C19   H7    1.082731 S    
C117  C118  1.395804 A    
C93   C94   1.394862 A    
C20   H8    1.077461 S    
C47   H19   1.085451 S    
C75   H31   1.083040 S    
C109  C110  1.405590 A    
C14   H6    1.084974 S    
C81   C113  1.452744 S    
O48   H70   0.989030 S    
O18   C81   1.301179 A    
C126  O33   1.221264 D    
C53   H21   1.082538 S    
H32   C90   1.083113 S    
O31   H53   0.991847 S    
C88   H34   1.083346 S    
Cu4   O16   1.974784 S    
C62   H25   1.083103 S    
C37   C38   1.402036 A    
C29   C30   1.411735 A    
C106  C107  1.397764 A    
C129  O38   1.221137 D    
C41   C46   1.408004 A    
O9    Cu3   1.970779 S    
C7    C8    1.407492 A    
C47   C48   1.396156 A    
C61   C70   1.484026 S    
C77   C95   1.461444 S    
C105  C106  1.402650 A    
C30   C82   1.457329 S    
O17   C81   1.288149 A    
H1    C10   1.083269 S    
C53   C54   1.396491 A    
O8    C4    1.297251 A    
C103  C108  1.397222 A    
O18   Cu6   1.970625 S    
O27   H49   0.991781 S    
C128  O36   1.221238 D    
C38   C124  1.484970 S    
C8    C9    1.407324 A    
C23   C24   1.424230 A    
C94   H36   1.084255 S    
C99   H38   1.082257 S    
O19   C82   1.303536 A    
C50   H20   1.084872 S    
C25   C26   1.401052 A    
O3    C2    1.286486 A    
C115  C116  1.416699 A    
C130  H61   1.085559 S    
C23   C121  1.484484 S    
C112  C113  1.395800 A    
C133  H72   1.083931 S    
C57   C58   1.422820 A    
O15   C80   1.291433 A    
O10   Cu4   1.967003 S    
O49   H71   0.988665 S    
C31   C32   1.389794 A    
C59   C64   1.401990 A    
Cu3   O13   1.967003 S    
C74   H30   1.082102 S    
C7    C16   1.487211 S    
Cu1   O5    1.969824 S    
C53   C58   1.402555 A    
C123  H50   1.082686 S    
C26   H11   1.084303 S    
C98   H37   1.082698 S    
C55   H22   1.084154 S    
C115  O45   1.382402 S    
C71   C76   1.403403 A    
C15   C16   1.422755 A    
C23   C28   1.400732 A    
C24   C25   1.419625 A    
O21   C83   1.293171 A    
C35   C40   1.403431 A    
C3    C69   1.450638 S    
C133  O50   1.221079 D    
O6    C3    1.294683 A    
C5    C6    1.395425 A    
O4    Cu2   1.971425 S    
O2    Cu2   1.969822 S    
O10   C77   1.300981 A    
C47   C52   1.391643 A    
C24   C122  1.477244 S    
Cu5   O21   1.970621 S    
C11   C12   1.392918 A    
C60   H24   1.082083 S    
C1    C33   1.457389 S    
C118  O47   1.377848 S    
C127  O34   1.218505 D    
C17   C22   1.412224 A    
C117  H46   1.082867 S    
O12   Cu4   1.971761 S    
C98   C99   1.392021 A    
O2    C1    1.299647 A    
C112  H45   1.084975 S    
O14   C79   1.295790 A    
C30   C31   1.417113 A    
C14   C15   1.399303 A    
C104  H42   1.081883 S    
C79   C110  1.459442 S    
C39   C40   1.428569 A    
Cu6   O22   1.967149 S    
C111  C112  1.385146 A    
O4    C2    1.304637 A    
C49   C58   1.483748 S    
C27   C28   1.401595 A    
C100  C101  1.402277 A    
C59   C60   1.405571 A    
C65   O37   1.386136 S    
C17   C18   1.423131 A    
C18   C133  1.484492 S    
C118  C119  1.409748 A    
C6    C7    1.406862 A    
C88   C89   1.399538 A    
C125  H54   1.085942 S    
C121  H47   1.085728 S    
C43   C52   1.475674 S    
C63   C64   1.396535 A    
O9    C77   1.291957 A    
O11   C78   1.295435 A    
C41   O31   1.379197 S    
Cu5   Cu6   2.689639 S    
C31   C40   1.492018 S    
H10   C28   1.084274 S    
C119  C120  1.416737 A    
C29   C123  1.493933 S    
H40   C108  1.081132 S    
C20   C21   1.388384 A    
C44   H18   1.083683 S    
C56   C57   1.418185 A    
O3    Cu1   1.975054 S    
C124  O29   1.220611 D    
C63   H26   1.080395 S    
C69   C70   1.408842 A    
C17   O49   1.381414 S    
C91   H35   1.085273 S    
Cu4   O14   1.970873 S    
C42   C43   1.400907 A    
C87   C88   1.403305 A    
C45   C125  1.477642 S    
C110  C111  1.408149 A    
C111  C120  1.479238 S    
C4    C51   1.457970 S    
O16   C80   1.298442 A    
C89   C90   1.408351 A    
O40   H62   0.991725 S    
C123  O28   1.218469 D    
C132  O46   1.221490 D    
C109  O44   1.384647 S    
C122  O26   1.220342 D    
C107  H44   1.082922 S    
Cu2   O8    1.975056 S    
Cu3   Cu4   2.687693 S    
C12   C13   1.409439 A    
