data_mof_unit_pretest_1133.cif
_audit_creation_date              2012-12-10T19:10:05-0500
_audit_creation_method            fapswitch 2.2
_symmetry_space_group_name_H-M    P1
_symmetry_Int_Tables_number       1
_space_group_crystal_system       triclinic
_cell_length_a                    10.791209
_cell_length_b                    10.795735
_cell_length_c                    9.53701
_cell_angle_alpha                 90.220926
_cell_angle_beta                  90.227841
_cell_angle_gamma                 89.919259
_cell_volume                      1111.03431645

loop_
_atom_site_label
_atom_site_type_symbol
_atom_type_description
_atom_site_fract_x
_atom_site_fract_y
_atom_site_fract_z
_atom_type_partial_charge
C1    C     C_R   0.497947 0.262454 0.499578 0.794566
C2    C     C_R   0.234399 0.822235 0.112210 -0.107126
C3    C     C_R   0.932590 0.568140 0.402228 -0.244850
C4    C     C_R   0.871713 0.493396 0.499619 -0.088208
C5    C     C_R   0.939677 0.421490 0.596565 -0.017833
C6    C     C_R   0.068078 0.430100 0.596871 -0.245504
C7    C     C_R   0.128653 0.504799 0.499612 -0.076287
C8    C     C_R   0.061019 0.574724 0.401085 -0.000329
C9    C     C_R   0.905228 0.334534 0.836423 -0.190680
C10   C     C_R   0.851792 0.247222 0.925485 -0.139410
C11   C     C_R   0.777711 0.152855 0.870018 -0.127434
C12   C     C_R   0.262466 0.503154 0.499748 0.788961
C13   C     C_R   0.757711 0.145210 0.725377 -0.137144
C14   C     C_R   0.808097 0.234242 0.636382 -0.106440
C15   C     C_R   0.881283 0.330436 0.691464 0.125194
C16   C     C_R   0.427283 0.063496 0.598684 0.115063
C17   C     C_R   0.490850 0.129335 0.495887 -0.094172
C18   C     C_R   0.541361 0.064276 0.381575 -0.242462
C19   C     C_R   0.543587 0.935267 0.382406 -0.232081
C20   C     C_R   0.495435 0.870723 0.497612 -0.088642
C21   C     C_R   0.430766 0.936384 0.599972 0.099545
C22   C     C_3   0.432786 0.930707 0.756173 -0.458955
C23   C     C_R   0.500588 0.737568 0.500046 0.810601
C24   C     C_3   0.426194 0.071721 0.755143 -0.491958
C25   C     C_R   0.566715 0.586537 0.074388 0.209922
C26   C     C_R   0.425314 0.422479 0.073778 -0.064023
C27   C     C_R   0.425377 0.422391 0.924850 -0.091393
C28   C     C_R   0.566716 0.586586 0.926665 0.247392
C29   C     C_3   0.703810 0.602412 0.922020 0.223943
C30   C     C_3   0.703601 0.604415 0.081174 -0.581673
C31   C     C_R   0.737659 0.496338 0.500166 0.797452
C32   C     C_R   0.239400 0.846695 0.256086 -0.117088
C33   C     C_R   0.183783 0.765485 0.350630 -0.138692
C34   C     C_R   0.121237 0.659914 0.301231 0.131981
C35   C     C_R   0.115184 0.636540 0.156378 -0.142671
C36   C     C_R   0.172601 0.717110 0.062319 -0.148477
Cu1   Cu    Cu3+1 0.499990 0.499980 0.640670 0.956111
Cu2   Cu    Cu3+1 0.500010 0.500020 0.359330 0.948064
H1    H     H_    0.277910 0.885197 0.039597 0.121108
H2    H     H_    0.737008 0.084754 0.938885 0.130292
H3    H     H_    0.703471 0.069977 0.682047 0.146700
H4    H     H_    0.791761 0.227085 0.524506 0.098945
H5    H     H_    0.584985 0.112692 0.295610 0.163407
H6    H     H_    0.587797 0.886584 0.296490 0.164667
H7    H     H_    0.347908 0.886367 0.798104 0.185310
H8    H     H_    0.521843 0.894220 0.798326 0.234300
H9    H     H_    0.336642 0.108228 0.795198 0.188175
H10   H     H_    0.509497 0.117231 0.800078 0.214083
H11   H     H_    0.366748 0.357997 0.129182 0.137664
H12   H     H_    0.286055 0.928842 0.294278 0.140308
H13   H     H_    0.366867 0.357830 0.868389 0.138324
H14   H     H_    0.749661 0.519978 0.875327 0.114519
H15   H     H_    0.753368 0.523646 0.126438 0.186180
H16   H     H_    0.728838 0.695632 0.127623 0.206400
H17   H     H_    0.188606 0.785190 0.461993 0.102479
H18   H     H_    0.067026 0.555626 0.116659 0.108623
H19   H     H_    0.168695 0.698396 0.950783 0.123054
H20   H     H_    0.879760 0.624731 0.329705 0.147479
H21   H     H_    0.121558 0.373826 0.669272 0.148075
H22   H     H_    0.963167 0.406805 0.880627 0.107133
H23   H     H_    0.868392 0.252349 0.037361 0.127073
N1    N     N_R   0.500790 0.500930 0.147930 -0.177940
N2    N     N_R   0.500790 0.500890 0.852020 -0.214783
O1    O     O_R   0.500000 0.319640 0.618810 -0.577167
O2    O     O_R   0.500010 0.319680 0.381230 -0.591257
O3    O     O_R   0.319640 0.499990 0.618790 -0.592763
O4    O     O_R   0.319650 0.500030 0.381210 -0.569706
O5    O     O_R   0.499990 0.680320 0.618770 -0.563133
O6    O     O_R   0.500000 0.680360 0.381190 -0.575666
O7    O     O_R   0.680350 0.499970 0.618790 -0.573547
O8    O     O_R   0.680360 0.500010 0.381210 -0.587325
O9    O     O_3   0.736676 0.717727 0.863527 -0.561266
C37   C     C_3   0.864991 0.717157 0.834877 0.069590
H24   H     H_    0.886716 0.648422 0.751351 0.156930
H25   H     H_    0.919811 0.695020 0.930787 0.141556
C38   C     C_3   0.904254 0.844095 0.783436 -0.784624
H26   H     H_    0.890270 0.913751 0.867701 0.248028
H27   H     H_    0.003956 0.842376 0.754983 0.195050
H28   H     H_    0.848942 0.870356 0.689658 0.248457

loop_
_geom_bond_atom_site_label_1
_geom_bond_atom_site_label_2
_ccdc_geom_bond_type
C33   H17   S    
C16   C21   A    
C37   H24   S    
C23   O6    A    
C35   C36   A    
C38   H28   S    
C13   H3    S    
C7    C8    A    
C12   O4    A    
C25   C28   A    
C30   H16   S    
C26   C27   A    
Cu1   Cu2   S    
C28   C29   S    
C38   H27   S    
C18   C19   A    
C5    C6    A    
Cu1   O5    S    
C2    C32   A    
C34   C35   A    
C2    H1    S    
C31   O7    A    
C19   C20   A    
C16   C17   A    
C1    O2    A    
Cu2   O2    S    
C9    C10   A    
C14   H4    S    
C29   O9    S    
C31   O8    A    
Cu2   O6    S    
C16   C24   S    
C21   C22   S    
C37   H25   S    
Cu1   N2    S    
C27   H13   S    
C17   C18   A    
C7    C12   S    
C30   H15   S    
C24   H10   S    
C38   H26   S    
C3    C8    A    
C26   H11   S    
O9    C37   S    
C12   O3    A    
C23   O5    A    
C3    H20   S    
C29   C30   S    
C20   C23   S    
Cu1   O3    S    
C33   C34   A    
C8    C34   S    
Cu2   O4    S    
C32   H12   S    
C27   N2    A    
C22   H8    S    
C36   H19   S    
C37   C38   S    
C22   C24   S    
C10   H23   S    
C3    C4    A    
C1    O1    A    
Cu1   O1    S    
C19   H6    S    
C2    C36   A    
C25   C30   S    
Cu2   O8    S    
C35   H18   S    
C24   H9    S    
C6    H21   S    
C4    C5    A    
C6    C7    A    
C1    C17   S    
C9    H22   S    
Cu1   O7    S    
C32   C33   A    
C26   N1    A    
C18   H5    S    
C11   C13   A    
C25   N1    A    
C9    C15   A    
C11   H2    S    
C5    C15   S    
C4    C31   S    
C10   C11   A    
C28   N2    A    
C22   H7    S    
C20   C21   A    
C14   C15   A    
C13   C14   A    
Cu2   N1    S    
C29   H14   S    
