data_mof_unit_pretest_1874.cif
_audit_creation_date              2013-03-05T16:03:22-0500
_audit_creation_method            fapswitch 2.2
_symmetry_space_group_name_H-M    P1
_symmetry_Int_Tables_number       1
_space_group_crystal_system       monoclinic
_cell_length_a                    18.335146
_cell_length_b                    18.335742
_cell_length_c                    43.131485
_cell_angle_alpha                 90.0
_cell_angle_beta                  90.0
_cell_angle_gamma                 89.99944
_cell_volume                      14500.3095284

loop_
_atom_site_label
_atom_site_type_symbol
_atom_site_description
_atom_site_fract_x
_atom_site_fract_y
_atom_site_fract_z
_atom_type_partial_charge
Zn1   Zn    Zn3+2 0.500000 0.086800 0.724180 0.995491
Zn2   Zn    Zn3+2 0.500000 0.913200 0.275820 0.995549
Zn3   Zn    Zn3+2 0.913200 0.500000 0.724180 0.995567
Zn4   Zn    Zn3+2 0.086800 0.500000 0.275820 0.995616
Zn5   Zn    Zn3+2 0.500000 0.913200 0.724180 0.995491
Zn6   Zn    Zn3+2 0.500000 0.086800 0.275820 0.995549
Zn7   Zn    Zn3+2 0.086800 0.500000 0.724180 0.995567
Zn8   Zn    Zn3+2 0.913200 0.500000 0.275820 0.995616
Zn9   Zn    Zn3+2 0.000000 0.586800 0.224180 0.995498
Zn10  Zn    Zn3+2 0.000000 0.413200 0.775820 0.995551
Zn11  Zn    Zn3+2 0.413200 0.000000 0.224180 0.995569
Zn12  Zn    Zn3+2 0.586800 1.000000 0.775820 0.995620
Zn13  Zn    Zn3+2 0.000000 0.413200 0.224180 0.995498
Zn14  Zn    Zn3+2 0.000000 0.586800 0.775820 0.995550
Zn15  Zn    Zn3+2 0.586800 0.000000 0.224180 0.995569
Zn16  Zn    Zn3+2 0.413200 1.000000 0.775820 0.995620
C1    C     C_R   0.012090 0.564859 0.884665 -0.225634
C2    C     C_R   0.990799 0.565332 0.115311 -0.225791
C3    C     C_R   0.565983 0.000526 0.884697 -0.225272
C4    C     C_R   0.434017 0.999503 0.115303 -0.225549
C5    C     C_R   0.987912 0.435140 0.884665 -0.225638
C6    C     C_R   0.009199 0.434669 0.115311 -0.225791
C7    C     C_R   0.434017 0.999471 0.884697 -0.225271
C8    C     C_R   0.565983 0.000495 0.115303 -0.225549
C9    C     C_R   0.509597 0.934725 0.384686 -0.225586
C10   C     C_R   0.488289 0.935071 0.615331 -0.225854
C11   C     C_R   0.065983 0.499481 0.384697 -0.225332
C12   C     C_R   0.934017 0.500487 0.615303 -0.225528
C13   C     C_R   0.490404 0.065275 0.384686 -0.225586
C14   C     C_R   0.511712 0.064929 0.615331 -0.225854
C15   C     C_R   0.934017 0.500519 0.384697 -0.225332
C16   C     C_R   0.065983 0.499513 0.615303 -0.225528
H1    H     H_    0.021191 0.615208 0.872112 0.209200
H2    H     H_    0.984014 0.616055 0.127855 0.209710
H3    H     H_    0.617172 0.001539 0.872173 0.210268
H4    H     H_    0.382826 0.998516 0.127827 0.210153
H5    H     H_    0.978812 0.384792 0.872111 0.209209
H6    H     H_    0.015985 0.383945 0.127854 0.209710
H7    H     H_    0.382827 0.998459 0.872173 0.210268
H8    H     H_    0.617173 0.001483 0.127827 0.210153
H9    H     H_    0.516700 0.884047 0.372141 0.209643
H10   H     H_    0.479491 0.884668 0.627883 0.209303
H11   H     H_    0.117173 0.498475 0.372173 0.210265
H12   H     H_    0.882826 0.501467 0.627827 0.210141
H13   H     H_    0.483300 0.115953 0.372141 0.209642
H14   H     H_    0.520510 0.115332 0.627884 0.209303
H15   H     H_    0.882827 0.501525 0.372173 0.210265
H16   H     H_    0.117174 0.498533 0.627827 0.210141
C17   C     C_R   0.011773 0.565994 0.917093 0.320195
C18   C     C_R   0.991240 0.566461 0.082883 0.319658
C19   C     C_R   0.567009 0.001408 0.917117 0.319555
C20   C     C_R   0.432990 0.998619 0.082883 0.319356
C21   C     C_R   0.988228 0.434005 0.917093 0.320189
C22   C     C_R   0.008758 0.433541 0.082883 0.319657
C23   C     C_R   0.432990 0.998587 0.917117 0.319554
C24   C     C_R   0.567010 0.001378 0.082883 0.319356
C25   C     C_R   0.509173 0.933596 0.417114 0.319952
C26   C     C_R   0.488624 0.933937 0.582904 0.319868
C27   C     C_R   0.067010 0.498598 0.417117 0.319525
C28   C     C_R   0.932989 0.501370 0.582883 0.319372
C29   C     C_R   0.490828 0.066405 0.417114 0.319952
C30   C     C_R   0.511378 0.066063 0.582904 0.319868
C31   C     C_R   0.932990 0.501402 0.417117 0.319525
C32   C     C_R   0.067010 0.498630 0.582883 0.319371
O1    O     O_3   0.500000 0.000000 0.750000 -0.491994
O2    O     O_3   0.500000 0.000000 0.250000 -0.491974
O3    O     O_3   0.000000 0.500000 0.750000 -0.492003
O4    O     O_3   0.000000 0.500000 0.250000 -0.491966
O5    O     O_R   0.439140 0.000000 0.819450 -0.639638
O6    O     O_R   0.560860 1.000000 0.180550 -0.639661
O7    O     O_R   0.000000 0.439140 0.819450 -0.639255
O8    O     O_R   0.000000 0.560860 0.180550 -0.639478
O9    O     O_R   0.560860 0.000000 0.819450 -0.639638
O10   O     O_R   0.439140 1.000000 0.180550 -0.639661
O11   O     O_R   0.000000 0.560860 0.819450 -0.639254
O12   O     O_R   1.000000 0.439140 0.180550 -0.639478
O13   O     O_R   0.939140 0.500000 0.319450 -0.639644
O14   O     O_R   0.060860 0.500000 0.680550 -0.639658
O15   O     O_R   0.500000 0.939140 0.319450 -0.639425
O16   O     O_R   0.500000 0.060860 0.680550 -0.639320
O17   O     O_R   0.060860 0.500000 0.319450 -0.639644
O18   O     O_R   0.939140 0.500000 0.680550 -0.639657
O19   O     O_R   0.500000 0.060860 0.319450 -0.639425
O20   O     O_R   0.500000 0.939140 0.680550 -0.639320
O21   O     O_R   0.646030 0.085480 0.768310 -0.643931
O22   O     O_R   0.353970 0.914520 0.231690 -0.644108
O23   O     O_R   0.914520 0.646030 0.768310 -0.643435
O24   O     O_R   0.085480 0.353970 0.231690 -0.643746
O25   O     O_R   0.353970 0.914520 0.768310 -0.643932
O26   O     O_R   0.646030 0.085480 0.231690 -0.644108
O27   O     O_R   0.085480 0.353970 0.768310 -0.643435
O28   O     O_R   0.914520 0.646030 0.231690 -0.643746
O29   O     O_R   0.646030 0.914520 0.231690 -0.643299
O30   O     O_R   0.353970 0.085480 0.768310 -0.643452
O31   O     O_R   0.914520 0.353970 0.231690 -0.643755
O32   O     O_R   0.085480 0.646030 0.768310 -0.644069
O33   O     O_R   0.353970 0.085480 0.231690 -0.643298
O34   O     O_R   0.646030 0.914520 0.768310 -0.643452
O35   O     O_R   0.085480 0.646030 0.231690 -0.643754
O36   O     O_R   0.914520 0.353970 0.768310 -0.644069
O37   O     O_R   0.146030 0.585480 0.268310 -0.643433
O38   O     O_R   0.853970 0.414520 0.731690 -0.643280
O39   O     O_R   0.414520 0.146030 0.268310 -0.643956
O40   O     O_R   0.585480 0.853970 0.731690 -0.643666
O41   O     O_R   0.853970 0.414520 0.268310 -0.643433
O42   O     O_R   0.146030 0.585480 0.731690 -0.643280
O43   O     O_R   0.585480 0.853970 0.268310 -0.643955
O44   O     O_R   0.414520 0.146030 0.731690 -0.643666
O45   O     O_R   0.146030 0.414520 0.731690 -0.644128
O46   O     O_R   0.853970 0.585480 0.268310 -0.643952
O47   O     O_R   0.414520 0.853970 0.731690 -0.643863
O48   O     O_R   0.585480 0.146030 0.268310 -0.643525
O49   O     O_R   0.853970 0.585480 0.731690 -0.644128
O50   O     O_R   0.146030 0.414520 0.268310 -0.643952
O51   O     O_R   0.585480 0.146030 0.731690 -0.643863
O52   O     O_R   0.414520 0.853970 0.268310 -0.643525
C33   C     C_R   0.000001 0.500000 0.868346 -0.123059
C34   C     C_R   0.999999 0.500000 0.131637 -0.123578
C35   C     C_R   0.500000 0.999999 0.868366 -0.124596
C36   C     C_R   0.500000 1.000000 0.131634 -0.124369
C37   C     C_R   0.500000 1.000000 0.368360 -0.123580
C38   C     C_R   0.500000 0.000000 0.631652 -0.123088
C39   C     C_R   0.000000 0.500000 0.368366 -0.124574
C40   C     C_R   1.000000 0.500000 0.631634 -0.124358
C41   C     C_R   0.933322 0.501546 0.983743 0.280644
C42   C     C_R   0.066672 0.498270 0.016231 0.280567
C43   C     C_R   0.486183 0.065250 0.983758 0.279690
C44   C     C_R   0.513815 0.934745 0.016241 0.279793
C45   C     C_R   0.066676 0.498457 0.983744 0.280634
C46   C     C_R   0.933326 0.501734 0.016230 0.280566
C47   C     C_R   0.513816 0.934745 0.983758 0.279692
C48   C     C_R   0.486184 0.065251 0.016241 0.279793
C49   C     C_R   0.433317 0.001260 0.483766 0.280593
C50   C     C_R   0.566687 0.998927 0.516253 0.280651
C51   C     C_R   0.986200 0.434744 0.483758 0.279684
C52   C     C_R   0.013798 0.565256 0.516241 0.279819
C53   C     C_R   0.566685 0.998740 0.483766 0.280595
C54   C     C_R   0.433315 0.001074 0.516253 0.280649
C55   C     C_R   0.013799 0.565256 0.483758 0.279683
C56   C     C_R   0.986202 0.434744 0.516241 0.279819
C57   C     C_R   0.500001 0.000001 0.532420 -0.090682
C58   C     C_R   0.500001 0.000000 0.467598 -0.090750
C59   C     C_R   1.000000 0.500000 0.532407 -0.090155
C60   C     C_R   1.000000 0.500000 0.467592 -0.090221
C61   C     C_R   0.999999 0.500002 0.032399 -0.090564
C62   C     C_R   0.999999 0.500001 0.967576 -0.090889
C63   C     C_R   0.500000 0.999998 0.032407 -0.090132
C64   C     C_R   0.499999 0.999997 0.967592 -0.090253
C65   C     C_R   0.500000 1.000000 0.834249 0.855603
C66   C     C_R   0.500000 1.000000 0.165751 0.855528
C67   C     C_R   0.000000 0.500000 0.834242 0.854980
C68   C     C_R   1.000000 0.500000 0.165752 0.855211
C69   C     C_R   0.000000 0.500000 0.334249 0.855571
C70   C     C_R   1.000000 0.500000 0.665751 0.855557
C71   C     C_R   0.500000 0.000000 0.334247 0.855214
C72   C     C_R   0.500000 1.000000 0.665757 0.854991
C73   C     C_R   0.640104 0.140102 0.750000 0.798771
C74   C     C_R   0.359896 0.859897 0.250000 0.798467
C75   C     C_R   0.859896 0.640103 0.750000 0.798506
C76   C     C_R   0.140104 0.359898 0.250000 0.798792
C77   C     C_R   0.359896 0.859898 0.750000 0.798771
C78   C     C_R   0.640104 0.140103 0.250000 0.798467
C79   C     C_R   0.140103 0.359897 0.750000 0.798506
C80   C     C_R   0.859896 0.640102 0.250000 0.798792
C81   C     C_R   0.640103 0.859897 0.250000 0.799046
C82   C     C_R   0.359897 0.140103 0.750000 0.798766
C83   C     C_R   0.859897 0.359897 0.250000 0.798724
C84   C     C_R   0.140104 0.640103 0.750000 0.799025
C85   C     C_R   0.359897 0.140103 0.250000 0.799046
C86   C     C_R   0.640103 0.859897 0.750000 0.798766
C87   C     C_R   0.140103 0.640103 0.250000 0.798724
C88   C     C_R   0.859896 0.359897 0.750000 0.799024
C89   C     C_R   0.309693 0.256223 0.730001 -0.164020
C90   C     C_R   0.690357 0.743827 0.270028 -0.162845
C91   C     C_R   0.743830 0.309634 0.729967 -0.161998
C92   C     C_R   0.256220 0.690315 0.270002 -0.163001
C93   C     C_R   0.690307 0.743777 0.730001 -0.164021
C94   C     C_R   0.309643 0.256173 0.270028 -0.162844
C95   C     C_R   0.256169 0.690366 0.729967 -0.161998
C96   C     C_R   0.743780 0.309685 0.270002 -0.163001
C97   C     C_R   0.309688 0.743782 0.270002 -0.163445
C98   C     C_R   0.690364 0.256166 0.729967 -0.162285
C99   C     C_R   0.743823 0.690358 0.270028 -0.163345
C100  C     C_R   0.256225 0.309690 0.730001 -0.164358
C101  C     C_R   0.690312 0.256218 0.270002 -0.163444
C102  C     C_R   0.309636 0.743834 0.729967 -0.162285
C103  C     C_R   0.256177 0.309641 0.270028 -0.163345
C104  C     C_R   0.743775 0.690310 0.730001 -0.164358
C105  C     C_R   0.809641 0.756170 0.229970 -0.162279
C106  C     C_R   0.190309 0.243780 0.770000 -0.163401
C107  C     C_R   0.243777 0.809688 0.229999 -0.164319
C108  C     C_R   0.756172 0.190363 0.770031 -0.163268
C109  C     C_R   0.190359 0.243830 0.229970 -0.162279
C110  C     C_R   0.809691 0.756220 0.770000 -0.163401
C111  C     C_R   0.756223 0.190312 0.229999 -0.164320
C112  C     C_R   0.243828 0.809637 0.770031 -0.163268
C113  C     C_R   0.809638 0.243832 0.770031 -0.162845
C114  C     C_R   0.190310 0.756220 0.230000 -0.164062
C115  C     C_R   0.243777 0.190312 0.770001 -0.163036
C116  C     C_R   0.756174 0.809639 0.229970 -0.162072
C117  C     C_R   0.190362 0.756168 0.770031 -0.162845
C118  C     C_R   0.809690 0.243780 0.230000 -0.164061
C119  C     C_R   0.756223 0.809688 0.770001 -0.163036
C120  C     C_R   0.243826 0.190361 0.229970 -0.162073
H17   H     H_    0.355559 0.261902 0.714360 0.175764
H18   H     H_    0.644532 0.738190 0.285695 0.176427
H19   H     H_    0.738193 0.355453 0.714299 0.176813
H20   H     H_    0.261899 0.644454 0.285646 0.176408
H21   H     H_    0.644441 0.738098 0.714360 0.175764
H22   H     H_    0.355468 0.261810 0.285695 0.176427
H23   H     H_    0.261807 0.644547 0.714299 0.176813
H24   H     H_    0.738101 0.355546 0.285646 0.176408
H25   H     H_    0.355551 0.738106 0.285645 0.176046
H26   H     H_    0.644544 0.261799 0.714298 0.176609
H27   H     H_    0.738182 0.644536 0.285694 0.176169
H28   H     H_    0.261906 0.355553 0.714359 0.175691
H29   H     H_    0.644449 0.261894 0.285645 0.176045
H30   H     H_    0.355456 0.738201 0.714298 0.176609
H31   H     H_    0.261818 0.355464 0.285694 0.176169
H32   H     H_    0.738094 0.644447 0.714359 0.175691
H33   H     H_    0.855465 0.761808 0.214304 0.176658
H34   H     H_    0.144444 0.238101 0.785642 0.176035
H35   H     H_    0.238098 0.855548 0.214356 0.175722
H36   H     H_    0.761810 0.144544 0.785699 0.176164
H37   H     H_    0.144535 0.238192 0.214304 0.176658
H38   H     H_    0.855556 0.761899 0.785642 0.176035
H39   H     H_    0.761902 0.144452 0.214356 0.175722
H40   H     H_    0.238190 0.855456 0.785699 0.176164
H41   H     H_    0.855459 0.238198 0.785700 0.176382
H42   H     H_    0.144447 0.761897 0.214356 0.175778
H43   H     H_    0.238096 0.144449 0.785643 0.176380
H44   H     H_    0.761815 0.855462 0.214304 0.176821
H45   H     H_    0.144541 0.761802 0.785700 0.176381
H46   H     H_    0.855553 0.238103 0.214356 0.175778
H47   H     H_    0.761903 0.855551 0.785643 0.176380
H48   H     H_    0.238185 0.144538 0.214304 0.176820
C121  C     C_R   0.196255 0.303747 0.750000 -0.006144
C122  C     C_R   0.803744 0.696253 0.249999 -0.007027
C123  C     C_R   0.696256 0.196253 0.749999 -0.007020
C124  C     C_R   0.303744 0.803747 0.250000 -0.006181
C125  C     C_R   0.803744 0.696253 0.750000 -0.006144
C126  C     C_R   0.196256 0.303747 0.249999 -0.007027
C127  C     C_R   0.303743 0.803747 0.749999 -0.007020
C128  C     C_R   0.696256 0.196253 0.250000 -0.006181
C129  C     C_R   0.196254 0.696255 0.250001 -0.006293
C130  C     C_R   0.803745 0.303746 0.749999 -0.007131
C131  C     C_R   0.696254 0.803746 0.249999 -0.007137
C132  C     C_R   0.303746 0.196255 0.750001 -0.006255
C133  C     C_R   0.803746 0.303745 0.250001 -0.006293
C134  C     C_R   0.196254 0.696254 0.749999 -0.007131
C135  C     C_R   0.303746 0.196254 0.249999 -0.007137
C136  C     C_R   0.696253 0.803745 0.750001 -0.006255
C137  C     C_R   1.000000 0.499999 0.933469 -0.060590
C138  C     C_R   0.999999 0.500001 0.066507 -0.060244
C139  C     C_R   0.499999 0.999997 0.933488 -0.060140
C140  C     C_R   0.500000 0.999998 0.066512 -0.059915
C141  C     C_R   0.500001 0.000000 0.433490 -0.060421
C142  C     C_R   0.500001 0.000000 0.566527 -0.060384
C143  C     C_R   1.000000 0.500000 0.433488 -0.060102
C144  C     C_R   1.000000 0.500000 0.566512 -0.059927
Br1   Br    Br    0.842382 0.504733 0.961266 -0.273178
Br2   Br    Br    0.157664 0.496988 0.038704 -0.273402
Br3   Br    Br    0.469063 0.154653 0.961298 -0.272529
Br4   Br    Br    0.530930 0.845340 0.038701 -0.271745
Br5   Br    Br    0.157617 0.495270 0.961267 -0.273172
Br6   Br    Br    0.842333 0.503016 0.038704 -0.273401
Br7   Br    Br    0.530935 0.845341 0.961299 -0.272526
Br8   Br    Br    0.469069 0.154656 0.038700 -0.271746
Br9   Br    Br    0.342320 0.001894 0.461291 -0.273346
Br10  Br    Br    0.657649 0.996382 0.538729 -0.273488
Br11  Br    Br    0.969104 0.345337 0.461298 -0.272611
Br12  Br    Br    0.030890 0.654665 0.538701 -0.271541
Br13  Br    Br    0.657682 0.998107 0.461291 -0.273345
Br14  Br    Br    0.342353 0.003619 0.538729 -0.273490
Br15  Br    Br    0.030895 0.654663 0.461298 -0.272611
Br16  Br    Br    0.969110 0.345335 0.538701 -0.271541
N1    N     N_R   0.023938 0.634297 0.932844 0.236988
O53   O     O_R   0.990080 0.649583 0.958546 -0.293393
O54   O     O_R   0.063411 0.684766 0.919853 -0.309916
N2    N     N_R   0.982312 0.635266 0.067131 0.236941
O55   O     O_R   0.016858 0.648931 0.041430 -0.294203
O56   O     O_R   0.945314 0.687564 0.080131 -0.308122
N3    N     N_R   0.636331 0.003439 0.932884 0.236417
O57   O     O_R   0.644455 0.040237 0.958446 -0.293212
O58   O     O_R   0.693721 0.974681 0.920003 -0.308634
N4    N     N_R   0.363667 0.996619 0.067116 0.235991
O59   O     O_R   0.306292 0.025412 0.079995 -0.307156
O60   O     O_R   0.355525 0.959819 0.041555 -0.294418
N5    N     N_R   0.976066 0.365699 0.932844 0.237002
O61   O     O_R   0.936620 0.315218 0.919847 -0.309931
O62   O     O_R   0.009904 0.350425 0.958552 -0.293395
N6    N     N_R   0.017685 0.364737 0.067131 0.236941
O63   O     O_R   0.054682 0.312437 0.080130 -0.308123
O64   O     O_R   0.983139 0.351072 0.041429 -0.294199
N7    N     N_R   0.363668 0.996555 0.932884 0.236417
O65   O     O_R   0.355544 0.959756 0.958446 -0.293212
O66   O     O_R   0.306277 0.025313 0.920003 -0.308634
N8    N     N_R   0.636332 0.003377 0.067115 0.235992
O67   O     O_R   0.693708 0.974585 0.079995 -0.307156
O68   O     O_R   0.644474 0.040177 0.041555 -0.294418
N9    N     N_R   0.518545 0.864851 0.432866 0.237020
O69   O     O_R   0.555882 0.812794 0.419866 -0.309649
O70   O     O_R   0.484093 0.850965 0.458569 -0.293481
N10   N     N_R   0.476888 0.865559 0.567152 0.236934
O71   O     O_R   0.437743 0.814838 0.580145 -0.308253
O72   O     O_R   0.510835 0.850491 0.541448 -0.294054
N11   N     N_R   0.136332 0.496576 0.432884 0.236396
O73   O     O_R   0.193718 0.525343 0.420003 -0.308510
O74   O     O_R   0.144462 0.459779 0.458446 -0.293341
N12   N     N_R   0.863667 0.503359 0.567116 0.235989
O75   O     O_R   0.855518 0.540156 0.541555 -0.294523
O76   O     O_R   0.806296 0.474558 0.579995 -0.307082
N13   N     N_R   0.481457 0.135149 0.432866 0.237019
O77   O     O_R   0.515912 0.149036 0.458568 -0.293481
O78   O     O_R   0.444118 0.187205 0.419867 -0.309648
N14   N     N_R   0.523115 0.134442 0.567152 0.236933
O79   O     O_R   0.562261 0.185161 0.580145 -0.308252
O80   O     O_R   0.489169 0.149510 0.541448 -0.294054
N15   N     N_R   0.863668 0.503424 0.432884 0.236396
O81   O     O_R   0.806282 0.474657 0.420003 -0.308509
O82   O     O_R   0.855537 0.540221 0.458446 -0.293341
N16   N     N_R   0.136333 0.496641 0.567116 0.235990
O83   O     O_R   0.144481 0.459844 0.541555 -0.294523
O84   O     O_R   0.193704 0.525442 0.579995 -0.307082

loop_
_geom_bond_atom_site_label_1
_geom_bond_atom_site_label_2
_geom_bond_distance
_ccdc_geom_bond_type
C35   C65   1.471500 S    
N16   O84   1.301517 A    
C111  C128  1.401779 A    
C112  H40   1.083146 S    
C109  C126  1.401782 A    
O47   C77   1.280067 A    
C91   H19   1.083149 S    
N9    O69   1.301566 A    
C54   Br14  1.929635 S    
C41   C62   1.407707 A    
C28   N12   1.442002 S    
C47   Br7   1.929809 S    
Zn11  O22   1.934137 S    
C6    H6    1.083134 S    
C115  H43   1.083148 S    
C5    C33   1.399603 A    
Zn2   O52   1.934115 S    
C14   C38   1.399623 A    
O6    C66   1.285548 A    
C57   C142  1.471107 S    
O32   C84   1.280067 A    
C2    C34   1.399752 A    
Zn10  O7    1.941003 S    
Zn16  O25   1.934137 S    
Zn12  O9    1.940999 S    
C104  C125  1.401776 A    
C106  C121  1.401783 A    
Zn6   O48   1.934114 S    
C81   C131  1.456008 S    
C106  C115  1.386427 A    
C104  H32   1.083149 S    
C99   H27   1.083145 S    
N12   O76   1.301517 A    
C8    C36   1.399956 A    
O45   C79   1.280076 A    
C9    H9    1.083134 S    
O46   C80   1.280076 A    
C42   C45   1.401212 A    
Zn15  O2    1.942438 S    
C12   H12   1.083084 S    
C13   H13   1.083135 S    
N14   O79   1.301568 A    
C118  H46   1.083147 S    
C51   Br11  1.929806 S    
Zn7   O42   1.934135 S    
C21   C137  1.417658 A    
C21   N5    1.442167 S    
C97   C124  1.401786 A    
Zn5   O1    1.942482 S    
Zn10  O27   1.934097 S    
C61   C138  1.471146 S    
N8    O67   1.301515 A    
C107  H35   1.083149 S    
C4    C36   1.399957 A    
C6    C34   1.399751 A    
O44   C82   1.280068 A    
Zn6   O19   1.941003 S    
Zn11  O10   1.940999 S    
C44   C63   1.407779 A    
C7    C23   1.398557 A    
C8    C24   1.398552 A    
Zn16  O30   1.934118 S    
C111  H39   1.083145 S    
C82   C132  1.456008 S    
C92   H20   1.083148 S    
N6    O64   1.301103 A    
C109  H37   1.083150 S    
C120  H48   1.083146 S    
C3    H3    1.083082 S    
C50   C57   1.407714 A    
N4    O60   1.301156 A    
O20   C72   1.285444 A    
C28   C144  1.417312 A    
C25   C141  1.417629 A    
O23   C75   1.280068 A    
O24   C76   1.280068 A    
C77   C127  1.456023 S    
O15   C71   1.285532 A    
O41   C83   1.280074 A    
C90   H18   1.083146 S    
Zn16  O1    1.942437 S    
Zn1   O51   1.934114 S    
C76   C126  1.456009 S    
C9    C37   1.399733 A    
C53   C58   1.407729 A    
O43   C81   1.280068 A    
O36   C88   1.280067 A    
Zn9   O8    1.941003 S    
Zn8   O41   1.934137 S    
C27   N11   1.442005 S    
C6    C22   1.398835 A    
C95   C102  1.386433 A    
C102  H30   1.083148 S    
C49   C58   1.407727 A    
C93   C104  1.386423 A    
C26   C142  1.417643 A    
C52   C59   1.407779 A    
C31   C143  1.417312 A    
C106  H34   1.083147 S    
C20   N4    1.442001 S    
N13   O78   1.301565 A    
O19   C71   1.285530 A    
C114  C129  1.401785 A    
C18   N2    1.442207 S    
O17   C69   1.285548 A    
C94   H22   1.083149 S    
C55   C60   1.407773 A    
C96   H24   1.083147 S    
O13   C69   1.285550 A    
C89   C100  1.386423 A    
O11   C67   1.285427 A    
Zn1   O1    1.942480 S    
Zn14  O3    1.942478 S    
C79   C121  1.456009 S    
C23   N7    1.442006 S    
N10   O72   1.301096 A    
N1    O53   1.301092 A    
C22   C138  1.417630 A    
C55   Br15  1.929807 S    
C9    C25   1.398830 A    
C103  C126  1.401780 A    
Zn9   O28   1.934098 S    
C42   C61   1.407739 A    
C98   C123  1.401788 A    
C101  C128  1.401786 A    
C12   C28   1.398552 A    
C13   C29   1.398826 A    
Zn4   O17   1.940999 S    
C112  C127  1.401781 A    
C15   C31   1.398556 A    
N2    O55   1.301103 A    
C16   C32   1.398552 A    
C1    C17   1.398817 A    
Zn4   O4    1.942435 S    
Zn5   O20   1.941003 S    
C93   C136  1.401783 A    
C4    H4    1.083084 S    
O52   C74   1.280068 A    
Zn8   O46   1.934118 S    
C2    H2    1.083131 S    
C17   N1    1.442154 S    
N5    O61   1.301580 A    
C86   C136  1.456008 S    
C33   C67   1.470960 S    
O49   C75   1.280076 A    
C34   C68   1.471418 S    
O50   C76   1.280076 A    
C115  C132  1.401778 A    
C89   C132  1.401783 A    
C24   C140  1.417312 A    
Zn8   O13   1.940999 S    
C78   C128  1.456025 S    
C44   C47   1.401049 A    
C10   H10   1.083163 S    
O40   C86   1.280068 A    
C107  C124  1.401778 A    
Zn15  O6    1.940999 S    
C30   C142  1.417643 A    
N10   O71   1.301569 A    
C48   C63   1.407779 A    
C14   H14   1.083161 S    
Zn2   O2    1.942479 S    
O31   C83   1.280069 A    
C12   C40   1.399958 A    
C113  H41   1.083147 S    
C50   Br10  1.929635 S    
C84   C134  1.456023 S    
C95   C134  1.401781 A    
Zn11  O33   1.934118 S    
Zn3   O38   1.934137 S    
Zn7   O3    1.942438 S    
O34   C86   1.280074 A    
C118  C133  1.401785 A    
C41   Br1   1.929646 S    
N3    O57   1.301156 A    
O39   C85   1.280068 A    
C97   H25   1.083146 S    
C112  C117  1.386432 A    
C26   N10   1.442161 S    
Zn13  O4    1.942482 S    
C110  C125  1.401783 A    
C107  C114  1.386432 A    
C29   C141  1.417629 A    
C19   C139  1.417310 A    
O30   C82   1.280074 A    
C50   C53   1.401217 A    
N15   O82   1.301155 A    
N8    O68   1.301155 A    
C31   N15   1.442004 S    
Zn4   O50   1.934120 S    
C99   C122  1.401780 A    
C102  C127  1.401788 A    
C100  H28   1.083149 S    
O12   C68   1.285549 A    
N14   O80   1.301098 A    
Zn14  O32   1.934114 S    
C60   C143  1.470973 S    
Zn2   O15   1.941003 S    
C22   N6    1.442207 S    
C120  C135  1.401781 A    
O7    C67   1.285425 A    
C94   C135  1.401781 A    
O8    C68   1.285547 A    
C13   C37   1.399732 A    
C56   C59   1.407778 A    
Zn12  O34   1.934120 S    
Zn11  O2    1.942439 S    
C1    C33   1.399599 A    
C43   C64   1.407775 A    
C29   N13   1.442197 S    
N16   O83   1.301155 A    
C3    C35   1.399955 A    
C49   C54   1.401217 A    
C15   H15   1.083085 S    
C46   C61   1.407739 A    
O38   C88   1.280076 A    
C16   H16   1.083084 S    
O27   C79   1.280068 A    
C51   C56   1.401049 A    
C1    H1    1.083173 S    
C52   C55   1.401049 A    
C25   N9    1.442198 S    
C105  C122  1.401785 A    
C116  C131  1.401782 A    
O25   C77   1.280076 A    
C90   C131  1.401785 A    
N9    O70   1.301097 A    
C92   C97   1.386433 A    
Zn16  O5    1.940999 S    
N11   O73   1.301514 A    
C108  H36   1.083146 S    
N7    O66   1.301517 A    
N7    O65   1.301156 A    
O14   C70   1.285548 A    
C58   C141  1.471129 S    
C119  H47   1.083148 S    
C113  C130  1.401785 A    
C18   C138  1.417631 A    
C117  H45   1.083147 S    
C88   C130  1.456022 S    
Zn4   O37   1.934135 S    
C108  C113  1.386433 A    
Zn10  O36   1.934115 S    
C10   C26   1.398819 A    
C45   C62   1.407706 A    
C94   C103  1.386426 A    
O26   C78   1.280074 A    
C14   C30   1.398819 A    
C62   C137  1.471094 S    
C80   C122  1.456009 S    
C54   C57   1.407713 A    
C100  C121  1.401776 A    
C45   Br5   1.929645 S    
C2    C18   1.398831 A    
C39   C69   1.471504 S    
N12   O75   1.301154 A    
C37   C71   1.471357 S    
O9    C65   1.285550 A    
C38   C72   1.471021 S    
C90   C99   1.386426 A    
Zn15  O29   1.934120 S    
C92   C129  1.401779 A    
Zn12  O1    1.942435 S    
C36   C66   1.471500 S    
O5    C65   1.285548 A    
Zn14  O11   1.941003 S    
C110  H38   1.083147 S    
C20   C140  1.417311 A    
C7    C35   1.399956 A    
N13   O77   1.301098 A    
C43   Br3   1.929809 S    
O37   C87   1.280074 A    
C44   Br4   1.929812 S    
C87   C129  1.456022 S    
Zn7   O14   1.940999 S    
N15   O81   1.301516 A    
C46   Br6   1.929651 S    
C11   H11   1.083085 S    
C5    H5    1.083173 S    
Zn1   O16   1.941003 S    
C89   H17   1.083148 S    
C10   C38   1.399622 A    
C75   C125  1.456009 S    
C32   N16   1.442004 S    
C40   C70   1.471500 S    
N3    O58   1.301516 A    
C16   C40   1.399956 A    
C111  C118  1.386432 A    
C103  H31   1.083147 S    
Zn10  O3    1.942479 S    
C109  C120  1.386427 A    
C101  H29   1.083147 S    
Zn12  O21   1.934135 S    
O51   C73   1.280067 A    
N6    O63   1.301572 A    
N2    O56   1.301573 A    
Zn14  O23   1.934098 S    
N4    O59   1.301515 A    
C105  H33   1.083147 S    
O35   C87   1.280069 A    
C95   H23   1.083149 S    
Zn2   O43   1.934097 S    
O33   C85   1.280074 A    
C42   Br2   1.929649 S    
C93   H21   1.083147 S    
C43   C48   1.401049 A    
C8    H8    1.083083 S    
C41   C46   1.401212 A    
C73   C123  1.456023 S    
C91   C130  1.401781 A    
O28   C80   1.280068 A    
Zn5   O40   1.934097 S    
O29   C81   1.280074 A    
Zn9   O35   1.934114 S    
C19   N3    1.442004 S    
O16   C72   1.285443 A    
C52   Br12  1.929811 S    
Zn3   O49   1.934118 S    
C11   C39   1.399953 A    
C108  C123  1.401781 A    
Zn5   O47   1.934115 S    
C24   N8    1.442003 S    
Zn6   O39   1.934098 S    
C23   C139  1.417311 A    
Zn7   O45   1.934120 S    
N11   O74   1.301155 A    
O42   C84   1.280075 A    
C48   Br8   1.929812 S    
C17   C137  1.417651 A    
C96   C133  1.401779 A    
C49   Br9   1.929637 S    
Zn13  O12   1.941003 S    
Zn3   O18   1.940999 S    
C47   C64   1.407775 A    
O22   C74   1.280074 A    
C91   C98   1.386433 A    
C105  C116  1.386427 A    
C51   C60   1.407774 A    
Zn8   O4    1.942437 S    
N1    O54   1.301586 A    
C63   C140  1.470982 S    
C27   C143  1.417312 A    
C98   H26   1.083148 S    
Zn3   O3    1.942439 S    
C59   C144  1.470982 S    
C114  H42   1.083145 S    
O48   C78   1.280068 A    
C83   C133  1.456022 S    
C56   Br16  1.929810 S    
Zn9   O4    1.942480 S    
C15   C39   1.399955 A    
C4    C20   1.398552 A    
C11   C27   1.398556 A    
Zn15  O26   1.934135 S    
C5    C21   1.398817 A    
C7    H7    1.083083 S    
C110  C119  1.386427 A    
Zn13  O24   1.934097 S    
C53   Br13  1.929637 S    
N5    O62   1.301093 A    
C96   C101  1.386433 A    
Zn1   O44   1.934098 S    
C119  C136  1.401778 A    
O18   C70   1.285550 A    
C3    C19   1.398556 A    
Zn6   O2    1.942478 S    
C116  H44   1.083146 S    
Zn13  O31   1.934115 S    
C64   C139  1.470978 S    
C30   N14   1.442159 S    
C117  C134  1.401785 A    
O21   C73   1.280076 A    
O10   C66   1.285550 A    
C85   C135  1.456009 S    
C32   C144  1.417312 A    
C74   C124  1.456025 S    
