data_mof_unit_pretest_753.cif
_audit_creation_date              2012-12-11T14:47:59-0500
_audit_creation_method            fapswitch 2.2
_symmetry_space_group_name_H-M    P1
_symmetry_Int_Tables_number       1
_space_group_crystal_system       triclinic
_cell_length_a                    11.501881
_cell_length_b                    11.53223
_cell_length_c                    19.474454
_cell_angle_alpha                 90.21725
_cell_angle_beta                  89.507207
_cell_angle_gamma                 59.721481
_cell_volume                      2230.57620129

loop_
_atom_site_label
_atom_site_type_symbol
_atom_type_description
_atom_site_fract_x
_atom_site_fract_y
_atom_site_fract_z
_atom_type_partial_charge
C1    C     C_R   0.641842 0.119096 0.598364 0.533867
C2    C     C_1   0.641692 0.702183 0.667603 0.004131
C3    C     C_1   0.127443 0.198827 0.859366 0.004033
C4    C     C_1   0.169581 0.170881 0.727449 -0.031261
C5    C     C_1   0.149804 0.182502 0.798803 -0.031202
C6    C     C_1   0.192868 0.161710 0.666936 0.003539
C7    C     C_1   0.715145 0.218881 0.851963 0.000301
C8    C     C_1   0.678801 0.185412 0.722549 -0.030041
C9    C     C_1   0.697318 0.206014 0.792165 -0.029559
C10   C     C_1   0.662895 0.160383 0.664411 -0.003286
C11   C     C_R   0.601108 0.591293 0.318521 -0.192898
C12   C     C_R   0.612854 0.745053 0.598370 0.531000
C13   C     C_R   0.606309 0.557951 0.249836 -0.016093
C14   C     C_R   0.703523 0.564705 0.206611 -0.036406
C15   C     C_R   0.795880 0.595290 0.235641 -0.147684
C16   C     C_R   0.774278 0.650324 0.301272 0.241032
C17   C     C_R   0.672990 0.650723 0.342488 0.013211
C18   C     C_R   0.134301 0.296026 0.304747 -0.010400
C19   C     C_R   0.123401 0.306486 0.234494 -0.119503
C20   C     C_R   0.140620 0.199088 0.193490 -0.049471
C21   C     C_R   0.180757 0.072976 0.223380 -0.022548
C22   C     C_R   0.197587 0.060423 0.294513 -0.093258
C23   C     C_R   0.239345 0.146000 0.597759 0.537944
C24   C     C_R   0.178037 0.169738 0.335172 -0.023101
C25   C     C_R   0.774420 0.183006 0.324372 0.236739
C26   C     C_R   0.797225 0.208034 0.256970 -0.125139
C27   C     C_R   0.710297 0.217372 0.204527 -0.030451
C28   C     C_R   0.600599 0.200532 0.218658 -0.140768
C29   C     C_R   0.578462 0.173001 0.285038 -0.193482
C30   C     C_R   0.666910 0.159926 0.337574 -0.001166
C31   C     C_R   0.082769 0.230902 0.928807 0.543272
C32   C     C_R   0.683670 0.605477 0.929647 0.546600
C33   C     C_R   0.741205 0.231515 0.922718 0.555842
C34   C     C_R   0.646243 0.114613 0.403531 0.528424
C35   C     C_R   0.085379 0.234527 0.124656 0.508146
C36   C     C_R   0.711154 0.543902 0.132392 0.546914
C37   C     C_R   0.739973 0.236479 0.134533 0.526721
C38   C     C_R   0.620692 0.734002 0.403839 0.547350
C39   C     C_R   0.240588 0.142535 0.402438 0.514520
C40   C     C_1   0.671031 0.646875 0.860125 0.004891
C41   C     C_1   0.655555 0.682127 0.728117 -0.031047
C42   C     C_1   0.664357 0.666155 0.799488 -0.030919
Cr1   Cr    Cr6+3 0.404720 0.198220 0.499960 1.029715
Cr2   Cr    Cr6+3 0.698290 0.897110 0.500380 1.040958
Cr3   Cr    Cr6+3 0.396970 0.904720 0.499610 1.023585
Cr4   Cr    Cr6+3 0.926180 0.152240 0.028110 1.026593
Cr5   Cr    Cr6+3 0.921340 0.452070 0.027460 1.027448
Cr6   Cr    Cr6+3 0.626260 0.447120 0.028700 1.082369
H1    H     H_    0.527514 0.586221 0.351738 0.130328
H2    H     H_    0.881841 0.221753 0.245598 0.126261
H3    H     H_    0.533931 0.206252 0.178167 0.161287
H4    H     H_    0.495190 0.156227 0.294979 0.147889
H5    H     H_    0.877246 0.590810 0.205243 0.149056
H6    H     H_    0.093307 0.403363 0.212265 0.179853
H7    H     H_    0.235316 0.962658 0.317555 0.176862
O1    O     O_R   0.267740 0.231990 0.575440 -0.507608
O2    O     O_R   0.685970 0.784630 0.430010 -0.457400
O3    O     O_R   0.502530 0.766960 0.423990 -0.532810
O4    O     O_R   0.288330 0.026310 0.429250 -0.498444
O5    O     O_3   0.499990 0.000020 0.499980 -0.249634
O6    O     O_R   0.821500 0.119550 0.952820 -0.487570
O7    O     O_R   0.037130 0.162750 0.957360 -0.509080
O8    O     O_R   0.056440 0.344950 0.951330 -0.493898
O9    O     O_R   0.797900 0.560570 0.957460 -0.487218
O10   O     O_R   0.596140 0.579600 0.952720 -0.506191
O11   O     O_R   0.639070 0.321380 0.958660 -0.479653
O12   O     O_R   0.527280 0.186680 0.570530 -0.495564
O13   O     O_R   0.821240 0.124490 0.104360 -0.489670
O14   O     O_R   0.036900 0.167320 0.097830 -0.528686
O15   O     O_R   0.056190 0.349890 0.102870 -0.519735
O16   O     O_R   0.797670 0.565150 0.097930 -0.509067
O17   O     O_R   0.595880 0.584540 0.104260 -0.433728
O18   O     O_R   0.638830 0.325960 0.099140 -0.475844
O19   O     O_3   0.824590 0.350480 0.028090 -0.323706
O20   O     O_R   0.728090 0.003480 0.576380 -0.506425
O21   O     O_R   0.682970 0.789220 0.570490 -0.497795
O22   O     O_R   0.499290 0.771920 0.575530 -0.508729
O23   O     O_R   0.285330 0.030900 0.569730 -0.491483
O24   O     O_R   0.270980 0.227040 0.423900 -0.521021
O25   O     O_R   0.530280 0.182090 0.430050 -0.501679
O26   O     O_R   0.731330 0.998530 0.424830 -0.511200
C43   C     C_2   0.504067 0.521816 0.229564 0.272384
H8    H     H_    0.482658 0.461523 0.264352 0.108746
O27   O     O_2   0.432211 0.569397 0.179796 -0.414229
O28   O     O_3   0.853034 0.701311 0.325143 -0.530159
C44   C     C_3   0.837393 0.809415 0.283754 0.024380
H9    H     H_    0.762457 0.903965 0.308473 0.167471
H10   H     H_    0.798637 0.812473 0.231168 0.097487
C45   C     C_3   0.971362 0.806571 0.275557 -0.204396
H11   H     H_    0.044524 0.713336 0.247741 0.222874
H12   H     H_    0.955261 0.893040 0.243614 0.151837
C46   C     C_3   0.030551 0.814500 0.344183 -0.329267
H13   H     H_    0.965537 0.913242 0.369165 0.190032
H14   H     H_    0.131522 0.802511 0.335305 0.163847
H15   H     H_    0.041277 0.734341 0.379370 0.212089
C47   C     C_2   0.103990 0.418537 0.344309 0.280131
H16   H     H_    0.058910 0.436557 0.395226 0.122006
O29   O     O_2   0.134338 0.497964 0.321127 -0.516341
C48   C     C_2   0.213577 0.952272 0.181396 0.259122
H17   H     H_    0.232455 0.950152 0.126638 0.139732
O30   O     O_2   0.222001 0.852479 0.207758 -0.496910
O31   O     O_3   0.862395 0.175495 0.374739 -0.584639
C49   C     C_3   0.792557 0.269300 0.428407 0.016654
H18   H     H_    0.783058 0.214988 0.473167 0.155604
H19   H     H_    0.689700 0.351040 0.414002 0.113998
C50   C     C_3   0.873696 0.334734 0.449656 -0.265449
H20   H     H_    0.977127 0.255866 0.463724 0.176364
H21   H     H_    0.880073 0.391852 0.405469 0.155488
C51   C     C_3   0.808358 0.430040 0.510684 -0.467546
H22   H     H_    0.703888 0.508710 0.498282 0.159692
H23   H     H_    0.867266 0.479422 0.523140 0.156801
H24   H     H_    0.806196 0.373737 0.556371 0.145042

loop_
_geom_bond_atom_site_label_1
_geom_bond_atom_site_label_2
_ccdc_geom_bond_type
Cr3   O5    S    
C18   C47   S    
C41   C42   S    
C19   C20   A    
C2    C12   S    
C23   O1    A    
O28   C44   S    
C26   C27   A    
Cr4   O7    S    
C18   C24   A    
C15   H5    S    
C28   C29   A    
Cr2   O5    S    
C26   H2    S    
Cr5   O8    S    
C21   C48   S    
C28   H3    S    
C44   H10   S    
C25   O31   S    
C50   H20   S    
C2    C41   T    
Cr1   O24   S    
C15   C16   A    
C37   O13   A    
C24   C39   S    
C18   C19   A    
Cr2   O21   S    
Cr4   O14   S    
C34   O25   A    
C38   O3    A    
C20   C35   S    
C11   C17   A    
C35   O15   A    
C8    C9    S    
C47   O29   D    
Cr3   O23   S    
C34   O26   A    
Cr6   O10   S    
C45   H12   S    
C36   O16   A    
C40   C42   T    
C21   C22   A    
C12   O22   A    
C7    C33   S    
C31   O7    A    
Cr6   O17   S    
C33   O11   A    
Cr3   O3    S    
C30   C34   S    
Cr4   O6    S    
C1    O20   A    
Cr6   O19   S    
C32   O9    A    
C4    C6    T    
Cr2   O26   S    
C51   H24   S    
Cr5   O9    S    
C44   H9    S    
C16   C17   A    
Cr1   O25   S    
C13   C43   S    
C46   H15   S    
C39   O24   A    
Cr2   O20   S    
Cr5   O15   S    
Cr4   O13   S    
C29   C30   A    
C11   H1    S    
C31   O8    A    
C38   O2    A    
C48   H17   S    
Cr2   O2    S    
C39   O4    A    
C47   H16   S    
C46   H14   S    
C49   H19   S    
C45   C46   S    
C3    C31   S    
Cr5   O16   S    
Cr1   O5    S    
C19   H6    S    
C8    C10   T    
C48   O30   D    
C43   O27   D    
C12   O21   A    
C16   O28   S    
C22   C24   A    
Cr4   O19   S    
C25   C30   A    
C7    C9    T    
C37   O18   A    
Cr3   O4    S    
Cr6   O18   S    
C1    C10   S    
Cr5   O19   S    
C4    C5    S    
C3    C5    T    
C44   C45   S    
C22   H7    S    
C51   H23   S    
C25   C26   A    
C51   H22   S    
C14   C36   S    
C11   C13   A    
C50   H21   S    
C27   C37   S    
C33   O6    A    
C6    C23   S    
C46   H13   S    
C1    O12   A    
C49   C50   S    
C17   C38   S    
C32   C40   S    
C23   O23   A    
O31   C49   S    
Cr1   O1    S    
C20   C21   A    
C35   O14   A    
Cr1   O12   S    
C43   H8    S    
C49   H18   S    
C14   C15   A    
Cr3   O22   S    
Cr6   O11   S    
C45   H11   S    
C13   C14   A    
C50   C51   S    
C36   O17   A    
C32   O10   A    
C27   C28   A    
C29   H4    S    
