data_mof_unit_pretest_1298.cif
_audit_creation_date              2013-03-05T16:01:47-0500
_audit_creation_method            fapswitch 2.2
_symmetry_space_group_name_H-M    P1
_symmetry_Int_Tables_number       1
_space_group_crystal_system       triclinic
_cell_length_a                    14.999941
_cell_length_b                    14.024327
_cell_length_c                    11.544056
_cell_angle_alpha                 89.95664
_cell_angle_beta                  90.038959
_cell_angle_gamma                 90.339568
_cell_volume                      2428.41079357

loop_
_atom_site_label
_atom_site_type_symbol
_atom_site_description
_atom_site_fract_x
_atom_site_fract_y
_atom_site_fract_z
_atom_type_partial_charge
O1    O     O_R   0.367850 0.580280 0.500030 -0.631678
O2    O     O_R   0.632150 0.419720 0.499970 -0.637782
O3    O     O_R   0.632150 0.580280 0.499970 -0.574909
O4    O     O_R   0.367850 0.419720 0.500030 -0.580737
C1    C     C_R   0.326817 0.499651 0.497609 0.937485
C2    C     C_R   0.673185 0.500330 0.502446 0.939753
O5    O     O_R   0.500010 0.580270 0.334450 -0.639467
O6    O     O_R   0.499990 0.419730 0.665550 -0.630616
O7    O     O_R   0.499990 0.580270 0.665550 -0.605659
O8    O     O_R   0.500010 0.419730 0.334450 -0.595763
C3    C     C_R   0.500067 0.500033 0.281749 0.933002
C4    C     C_R   0.499932 0.499980 0.718251 0.932453
Zn1   Zn    Zn3+2 0.500000 0.607200 0.500000 1.004173
Zn2   Zn    Zn3+2 0.500000 0.392800 0.500000 1.006476
C5    C     C_1   0.500043 0.500103 0.161393 -0.123948
C6    C     C_1   0.499955 0.499982 0.838607 -0.124313
C7    C     C_1   0.500015 0.500114 0.059280 0.040955
C8    C     C_1   0.499984 0.500055 0.940720 0.040656
C9    C     C_R   0.812869 0.433229 0.439347 -0.234975
C10   C     C_R   0.187145 0.566601 0.560945 -0.229368
C11   C     C_R   0.768757 0.501065 0.505321 -0.190149
C12   C     C_R   0.231250 0.498803 0.494929 -0.195861
C13   C     C_R   0.815256 0.569794 0.570093 0.295860
C14   C     C_R   0.184747 0.429868 0.430488 0.288668
C15   C     C_R   0.908412 0.569163 0.568674 -0.040913
C16   C     C_R   0.091602 0.430491 0.431956 -0.047224
C17   C     C_R   0.953400 0.500717 0.500359 0.012858
C18   C     C_R   0.046612 0.498961 0.500214 0.013969
C19   C     C_R   0.905152 0.433654 0.432857 0.012222
C20   C     C_R   0.094869 0.566067 0.567623 0.012939
C21   C     C_R   0.957181 0.633669 0.636852 -0.193914
C22   C     C_R   0.042859 0.365987 0.363792 -0.194390
C23   C     C_R   0.049794 0.632330 0.638026 0.294779
C24   C     C_R   0.950257 0.367378 0.362488 0.310656
H1    H     H_    0.773992 0.380626 0.392509 0.204343
H2    H     H_    0.226024 0.619240 0.607706 0.213277
H3    H     H_    0.923818 0.684143 0.692605 0.229305
H4    H     H_    0.076251 0.315541 0.308030 0.231919
C25   C     C_R   0.542231 0.798345 0.413211 0.048042
C26   C     C_R   0.456380 0.201652 0.585607 0.048598
C27   C     C_R   0.457677 0.797695 0.586711 0.039825
C28   C     C_R   0.543321 0.202325 0.414127 0.039769
N1    N     N_R   0.500000 0.750030 0.500000 -0.124983
N2    N     N_R   0.500000 0.249970 0.500000 -0.124079
C29   C     C_R   0.456836 0.898434 0.589440 -0.115799
C30   C     C_R   0.544342 0.101579 0.411518 -0.109831
C31   C     C_R   0.542896 0.899099 0.410326 -0.112240
C32   C     C_R   0.455210 0.100888 0.588070 -0.111251
C33   C     C_R   0.499896 0.949435 0.499903 -0.051958
C34   C     C_R   0.499863 0.050565 0.499869 -0.048767
C35   C     C_R   0.414301 0.948943 0.679420 0.418480
C36   C     C_R   0.588699 0.051085 0.323034 0.390739
C37   C     C_R   0.584905 0.950270 0.319926 0.422534
C38   C     C_R   0.410335 0.049698 0.676104 0.397989
H5    H     H_    0.575314 0.757869 0.346250 0.173130
H6    H     H_    0.422594 0.242155 0.651945 0.170121
H7    H     H_    0.424548 0.756711 0.653636 0.174991
H8    H     H_    0.577006 0.243354 0.347713 0.172134
N3    N     N_R   0.767885 0.637017 0.640561 0.203283
O9    O     O_R   0.718363 0.607257 0.725901 -0.390414
O10   O     O_R   0.769611 0.727322 0.614679 -0.367181
N4    N     N_R   0.232091 0.362333 0.360421 0.205287
O11   O     O_R   0.230206 0.272119 0.386775 -0.381515
O12   O     O_R   0.281777 0.391720 0.275061 -0.380188
N5    N     N_R   0.096498 0.697061 0.713488 0.207513
O13   O     O_R   0.070041 0.784933 0.722678 -0.343142
O14   O     O_R   0.153568 0.664420 0.788423 -0.370035
N6    N     N_R   0.903645 0.302749 0.286820 0.186845
O15   O     O_R   0.930662 0.215138 0.276776 -0.389188
O16   O     O_R   0.846530 0.335515 0.212028 -0.397568
O17   O     O_3   0.371911 0.900038 0.767911 -0.578339
C39   C     C_3   0.431682 0.892217 0.861749 -0.237243
H9    H     H_    0.449933 0.963521 0.897086 0.189683
H10   H     H_    0.492801 0.852500 0.836835 0.145404
H11   H     H_    0.398501 0.851496 0.932132 0.199529
O18   O     O_3   0.631117 0.099984 0.234597 -0.619196
C40   C     C_3   0.722043 0.109647 0.263499 -0.116793
H12   H     H_    0.754785 0.038971 0.271986 0.195905
H13   H     H_    0.731111 0.151798 0.344402 0.142236
H14   H     H_    0.756145 0.148798 0.192586 0.240401
O19   O     O_3   0.626689 0.902029 0.230933 -0.589273
C41   C     C_3   0.566208 0.893364 0.137883 -0.255267
H15   H     H_    0.547505 0.964407 0.102738 0.195647
H16   H     H_    0.505385 0.852689 0.163622 0.138054
H17   H     H_    0.598934 0.853215 0.067085 0.201517
O20   O     O_3   0.366570 0.097943 0.763428 -0.609313
C42   C     C_3   0.275973 0.105858 0.732432 -0.180369
H18   H     H_    0.243445 0.034541 0.725706 0.210938
H19   H     H_    0.267779 0.146081 0.649923 0.157777
H20   H     H_    0.240978 0.146132 0.801244 0.203476

loop_
_geom_bond_atom_site_label_1
_geom_bond_atom_site_label_2
_geom_bond_distance
_ccdc_geom_bond_type
C15   C21   1.401942 A    
C42   H18   1.112982 S    
C16   C22   1.401633 A    
C17   C19   1.416981 A    
O3    C2    1.282574 A    
C28   H8    1.081946 S    
O19   C41   1.410394 S    
C23   N5    1.437572 S    
C31   C33   1.411060 A    
C10   C20   1.386304 A    
C40   H12   1.113018 S    
C13   N3    1.437139 S    
C35   O17   1.383084 S    
O1    C1    1.284534 A    
C25   C31   1.413357 A    
C9    C11   1.390029 A    
C14   C16   1.397361 A    
C29   C35   1.412510 A    
C30   C36   1.412499 A    
C37   O19   1.383090 S    
C28   C30   1.413405 A    
O7    Zn1   1.947799 S    
N4    O12   1.301164 A    
C3    C5    1.389395 S    
C25   H5    1.081917 S    
C1    C12   1.433787 S    
C4    C6    1.389395 S    
N6    O15   1.301355 A    
C26   H6    1.081923 S    
O6    Zn2   1.948360 S    
C21   C23   1.389489 A    
C22   H4    1.082167 S    
C26   N2    1.363277 A    
O3    Zn1   2.020071 S    
C31   C37   1.412639 A    
C32   C34   1.411046 A    
N3    O9    1.301248 A    
C27   N1    1.363374 A    
O2    C2    1.284328 A    
C28   N2    1.363265 A    
C39   H11   1.109279 S    
C40   H13   1.113513 S    
N3    O10   1.301119 A    
O18   C40   1.409667 S    
C39   H10   1.113600 S    
O8    Zn2   1.947800 S    
C24   N6    1.437455 S    
C38   O20   1.382803 S    
O20   C42   1.410015 S    
O4    C1    1.282306 A    
C25   N1    1.363430 A    
N5    O14   1.301428 A    
C2    C11   1.433910 S    
C19   C24   1.411008 A    
C21   H3    1.082161 S    
C22   C24   1.389341 A    
C32   C38   1.412581 A    
O5    C3    1.279614 A    
N4    O11   1.301191 A    
C29   C33   1.411187 A    
O6    C4    1.279778 A    
C7    C8    1.368664 S    
N6    O16   1.301414 A    
C10   C12   1.389885 A    
C41   H15   1.112898 S    
C41   H16   1.113559 S    
C11   C13   1.402512 A    
C12   C14   1.402498 A    
O1    Zn1   2.015677 S    
C9    C19   1.386294 A    
Zn1   N1    2.003095 S    
C36   C37   1.415153 A    
Zn2   N2    2.003096 S    
C40   H14   1.108974 S    
C26   C32   1.413418 A    
C14   N4    1.437203 S    
C20   C23   1.410885 A    
C39   H9    1.112902 S    
C36   O18   1.382772 S    
C5    C7    1.178801 T    
C15   C17   1.417138 A    
C41   H17   1.109281 S    
C30   C34   1.411169 A    
C16   C18   1.417024 A    
C35   C38   1.415112 A    
C18   C20   1.416857 A    
C27   H7    1.081968 S    
O17   C39   1.410317 S    
N5    O13   1.301331 A    
C9    H1    1.082463 S    
C13   C15   1.397522 A    
O4    Zn2   2.020073 S    
O2    Zn2   2.015675 S    
O7    C4    1.279441 A    
O8    C3    1.279606 A    
C10   H2    1.082383 S    
O5    Zn1   1.948361 S    
C6    C8    1.178802 T    
C33   C34   1.418279 A    
C42   H20   1.109214 S    
C17   C18   1.398538 A    
C42   H19   1.113729 S    
C27   C29   1.413306 A    
