data_mof_unit_pretest_929.cif
_audit_creation_date              2012-12-10T18:36:18-0500
_audit_creation_method            fapswitch 2.2
_symmetry_space_group_name_H-M    P1
_symmetry_Int_Tables_number       1
_space_group_crystal_system       triclinic
_cell_length_a                    14.943491
_cell_length_b                    15.413483
_cell_length_c                    19.214622
_cell_angle_alpha                 89.526284
_cell_angle_beta                  104.761617
_cell_angle_gamma                 81.183578
_cell_volume                      4223.89857773

loop_
_atom_site_label
_atom_site_type_symbol
_atom_type_description
_atom_site_fract_x
_atom_site_fract_y
_atom_site_fract_z
_atom_type_partial_charge
C1    C     C_R   0.440041 0.663005 0.488226 0.882426
C2    C     C_R   0.544785 0.187229 0.475180 0.101986
C3    C     C_R   0.443609 0.902977 0.481919 0.005391
C4    C     C_R   0.565107 0.097786 0.495465 0.022103
C5    C     C_R   0.354432 0.940727 0.489531 0.050139
C6    C     C_R   0.659494 0.060301 0.527390 0.044788
C7    C     C_R   0.516233 0.954411 0.492112 0.111034
C8    C     C_R   0.493156 0.046386 0.488022 0.095480
C9    C     C_R   0.400737 0.084631 0.486133 -0.236840
C10   C     C_R   0.611425 0.916223 0.516472 -0.201157
C11   C     C_R   0.333255 0.032936 0.488261 -0.219147
C12   C     C_R   0.559827 0.337343 0.510559 0.914259
C13   C     C_R   0.681296 0.968091 0.536598 -0.221621
C14   C     C_R   0.835193 0.649714 0.597635 0.124295
C15   C     C_R   0.156968 0.367347 0.387101 0.117939
C16   C     C_R   0.501052 0.499698 0.634424 0.855314
C17   C     C_R   0.498411 0.501633 0.365528 0.874798
C18   C     C_R   0.748215 0.621103 0.583111 -0.046988
C19   C     C_R   0.246295 0.390956 0.406385 -0.045330
C20   C     C_R   0.795613 0.508779 0.510398 -0.096912
C21   C     C_R   0.206463 0.485707 0.494088 -0.088366
C22   C     C_R   0.884264 0.534003 0.521085 -0.031132
C23   C     C_R   0.400430 0.757994 0.479454 -0.183939
C24   C     C_R   0.113272 0.470626 0.474281 -0.039752
C25   C     C_R   0.904323 0.604747 0.566703 0.095441
C26   C     C_R   0.089648 0.408012 0.421465 0.097977
C27   C     C_R   0.952785 0.491387 0.487959 0.102911
C28   C     C_R   0.043687 0.515480 0.505249 0.104159
C29   C     C_R   0.061461 0.585351 0.551238 -0.246260
C30   C     C_R   0.932628 0.426903 0.436893 -0.248040
C31   C     C_R   0.993280 0.628936 0.581003 -0.207747
C32   C     C_R   0.999350 0.386860 0.404083 -0.203947
C33   C     C_R   0.431028 0.466384 0.732769 -0.269436
C34   C     C_R   0.600234 0.243315 0.515677 -0.183320
C35   C     C_R   0.559584 0.553301 0.267768 -0.275280
C36   C     C_R   0.429027 0.467192 0.804777 0.236176
C37   C     C_R   0.556253 0.564197 0.195159 0.238944
C38   C     C_R   0.498397 0.503622 0.854788 0.057710
C39   C     C_R   0.487390 0.529423 0.143497 0.060028
C40   C     C_R   0.571066 0.533899 0.832496 -0.215570
C41   C     C_R   0.419860 0.489386 0.165006 -0.215559
C42   C     C_R   0.573194 0.531407 0.760783 -0.200225
C43   C     C_R   0.422899 0.480220 0.237511 -0.196514
C44   C     C_R   0.502320 0.498986 0.710442 -0.062503
C45   C     C_R   0.289180 0.885952 0.497951 0.143213
C46   C     C_R   0.493808 0.510717 0.289210 -0.060831
C47   C     C_R   0.489523 0.527658 0.068169 0.284192
C48   C     C_R   0.495047 0.512741 0.929615 0.283634
C49   C     C_3   0.793617 0.754958 0.686498 -0.819167
C50   C     C_3   0.205047 0.240203 0.318947 -0.811350
C51   C     C_3   0.388147 0.342377 0.858885 -0.768343
C52   C     C_3   0.584209 0.699251 0.146521 -0.773688
C53   C     C_3   0.479520 0.174110 0.345580 -0.773117
C54   C     C_3   0.482195 0.769828 0.349164 -0.742387
C55   C     C_3   0.749429 0.263092 0.613174 -0.385490
C56   C     C_R   0.726421 0.117082 0.552983 0.138210
C57   C     C_3   0.703091 0.289354 0.673937 -0.834668
C58   C     C_3   0.237039 0.734384 0.489649 -0.372516
C59   C     C_3   0.194898 0.707548 0.413088 -0.788444
C60   C     C_3   0.203309 0.925288 0.523445 -0.413588
C61   C     C_3   0.116875 0.951878 0.460526 -0.855949
C62   C     C_3   0.831975 0.083523 0.572432 -0.424021
C63   C     C_3   0.881185 0.131339 0.526598 -0.871152
C64   C     C_R   0.310895 0.793425 0.490675 0.088358
C65   C     C_R   0.691628 0.207640 0.559110 0.113077
C66   C     C_R   0.458982 0.815112 0.465200 0.100385
H1    H     H_    0.377106 0.439078 0.694485 0.159394
H2    H     H_    0.864778 0.407205 0.418936 0.140550
H3    H     H_    0.625068 0.561681 0.870253 0.160797
H4    H     H_    0.366610 0.462355 0.125894 0.159965
H5    H     H_    0.629007 0.556632 0.744571 0.160808
H6    H     H_    0.371101 0.447782 0.253131 0.157657
H7    H     H_    0.264461 0.067018 0.488169 0.164975
H8    H     H_    0.750270 0.933939 0.563107 0.141650
H9    H     H_    0.381688 0.154276 0.490863 0.150158
H10   H     H_    0.632039 0.846348 0.528578 0.143242
H11   H     H_    0.873805 0.773688 0.614427 0.215452
H12   H     H_    0.612863 0.579807 0.307308 0.161479
H13   H     H_    0.826135 0.803720 0.722665 0.247041
H14   H     H_    0.785751 0.699422 0.720518 0.250842
H15   H     H_    0.723901 0.787563 0.653844 0.227865
H16   H     H_    0.082747 0.334086 0.286380 0.225813
H17   H     H_    0.172021 0.190194 0.284613 0.248892
H18   H     H_    0.248434 0.206593 0.370559 0.249813
H19   H     H_    0.249661 0.269808 0.290254 0.230655
H20   H     H_    0.295531 0.435580 0.786834 0.223133
H21   H     H_    0.407515 0.296229 0.819005 0.231246
H22   H     H_    0.330195 0.320497 0.877313 0.240737
H23   H     H_    0.011680 0.681685 0.615977 0.153483
H24   H     H_    0.449242 0.340590 0.906361 0.250208
H25   H     H_    0.684928 0.606614 0.213368 0.223002
H26   H     H_    0.562418 0.739618 0.188833 0.229101
H27   H     H_    0.523048 0.700263 0.099230 0.250471
H28   H     H_    0.638646 0.728705 0.128939 0.242082
H29   H     H_    0.409500 0.242614 0.415034 0.230274
H30   H     H_    0.452463 0.111071 0.346554 0.247482
H31   H     H_    0.552595 0.161326 0.340128 0.251380
H32   H     H_    0.435177 0.215283 0.297934 0.230775
H33   H     H_    0.583900 0.746549 0.447353 0.248249
H34   H     H_    0.979241 0.338631 0.364878 0.160598
H35   H     H_    0.450508 0.708998 0.347545 0.225327
H36   H     H_    0.537136 0.759883 0.319216 0.228498
H37   H     H_    0.427612 0.825567 0.322163 0.246791
H38   H     H_    0.747394 0.328684 0.712404 0.249028
H39   H     H_    0.632840 0.329436 0.653317 0.253538
H40   H     H_    0.695817 0.229595 0.703393 0.248844
H41   H     H_    0.819991 0.227603 0.639996 0.207923
H42   H     H_    0.763042 0.321582 0.586153 0.226016
H43   H     H_    0.154637 0.766134 0.378906 0.239961
H44   H     H_    0.249218 0.676900 0.386989 0.270961
H45   H     H_    0.232680 0.527284 0.536603 0.135486
H46   H     H_    0.146374 0.660198 0.414703 0.237567
H47   H     H_    0.266369 0.676737 0.527777 0.201020
H48   H     H_    0.176781 0.765289 0.508740 0.197263
H49   H     H_    0.131353 0.998556 0.422006 0.260591
H50   H     H_    0.095254 0.893532 0.431662 0.263143
H51   H     H_    0.057834 0.984370 0.481160 0.245609
H52   H     H_    0.188496 0.880778 0.563163 0.186694
H53   H     H_    0.216850 0.983141 0.556060 0.195692
H54   H     H_    0.851352 0.121712 0.468551 0.263986
H55   H     H_    0.873972 0.202789 0.535283 0.255060
H56   H     H_    0.774298 0.454821 0.478714 0.137139
H57   H     H_    0.957122 0.103996 0.541007 0.247083
H58   H     H_    0.863755 0.089199 0.630689 0.198438
H59   H     H_    0.849335 0.013440 0.562343 0.204070
H60   H     H_    0.298743 0.365991 0.378921 0.146142
H61   H     H_    0.691919 0.653807 0.603915 0.151534
H62   H     H_    0.126897 0.610261 0.563978 0.131870
N1    N     N_R   0.575357 0.510181 0.982340 -0.184253
N2    N     N_2   0.622082 0.610150 0.174710 -0.300590
N3    N     N_2   0.475911 0.220262 0.410317 -0.296663
N4    N     N_2   0.523792 0.789162 0.422801 -0.298922
N5    N     N_R   0.409113 0.530985 0.015423 -0.183952
N6    N     N_R   0.572617 0.517170 0.050542 -0.139610
N7    N     N_R   0.411863 0.524133 0.947188 -0.138662
N8    N     N_R   0.731690 0.552730 0.540620 -0.118754
N9    N     N_R   0.268310 0.447270 0.459380 -0.114111
N10   N     N_2   0.853267 0.724146 0.640118 -0.310480
N11   N     N_2   0.132534 0.306909 0.332000 -0.314079
N12   N     N_2   0.357834 0.430459 0.826310 -0.299569
O1    O     O_R   0.383120 0.605620 0.479520 -0.604857
O2    O     O_R   0.616880 0.394380 0.520480 -0.612164
O3    O     O_R   0.531890 0.639510 0.505590 -0.624771
O4    O     O_R   0.468110 0.360490 0.494410 -0.612396
O5    O     O_R   0.425590 0.483060 0.588820 -0.622723
O6    O     O_R   0.574410 0.516940 0.411180 -0.616290
O7    O     O_R   0.574360 0.516950 0.614890 -0.615700
O8    O     O_R   0.425640 0.483050 0.385110 -0.621009
Zn1   Zn    Zn3+2 0.400660 0.477370 0.482600 0.926755
Zn2   Zn    Zn3+2 0.599340 0.522630 0.517400 0.924188

loop_
_geom_bond_atom_site_label_1
_geom_bond_atom_site_label_2
_ccdc_geom_bond_type
C25   C31   A    
C7    C10   A    
C57   H39   S    
C45   C60   S    
C26   C32   A    
C43   H6    S    
C14   C18   A    
C48   N7    A    
C21   N9    A    
C4    C8    A    
C33   C36   A    
C62   H58   S    
C50   H18   S    
C7    C8    A    
C39   C41   A    
H25   N2    S    
C15   C19   A    
H16   N11   S    
H33   N4    S    
C16   O7    A    
C23   C66   A    
C58   H48   S    
C28   C29   A    
C35   C37   A    
C45   C64   A    
C24   C26   A    
C5    C11   A    
C3    C7    A    
C51   H24   S    
C56   C65   A    
C59   H44   S    
C37   N2    S    
C60   H53   S    
C49   H15   S    
C54   H35   S    
C50   H19   S    
C63   H55   S    
O6    Zn2   S    
C10   H10   S    
O3    Zn2   S    
C14   N10   S    
C8    C9    A    
C31   H23   S    
C22   C25   A    
C61   H49   S    
C58   H47   S    
C18   N8    A    
C53   N3    S    
C30   C32   A    
C16   C44   S    
C20   H56   S    
H20   N12   S    
C51   N12   S    
C2    C34   A    
C40   C42   A    
C57   H40   S    
C49   N10   S    
C47   N5    A    
C53   H30   S    
H29   N3    S    
C41   C43   A    
N9    Zn1   S    
C42   C44   A    
C34   C65   A    
C21   H45   S    
C50   H17   S    
C2    N3    S    
C15   N11   S    
C52   H28   S    
C58   C64   S    
C40   H3    S    
C61   H51   S    
C54   H37   S    
O7    Zn2   S    
C17   C46   S    
C4    C6    A    
C11   H7    S    
C51   H21   S    
C50   N11   S    
C15   C26   A    
C53   H31   S    
C58   C59   S    
C5    C45   A    
C20   N8    A    
C12   O4    A    
C55   H41   S    
C16   O5    A    
C2    C4    A    
C62   C63   S    
C1    O3    A    
C18   H61   S    
C36   N12   S    
N8    Zn2   S    
C19   N9    A    
C17   O8    A    
C61   H50   S    
C59   H46   S    
C52   H27   S    
H11   N10   S    
C60   H52   S    
C9    C11   A    
C23   C64   A    
C20   C22   A    
C1    C23   S    
C22   C27   A    
C55   C57   S    
C47   N6    A    
C56   C62   S    
C48   N1    A    
C52   H26   S    
C3    C66   A    
C21   C24   A    
C12   C34   S    
C49   H13   S    
C33   H1    S    
C39   C47   S    
C57   H38   S    
C19   H60   S    
O4    Zn1   S    
C55   C65   S    
C33   C44   A    
C38   C48   S    
C54   H36   S    
C24   C28   A    
C6    C56   A    
C3    C5    A    
C10   C13   A    
C51   H22   S    
C62   H59   S    
C63   H57   S    
C49   H14   S    
C53   H32   S    
C54   N4    S    
O1    Zn1   S    
C35   H12   S    
C66   N4    S    
C55   H42   S    
C52   N2    S    
O2    Zn2   S    
C36   C38   A    
C17   O6    A    
C37   C39   A    
C6    C13   A    
C38   C40   A    
C63   H54   S    
C42   H5    S    
C59   H43   S    
C12   O2    A    
O8    Zn1   S    
C14   C25   A    
C43   C46   A    
C30   H2    S    
C1    O1    A    
N1    N6    A    
C32   H34   S    
C13   H8    S    
C29   C31   A    
C29   H62   S    
C27   C28   A    
N5    N7    A    
C60   C61   S    
C9    H9    S    
C35   C46   A    
O5    Zn1   S    
C41   H4    S    
C27   C30   A    
