data_mof_unit_pretest_944.cif
_audit_creation_date              2012-12-11T15:22:30-0500
_audit_creation_method            fapswitch 2.2
_symmetry_space_group_name_H-M    P1
_symmetry_Int_Tables_number       1
_space_group_crystal_system       triclinic
_cell_length_a                    22.43515
_cell_length_b                    12.973327
_cell_length_c                    27.010873
_cell_angle_alpha                 90.074832
_cell_angle_beta                  90.570689
_cell_angle_gamma                 90.02097
_cell_volume                      7861.34793831

loop_
_atom_site_label
_atom_site_type_symbol
_atom_type_description
_atom_site_fract_x
_atom_site_fract_y
_atom_site_fract_z
_atom_type_partial_charge
C1    C     C_R   0.720266 0.344204 0.177926 0.534712
C2    C     C_R   0.279572 0.344663 0.821924 0.534613
C3    C     C_R   0.220266 0.844204 0.177926 0.534711
C4    C     C_R   0.779572 0.844664 0.821924 0.534612
C5    C     C_R   0.477045 0.164255 0.870682 -0.009159
C6    C     C_R   0.528709 0.161072 0.126747 -0.009712
C7    C     C_R   0.977058 0.664266 0.870675 -0.009158
C8    C     C_R   0.028731 0.661064 0.126738 -0.009712
C9    C     C_R   0.518848 0.255441 0.102489 -0.152490
C10   C     C_R   0.479712 0.258357 0.896576 -0.150452
C11   C     C_R   0.018844 0.755430 0.102485 -0.152495
C12   C     C_R   0.979705 0.758364 0.896574 -0.150445
C13   C     C_R   0.508784 0.257465 0.051122 0.006601
C14   C     C_R   0.491962 0.259381 0.947553 0.006063
C15   C     C_R   0.008786 0.757459 0.051118 0.006603
C16   C     C_R   0.991961 0.759387 0.947549 0.006060
C17   C     C_R   0.509425 0.164204 0.024085 0.060877
C18   C     C_R   0.502214 0.165344 0.972364 0.062232
C19   C     C_R   0.009462 0.664206 0.024074 0.060868
C20   C     C_R   0.002248 0.665353 0.972353 0.062232
C21   C     C_R   0.499985 0.350950 0.026001 -0.148026
C22   C     C_R   0.491154 0.351825 0.974628 -0.149930
C23   C     C_R   0.999955 0.850943 0.026003 -0.148016
C24   C     C_R   0.991123 0.851824 0.974629 -0.149932
C25   C     C_R   0.740951 0.952628 0.131159 0.022159
C26   C     C_R   0.258579 0.952082 0.868616 0.021066
C27   C     C_R   0.240951 0.452628 0.131159 0.022162
C28   C     C_R   0.758579 0.452082 0.868616 0.021064
C29   C     C_R   0.794909 0.968167 0.106536 -0.125932
C30   C     C_R   0.204826 0.968839 0.893408 -0.125255
C31   C     C_R   0.294908 0.468172 0.106536 -0.125930
C32   C     C_R   0.704825 0.468839 0.893408 -0.125257
C33   C     C_R   0.799715 0.943205 0.056721 -0.117687
C34   C     C_R   0.199813 0.943244 0.943118 -0.117420
C35   C     C_R   0.299714 0.443210 0.056721 -0.117686
C36   C     C_R   0.699812 0.443243 0.943118 -0.117421
C37   C     C_R   0.750833 0.901329 0.030704 0.035751
C38   C     C_R   0.248260 0.899480 0.968885 0.034575
C39   C     C_R   0.250833 0.401328 0.030704 0.035755
C40   C     C_R   0.748259 0.399480 0.968885 0.034572
C41   C     C_R   0.698018 0.879830 0.056007 -0.119480
C42   C     C_R   0.300727 0.876496 0.943344 -0.119904
C43   C     C_R   0.198019 0.379823 0.056008 -0.119477
C44   C     C_R   0.800726 0.376496 0.943344 -0.119906
C45   C     C_R   0.554255 0.156949 0.177106 0.537925
C46   C     C_R   0.446855 0.157477 0.822210 0.538168
C47   C     C_R   0.054259 0.656948 0.177103 0.537925
C48   C     C_R   0.946858 0.657478 0.822209 0.538168
C49   C     C_R   0.693131 0.905074 0.105949 -0.126584
C50   C     C_R   0.305838 0.902431 0.893504 -0.126368
C51   C     C_R   0.193133 0.405068 0.105950 -0.126588
C52   C     C_R   0.805838 0.402430 0.893504 -0.126369
C53   C     C_R   0.707588 0.910070 0.944754 -0.102677
C54   C     C_R   0.292035 0.906943 0.054713 -0.101925
C55   C     C_R   0.207586 0.410056 0.944755 -0.102680
C56   C     C_R   0.792034 0.406946 0.054713 -0.101923
C57   C     C_R   0.713569 0.900178 0.893143 0.005094
C58   C     C_R   0.286266 0.897542 0.106362 0.005172
C59   C     C_R   0.213566 0.400165 0.893144 0.005098
C60   C     C_R   0.786265 0.397546 0.106362 0.005170
C61   C     C_R   0.814870 0.837843 0.906927 -0.128933
C62   C     C_R   0.184184 0.838529 0.092992 -0.128466
C63   C     C_R   0.314874 0.337856 0.906926 -0.128932
C64   C     C_R   0.684184 0.338525 0.092992 -0.128468
C65   C     C_R   0.808139 0.846332 0.957513 -0.134035
C66   C     C_R   0.190705 0.846561 0.042348 -0.132758
C67   C     C_R   0.308142 0.346343 0.957513 -0.134032
C68   C     C_R   0.690706 0.346558 0.042348 -0.132761
C69   C     C_R   0.754982 0.884056 0.976965 0.015993
C70   C     C_R   0.244193 0.882308 0.022661 0.016021
C71   C     C_R   0.254983 0.384054 0.976966 0.015993
C72   C     C_R   0.744193 0.382309 0.022661 0.016021
C73   C     C_R   0.768533 0.865205 0.874282 0.051172
C74   C     C_R   0.231085 0.864299 0.125472 0.050482
C75   C     C_R   0.268533 0.365206 0.874282 0.051168
C76   C     C_R   0.731085 0.364299 0.125472 0.050484
C77   C     C_R   0.521352 0.170110 0.368937 0.017258
C78   C     C_R   0.478652 0.169880 0.631077 0.017486
C79   C     C_R   0.021351 0.670109 0.368936 0.017259
C80   C     C_R   0.978652 0.669881 0.631077 0.017487
C81   C     C_R   0.517931 0.265677 0.394638 0.018619
C82   C     C_R   0.482364 0.265489 0.605561 0.018805
C83   C     C_R   0.017929 0.765677 0.394637 0.018621
C84   C     C_R   0.982364 0.765489 0.605561 0.018806
C85   C     C_R   0.514745 0.263819 0.446452 -0.089456
C86   C     C_R   0.485548 0.263770 0.553746 -0.089471
C87   C     C_R   0.014743 0.763820 0.446451 -0.089456
C88   C     C_R   0.985548 0.763770 0.553746 -0.089471
C89   C     C_R   0.731312 0.001503 0.179464 0.541288
C90   C     C_R   0.268613 0.001462 0.820496 0.541411
C91   C     C_R   0.231312 0.501503 0.179464 0.541287
C92   C     C_R   0.768613 0.501462 0.820496 0.541409
C93   C     C_R   0.502519 0.172294 0.472395 0.019977
C94   C     C_R   0.497475 0.172226 0.527620 0.019987
C95   C     C_R   0.002518 0.672295 0.472395 0.019978
C96   C     C_R   0.997474 0.672226 0.527620 0.019987
C97   C     C_R   0.494352 0.081308 0.444794 -0.121384
C98   C     C_R   0.505342 0.081083 0.555040 -0.121472
C99   C     C_R   0.994352 0.581307 0.444794 -0.121384
C100  C     C_R   0.005341 0.581083 0.555040 -0.121472
C101  C     C_R   0.505663 0.079593 0.394206 -0.133589
C102  C     C_R   0.494036 0.079308 0.605628 -0.133741
C103  C     C_R   0.005663 0.579593 0.394206 -0.133589
C104  C     C_R   0.994035 0.579308 0.605628 -0.133741
C105  C     C_R   0.742593 0.949774 0.370393 0.009432
C106  C     C_R   0.257342 0.949424 0.629652 0.009425
C107  C     C_R   0.242593 0.449773 0.370393 0.009433
C108  C     C_R   0.757342 0.449424 0.629653 0.009425
C109  C     C_R   0.696884 0.894563 0.394683 -0.016652
C110  C     C_R   0.303040 0.894222 0.605317 -0.016661
C111  C     C_R   0.196884 0.394563 0.394683 -0.016652
C112  C     C_R   0.803040 0.394222 0.605317 -0.016661
C113  C     C_R   0.701574 0.877665 0.445281 -0.123838
C114  C     C_R   0.298364 0.877373 0.554702 -0.123880
C115  C     C_R   0.201574 0.377664 0.445281 -0.123838
C116  C     C_R   0.798364 0.377372 0.554702 -0.123880
C117  C     C_R   0.752328 0.909767 0.471710 0.025429
C118  C     C_R   0.247609 0.909438 0.528322 0.025495
C119  C     C_R   0.252328 0.409765 0.471710 0.025429
C120  C     C_R   0.747608 0.409437 0.528322 0.025495
C121  C     C_R   0.800649 0.952046 0.446403 -0.131091
C122  C     C_R   0.199259 0.951535 0.553679 -0.131125
C123  C     C_R   0.300649 0.452043 0.446403 -0.131092
C124  C     C_R   0.699259 0.451533 0.553679 -0.131126
C125  C     C_R   0.795652 0.972582 0.396214 -0.150966
C126  C     C_R   0.204263 0.972091 0.603881 -0.151077
C127  C     C_R   0.295652 0.472580 0.396214 -0.150965
C128  C     C_R   0.704263 0.472090 0.603881 -0.151077
C129  C     C_R   0.782179 0.976686 0.554973 -0.117358
C130  C     C_R   0.217745 0.976548 0.445204 -0.117434
C131  C     C_R   0.282180 0.476684 0.554972 -0.117358
C132  C     C_R   0.717745 0.476547 0.445204 -0.117434
C133  C     C_R   0.720989 0.346474 0.321952 0.543200
C134  C     C_R   0.279009 0.346413 0.678047 0.543137
C135  C     C_R   0.220989 0.846474 0.321952 0.543200
C136  C     C_R   0.779010 0.846414 0.678047 0.543137
C137  C     C_R   0.787009 0.963715 0.605959 -0.131912
C138  C     C_R   0.212919 0.963685 0.394199 -0.132140
C139  C     C_R   0.287009 0.463714 0.605959 -0.131912
C140  C     C_R   0.712919 0.463684 0.394200 -0.132141
C141  C     C_R   0.730184 0.804902 0.599159 -0.123339
C142  C     C_R   0.269905 0.805092 0.400725 -0.123308
C143  C     C_R   0.230184 0.304902 0.599159 -0.123339
C144  C     C_R   0.769905 0.305092 0.400725 -0.123307
C145  C     C_R   0.727318 0.815774 0.548405 -0.123028
C146  C     C_R   0.272733 0.815813 0.451485 -0.123142
C147  C     C_R   0.227319 0.315773 0.548404 -0.123028
C148  C     C_R   0.772733 0.315812 0.451486 -0.123142
C149  C     C_R   0.754047 0.900776 0.525735 0.038993
C150  C     C_R   0.245923 0.900640 0.474297 0.039073
C151  C     C_R   0.254048 0.400774 0.525735 0.038993
C152  C     C_R   0.745923 0.400639 0.474297 0.039073
C153  C     C_R   0.762118 0.876439 0.628048 0.026331
C154  C     C_R   0.237882 0.876551 0.371969 0.026297
C155  C     C_R   0.262118 0.376439 0.628047 0.026331
C156  C     C_R   0.737882 0.376550 0.371969 0.026297
C157  C     C_R   0.552645 0.159452 0.320962 0.534713
C158  C     C_R   0.447362 0.159382 0.679047 0.533995
C159  C     C_R   0.052645 0.659452 0.320962 0.534716
C160  C     C_R   0.947362 0.659382 0.679047 0.533993
C161  C     C_R   0.731967 0.000870 0.322680 0.540234
C162  C     C_R   0.268013 0.000765 0.677342 0.540057
C163  C     C_R   0.231968 0.500870 0.322680 0.540235
C164  C     C_R   0.768013 0.500765 0.677342 0.540057
C165  C     C_R   0.525034 0.068445 0.099754 -0.133900
C166  C     C_R   0.492912 0.072441 0.894875 -0.136065
C167  C     C_R   0.025099 0.568441 0.099737 -0.133887
C168  C     C_R   0.992961 0.572460 0.894859 -0.136067
C169  C     C_R   0.517323 0.069472 0.048689 0.008285
C170  C     C_R   0.503963 0.071901 0.945632 0.009768
C171  C     C_R   0.017395 0.569475 0.048671 0.008283
C172  C     C_R   0.004026 0.571918 0.945615 0.009779
C173  C     C_R   0.513402 0.978502 0.970432 -0.147112
C174  C     C_R   0.519577 0.977204 0.021734 -0.145132
C175  C     C_R   0.013503 0.478522 0.970408 -0.147114
C176  C     C_R   0.019684 0.477217 0.021710 -0.145121
Cr1   Cr    Cr6+3 0.756570 0.170940 0.251190 1.009372
Cr2   Cr    Cr6+3 0.243430 0.170940 0.748810 1.009469
Cr3   Cr    Cr6+3 0.256570 0.670940 0.251190 1.009370
Cr4   Cr    Cr6+3 0.743430 0.670940 0.748810 1.009470
Cr5   Cr    Cr6+3 0.623740 0.299110 0.249580 1.003669
Cr6   Cr    Cr6+3 0.376260 0.299110 0.750420 1.003156
Cr7   Cr    Cr6+3 0.123740 0.799110 0.249580 1.003672
Cr8   Cr    Cr6+3 0.876260 0.799110 0.750420 1.003155
Cr9   Cr    Cr6+3 0.625990 0.036240 0.250480 1.041343
Cr10  Cr    Cr6+3 0.374010 0.036240 0.749520 1.042034
Cr11  Cr    Cr6+3 0.125990 0.536240 0.250480 1.041343
Cr12  Cr    Cr6+3 0.874010 0.536240 0.749520 1.042035
H1    H     H_    0.491995 0.999714 0.875035 0.125573
H2    H     H_    0.532484 0.994970 0.117878 0.128339
H3    H     H_    0.992062 0.499738 0.875015 0.125560
H4    H     H_    0.032574 0.494967 0.117855 0.128345
H5    H     H_    0.856346 0.807010 0.893125 0.134033
H6    H     H_    0.142358 0.809407 0.106950 0.137083
H7    H     H_    0.356352 0.307035 0.893124 0.134046
H8    H     H_    0.642360 0.309399 0.106950 0.137074
H9    H     H_    0.660119 0.845872 0.036923 0.101696
H10   H     H_    0.338247 0.840954 0.962201 0.104110
H11   H     H_    0.160122 0.345860 0.036924 0.101682
H12   H     H_    0.838246 0.340953 0.962201 0.104116
H13   H     H_    0.650864 0.892389 0.123995 0.125471
H14   H     H_    0.347885 0.888568 0.875300 0.129254
H15   H     H_    0.150867 0.392379 0.123996 0.125452
H16   H     H_    0.847885 0.388567 0.875300 0.129264
H17   H     H_    0.518000 0.009526 0.537537 0.107982
H18   H     H_    0.481454 0.009806 0.462153 0.108011
H19   H     H_    0.018000 0.509526 0.537537 0.107981
H20   H     H_    0.981455 0.509805 0.462153 0.108011
H21   H     H_    0.494750 0.005560 0.624384 0.150007
H22   H     H_    0.504709 0.005910 0.375303 0.149932
H23   H     H_    0.994750 0.505560 0.624384 0.150007
H24   H     H_    0.004710 0.505909 0.375303 0.149933
H25   H     H_    0.522367 0.335242 0.465951 0.098493
H26   H     H_    0.478167 0.335323 0.534392 0.098474
H27   H     H_    0.022363 0.835244 0.465950 0.098490
H28   H     H_    0.978167 0.835324 0.534393 0.098473
H29   H     H_    0.801616 0.044629 0.538381 0.102810
H30   H     H_    0.198256 0.044377 0.461920 0.102708
H31   H     H_    0.301617 0.544627 0.538380 0.102810
H32   H     H_    0.698255 0.544376 0.461921 0.102708
H33   H     H_    0.811989 0.019327 0.627769 0.124885
H34   H     H_    0.187883 0.019237 0.372488 0.124819
H35   H     H_    0.311989 0.519326 0.627769 0.124885
H36   H     H_    0.687882 0.519236 0.372488 0.124819
H37   H     H_    0.514802 0.906294 0.950254 0.099615
H38   H     H_    0.526407 0.904106 0.040322 0.099293
H39   H     H_    0.014929 0.406321 0.950226 0.099606
H40   H     H_    0.026542 0.404121 0.040293 0.099286
H41   H     H_    0.664095 0.843614 0.464292 0.100611
H42   H     H_    0.335862 0.843435 0.535649 0.100565
H43   H     H_    0.164095 0.343614 0.464292 0.100611
H44   H     H_    0.835861 0.343434 0.535649 0.100565
H45   H     H_    0.706401 0.754962 0.526930 0.100529
H46   H     H_    0.293681 0.754999 0.472844 0.100540
H47   H     H_    0.206401 0.254961 0.526930 0.100529
H48   H     H_    0.793681 0.254998 0.472844 0.100540
H49   H     H_    0.711475 0.735640 0.615140 0.139681
H50   H     H_    0.288695 0.735944 0.384636 0.139859
H51   H     H_    0.211474 0.235640 0.615140 0.139681
H52   H     H_    0.788695 0.235944 0.384636 0.139859
H53   H     H_    0.841426 0.973028 0.465712 0.103323
H54   H     H_    0.158475 0.972439 0.534400 0.103273
H55   H     H_    0.341427 0.473025 0.465711 0.103324
H56   H     H_    0.658474 0.472437 0.534401 0.103273
H57   H     H_    0.832031 0.012463 0.378424 0.128531
H58   H     H_    0.167895 0.011962 0.621714 0.128650
H59   H     H_    0.332032 0.512460 0.378424 0.128530
H60   H     H_    0.667894 0.511960 0.621714 0.128649
H61   H     H_    0.468247 0.329704 0.877939 0.122254
H62   H     H_    0.521773 0.327107 0.123051 0.119928
H63   H     H_    0.968214 0.829707 0.877942 0.122263
H64   H     H_    0.021739 0.827093 0.123053 0.119919
H65   H     H_    0.483238 0.424666 0.956126 0.107403
H66   H     H_    0.499538 0.423252 0.046112 0.106843
H67   H     H_    0.983179 0.924662 0.956133 0.107405
H68   H     H_    0.999481 0.923239 0.046119 0.106841
H69   H     H_    0.832403 0.004913 0.124960 0.127964
H70   H     H_    0.167710 0.007090 0.875242 0.129118
H71   H     H_    0.332401 0.504923 0.124959 0.127967
H72   H     H_    0.667709 0.507090 0.875242 0.129116
H73   H     H_    0.666597 0.940676 0.959739 0.111870
H74   H     H_    0.333246 0.936219 0.039568 0.108965
H75   H     H_    0.166593 0.440653 0.959740 0.111878
H76   H     H_    0.833244 0.436225 0.039568 0.108960
H77   H     H_    0.840877 0.961417 0.038026 0.105770
H78   H     H_    0.158918 0.962574 0.961964 0.107295
H79   H     H_    0.340875 0.461427 0.038025 0.105773
H80   H     H_    0.658917 0.462574 0.961964 0.107292
H81   H     H_    0.844732 0.823106 0.981483 0.122072
H82   H     H_    0.153675 0.824602 0.018523 0.122133
H83   H     H_    0.344738 0.323126 0.981482 0.122071
H84   H     H_    0.653676 0.324597 0.018523 0.122134
O1    O     O_R   0.769900 0.064540 0.196060 -0.520336
O2    O     O_R   0.230100 0.064540 0.803940 -0.520510
O3    O     O_R   0.269900 0.564540 0.196060 -0.520338
O4    O     O_R   0.730100 0.564540 0.803940 -0.520510
O5    O     O_R   0.574760 0.239320 0.300850 -0.512456
O6    O     O_R   0.425240 0.239320 0.699150 -0.512696
O7    O     O_R   0.074760 0.739320 0.300850 -0.512454
O8    O     O_R   0.925240 0.739320 0.699150 -0.512696
O9    O     O_R   0.566290 0.069580 0.305400 -0.500053
O10   O     O_R   0.433710 0.069580 0.694600 -0.500812
O11   O     O_R   0.066290 0.569580 0.305400 -0.500051
O12   O     O_R   0.933710 0.569580 0.694600 -0.500814
O13   O     O_R   0.680760 0.993330 0.302620 -0.481007
O14   O     O_R   0.319240 0.993330 0.697380 -0.481119
O15   O     O_R   0.180760 0.493330 0.302620 -0.481006
O16   O     O_R   0.819240 0.493330 0.697380 -0.481120
O17   O     O_3   0.668770 0.168760 0.250420 -0.239569
O18   O     O_3   0.331230 0.168760 0.749580 -0.239056
O19   O     O_3   0.168770 0.668760 0.250420 -0.239571
O20   O     O_3   0.831230 0.668760 0.749580 -0.239056
O21   O     O_R   0.750800 0.274080 0.199250 -0.501429
O22   O     O_R   0.249200 0.274080 0.800750 -0.501212
O23   O     O_R   0.250800 0.774080 0.199250 -0.501430
O24   O     O_R   0.749200 0.774080 0.800750 -0.501210
O25   O     O_R   0.669990 0.371670 0.194150 -0.521892
O26   O     O_R   0.330010 0.371670 0.805850 -0.522298
O27   O     O_R   0.169990 0.871670 0.194150 -0.521890
O28   O     O_R   0.830010 0.871670 0.805850 -0.522299
O29   O     O_R   0.574600 0.238480 0.197800 -0.508374
O30   O     O_R   0.425400 0.238480 0.802200 -0.509743
O31   O     O_R   0.074600 0.738480 0.197800 -0.508370
O32   O     O_R   0.925400 0.738480 0.802200 -0.509748
O33   O     O_R   0.566130 0.068680 0.194240 -0.523939
O34   O     O_R   0.433870 0.068680 0.805760 -0.521690
O35   O     O_R   0.066130 0.568680 0.194240 -0.523942
O36   O     O_R   0.933870 0.568680 0.805760 -0.521682
O37   O     O_R   0.680610 0.992490 0.199570 -0.505213
O38   O     O_R   0.319390 0.992490 0.800430 -0.503841
O39   O     O_R   0.180610 0.492490 0.199570 -0.505217
O40   O     O_R   0.819390 0.492490 0.800430 -0.503838
O41   O     O_R   0.770060 0.065440 0.307230 -0.530722
O42   O     O_R   0.229940 0.065440 0.692770 -0.530709
O43   O     O_R   0.270060 0.565440 0.307230 -0.530721
O44   O     O_R   0.729940 0.565440 0.692770 -0.530709
O45   O     O_R   0.750960 0.274920 0.302300 -0.507426
O46   O     O_R   0.249040 0.274920 0.697700 -0.507510
O47   O     O_R   0.250960 0.774920 0.302300 -0.507426
O48   O     O_R   0.749040 0.774920 0.697700 -0.507510
O49   O     O_R   0.670160 0.372580 0.305320 -0.519424
O50   O     O_R   0.329840 0.372580 0.694680 -0.519435
O51   O     O_R   0.170160 0.872580 0.305320 -0.519421
O52   O     O_R   0.829840 0.872580 0.694680 -0.519435
C177  C     C_3   0.517873 0.370270 0.369092 -0.259023
C178  C     C_3   0.466381 0.438725 0.386165 -0.465022
H85   H     H_    0.423526 0.396212 0.382983 0.162110
H86   H     H_    0.473076 0.464654 0.424983 0.137984
H87   H     H_    0.463711 0.508487 0.362452 0.141593
H88   H     H_    0.560957 0.410024 0.376435 0.160786
H89   H     H_    0.511186 0.362876 0.328629 0.172129
C179  C     C_3   0.482762 0.370001 0.631314 -0.259041
C180  C     C_3   0.534559 0.437946 0.614450 -0.465064
H90   H     H_    0.577229 0.394957 0.617642 0.162245
H91   H     H_    0.528075 0.463994 0.575661 0.137980
H92   H     H_    0.537444 0.507640 0.638283 0.141503
H93   H     H_    0.439851 0.410220 0.623978 0.160751
H94   H     H_    0.489323 0.362436 0.671774 0.171984
C181  C     C_3   0.017869 0.870270 0.369092 -0.259028
C182  C     C_3   0.966371 0.938716 0.386160 -0.465023
H95   H     H_    0.923519 0.896197 0.382971 0.162112
H96   H     H_    0.973057 0.964638 0.424980 0.137987
H97   H     H_    0.963701 0.008481 0.362450 0.141591
H98   H     H_    0.060949 0.910031 0.376439 0.160779
H99   H     H_    0.011187 0.862877 0.328628 0.172132
C183  C     C_3   0.982763 0.870001 0.631314 -0.259042
C184  C     C_3   0.034563 0.937943 0.614451 -0.465063
H100  H     H_    0.077231 0.894952 0.617646 0.162246
H101  H     H_    0.028081 0.963989 0.575662 0.137981
H102  H     H_    0.037448 0.007638 0.638283 0.141503
H103  H     H_    0.939853 0.910223 0.623977 0.160749
H104  H     H_    0.989322 0.862436 0.671774 0.171985
C185  C     C_1   0.643334 0.858436 0.369961 0.208921
N1    N     N_1   0.600423 0.829316 0.350330 -0.313526
C186  C     C_1   0.356573 0.858128 0.630007 0.208726
N2    N     N_1   0.399470 0.829034 0.649612 -0.313878
C187  C     C_1   0.143334 0.358437 0.369962 0.208921
N3    N     N_1   0.100422 0.329318 0.350331 -0.313525
C188  C     C_1   0.856573 0.358128 0.630007 0.208726
N4    N     N_1   0.899470 0.329035 0.649612 -0.313878
C189  C     C_3   0.661937 0.929658 0.859645 -0.285082
C190  C     C_3   0.673009 0.033144 0.834555 -0.430493
H105  H     H_    0.679925 0.094340 0.862856 0.162689
H106  H     H_    0.712728 0.029072 0.810446 0.154749
H107  H     H_    0.633701 0.053957 0.811346 0.142300
H108  H     H_    0.654170 0.869012 0.831279 0.159137
H109  H     H_    0.620128 0.935869 0.881238 0.135033
C191  C     C_3   0.338357 0.925881 0.139662 -0.284152
C192  C     C_3   0.328053 0.029161 0.165314 -0.430767
H110  H     H_    0.288638 0.025273 0.189761 0.154816
H111  H     H_    0.367728 0.049193 0.188283 0.143163
H112  H     H_    0.321050 0.090829 0.137347 0.161505
H113  H     H_    0.346102 0.864717 0.167689 0.160328
H114  H     H_    0.379994 0.931875 0.117835 0.137376
C193  C     C_3   0.161931 0.429632 0.859646 -0.285079
C194  C     C_3   0.172993 0.533121 0.834557 -0.430490
H115  H     H_    0.212712 0.529061 0.810448 0.154747
H116  H     H_    0.133682 0.553924 0.811349 0.142297
H117  H     H_    0.179902 0.594319 0.862859 0.162692
H118  H     H_    0.154169 0.368984 0.831281 0.159141
H119  H     H_    0.120122 0.435830 0.881240 0.135015
C195  C     C_3   0.838354 0.425888 0.139663 -0.284151
C196  C     C_3   0.828047 0.529167 0.165314 -0.430769
H120  H     H_    0.788632 0.525275 0.189761 0.154816
H121  H     H_    0.867722 0.549202 0.188284 0.143166
H122  H     H_    0.821043 0.590835 0.137348 0.161502
H123  H     H_    0.846101 0.364725 0.167689 0.160330
H124  H     H_    0.879991 0.431887 0.117835 0.137384

loop_
_geom_bond_atom_site_label_1
_geom_bond_atom_site_label_2
_ccdc_geom_bond_type
C99   C103  A    
C7    C168  A    
C146  H46   S    
C187  N3    T    
C55   C59   A    
C126  H58   S    
C142  C146  A    
C77   C101  A    
C19   C20   A    
C45   O33   A    
C53   C69   A    
C38   C70   S    
C180  H90   S    
C108  C164  S    
C68   H84   S    
C37   C69   S    
C26   C50   A    
C95   C99   A    
C78   C102  A    
C196  H121  S    
C29   C33   A    
C100  C104  A    
C3    C74   S    
C9    C13   A    
C59   C193  S    
C21   H66   S    
C146  C150  A    
C131  C151  A    
C12   C16   A    
C194  H116  S    
C56   C72   A    
C169  C174  A    
C178  H85   S    
C124  H56   S    
Cr8   O20   S    
C172  C175  A    
C141  C145  A    
C192  H112  S    
C138  C154  A    
C6    C165  A    
C21   C22   A    
C89   O1    A    
C36   H80   S    
C112  C188  S    
C41   C49   A    
C191  C192  S    
Cr12  O20   S    
C18   C170  A    
C165  C169  A    
C27   C31   A    
C143  H51   S    
C42   H10   S    
Cr9   O17   S    
C182  H95   S    
Cr10  O14   S    
C62   C66   A    
C167  C171  A    
Cr4   O44   S    
C98   C102  A    
C60   C76   A    
C29   H69   S    
C128  H60   S    
C66   H82   S    
Cr5   O49   S    
C78   C82   A    
C186  N2    T    
C54   C70   A    
Cr3   O3    S    
C68   C72   A    
C178  H87   S    
C165  H2    S    
C137  C153  A    
C3    O27   A    
Cr8   O32   S    
C162  O14   A    
C163  O43   A    
C20   C172  A    
C132  C152  A    
C62   H6    S    
C196  H120  S    
C130  C138  A    
C180  H92   S    
C139  H35   S    
C160  O12   A    
C84   C88   A    
C193  C194  S    
Cr7   O7    S    
C119  C123  A    
C26   C90   S    
C5    C46   S    
Cr1   O17   S    
C105  C125  A    
Cr7   O19   S    
C7    C48   S    
Cr6   O30   S    
C8    C47   S    
C133  O45   A    
C173  H37   S    
C191  H114  S    
C136  C153  S    
C66   C70   A    
C177  H89   S    
C80   C160  S    
C157  O5    A    
C61   C65   A    
C158  O10   A    
C129  C137  A    
C188  N4    T    
C39   C71   S    
C47   O35   A    
C4    O28   A    
C35   H79   S    
C55   C71   A    
C2    C75   S    
C90   O38   A    
C26   C30   A    
C189  H108  S    
Cr12  O12   S    
Cr6   O50   S    
C159  O7    A    
C147  C151  A    
C160  O8    A    
C182  H97   S    
C134  O50   A    
C6    C9    A    
C123  H55   S    
C183  H103  S    
Cr6   O6    S    
C193  H118  S    
C129  C149  A    
C12   H63   S    
C84   C183  S    
Cr4   O20   S    
C64   C68   A    
C190  H105  S    
C138  H34   S    
C53   H73   S    
C144  H52   S    
C118  C122  A    
C57   C73   A    
C130  H30   S    
C123  C127  A    
C78   C158  S    
C87   C95   A    
C130  C150  A    
C23   C24   A    
C27   C91   S    
C45   O29   A    
C97   H18   S    
Cr12  O36   S    
C110  C114  A    
C44   C52   A    
C60   C195  S    
C181  H98   S    
C116  H44   S    
Cr9   O33   S    
C79   C103  A    
C11   C15   A    
C28   C32   A    
C105  C109  A    
C27   C51   A    
C110  C186  S    
C81   C177  S    
C7    C12   A    
C176  H40   S    
C49   H13   S    
C30   C34   A    
C32   H72   S    
Cr1   O41   S    
C179  C180  S    
C41   H9    S    
C10   C14   A    
C140  H36   S    
C108  C128  A    
C116  C120  A    
C132  H32   S    
C144  C156  A    
C57   C189  S    
C193  H119  S    
C86   H26   S    
C121  C125  A    
C143  C155  A    
C139  C155  A    
C54   C58   A    
C17   C18   A    
C90   O2    A    
C5    C166  A    
C142  C154  A    
C82   C179  S    
C4    C73   S    
C42   C50   A    
C113  C117  A    
C107  C163  S    
C44   H12   S    
C115  C119  A    
C58   C191  S    
C92   O4    A    
Cr10  O18   S    
C93   C97   A    
C112  C116  A    
C58   C74   A    
Cr4   O48   S    
C109  C185  S    
C40   C72   S    
Cr8   O52   S    
C1    C76   S    
C107  C111  A    
C83   C181  S    
C148  C152  A    
C23   H68   S    
C179  H93   S    
C117  C149  S    
C194  H117  S    
C102  H21   S    
C113  H41   S    
Cr8   O8    S    
C171  C176  A    
C11   H64   S    
C1    O21   A    
C166  H1    S    
C14   C22   A    
C9    H62   S    
C196  H122  S    
C3    O23   A    
Cr8   O28   S    
C184  H102  S    
C135  O47   A    
C63   C75   A    
C195  H123  S    
C136  O48   A    
C64   H8    S    
C105  C161  S    
C37   C41   A    
C131  C139  A    
C40   C44   A    
C125  H57   S    
C178  H86   S    
Cr9   O9    S    
C190  H107  S    
C81   C85   A    
C192  H111  S    
C83   C87   A    
C88   C96   A    
Cr1   O21   S    
C195  C196  S    
C6    C45   S    
C145  H45   S    
Cr2   O18   S    
C133  C156  S    
Cr6   O26   S    
Cr3   O23   S    
C80   C84   A    
C185  N1    T    
Cr1   O1    S    
C15   C19   A    
C135  C154  S    
C80   C104  A    
C1    O25   A    
C182  H96   S    
C79   C159  S    
C158  O6    A    
C94   C98   A    
C135  O51   A    
C137  H33   S    
C175  H39   S    
C118  C150  S    
C14   C18   A    
C22   H65   S    
C129  H29   S    
Cr12  O16   S    
C159  O11   A    
C46   O34   A    
C124  C128  A    
C67   H83   S    
C50   H14   S    
C30   H70   S    
Cr4   O24   S    
C25   C29   A    
Cr5   O17   S    
C181  H99   S    
Cr7   O27   S    
C100  H19   S    
C51   H15   S    
C180  H91   S    
C111  C187  S    
C163  O15   A    
C164  O16   A    
C184  H100  S    
C53   C57   A    
C61   C73   A    
C82   C86   A    
C33   C37   A    
C56   C60   A    
C33   H77   S    
C52   H16   S    
Cr12  O40   S    
C121  H53   S    
C8    C167  A    
C181  C182  S    
C77   C81   A    
Cr9   O37   S    
C177  H88   S    
Cr10  O34   S    
Cr11  O39   S    
Cr5   O25   S    
C63   H7    S    
C127  H59   S    
Cr2   O42   S    
C32   C36   A    
Cr3   O47   S    
C133  O49   A    
C142  H50   S    
Cr11  O11   S    
C183  H104  S    
C13   C17   A    
C132  C140  A    
C106  C126  A    
C25   C89   S    
C99   H20   S    
C91   O3    A    
C174  H38   S    
C79   C83   A    
C43   C51   A    
C190  H106  S    
C65   C69   A    
C67   C71   A    
C106  C162  S    
C177  C178  S    
C25   C49   A    
Cr11  O19   S    
C108  C112  A    
C168  C172  A    
C87   H27   S    
C62   C74   A    
C31   H71   S    
C145  C149  A    
C164  O44   A    
C170  C173  A    
C147  H47   S    
Cr7   O51   S    
C93   C94   S    
C2    O22   A    
C35   C39   A    
C95   C96   S    
C144  C148  A    
C141  C153  A    
C134  O46   A    
C122  H54   S    
C173  C174  A    
C143  C147  A    
C167  H4    S    
C168  H3    S    
C55   H75   S    
C56   H76   S    
C19   C171  A    
C38   C42   A    
C191  H113  S    
C17   C169  A    
C61   H5    S    
C96   C100  A    
C131  H31   S    
Cr9   O13   S    
C117  C121  A    
Cr10  O10   S    
Cr11  O15   S    
C175  C176  A    
Cr2   O22   S    
C98   H17   S    
Cr3   O19   S    
C86   C94   A    
C115  H43   S    
C16   C20   A    
Cr2   O2    S    
C15   C23   A    
C189  H109  S    
C16   C24   A    
C85   C93   A    
C2    O26   A    
C161  O13   A    
C119  C151  S    
C63   C67   A    
C120  C152  S    
C13   C21   A    
C54   H74   S    
C36   C40   A    
C179  H94   S    
C39   C43   A    
C148  H48   S    
C122  C126  A    
C24   H67   S    
C46   O30   A    
C85   H25   S    
C184  H101  S    
C195  H124  S    
C64   C76   A    
Cr5   O29   S    
C28   C92   S    
Cr6   O18   S    
C48   O36   A    
C109  C113  A    
Cr7   O31   S    
C114  C118  A    
C140  C156  A    
C59   C75   A    
C65   H81   S    
C194  H115  S    
C157  O9    A    
C192  H110  S    
C92   O40   A    
C134  C155  S    
C141  H49   S    
C88   H28   S    
C162  O42   A    
C34   C38   A    
C34   H78   S    
C47   O31   A    
C4    O24   A    
C48   O32   A    
C89   O37   A    
C103  H24   S    
C114  H42   S    
C161  O41   A    
C91   O39   A    
C101  H22   S    
C189  C190  S    
Cr10  O38   S    
C10   H61   S    
Cr11  O35   S    
C43   H11   S    
C5    C10   A    
Cr4   O4    S    
Cr5   O5    S    
C28   C52   A    
C183  C184  S    
C8    C11   A    
C166  C170  A    
C136  O52   A    
C31   C35   A    
Cr2   O46   S    
Cr3   O43   S    
Cr1   O45   S    
C106  C110  A    
C111  C115  A    
C107  C127  A    
C104  H23   S    
C97   C101  A    
C120  C124  A    
C77   C157  S    
