data_mof_unit_pretest_146.cif
_audit_creation_date              2012-12-10T20:26:24-0500
_audit_creation_method            fapswitch 2.2
_symmetry_space_group_name_H-M    P1
_symmetry_Int_Tables_number       1
_space_group_crystal_system       triclinic
_cell_length_a                    10.649747
_cell_length_b                    10.67079
_cell_length_c                    9.854532
_cell_angle_alpha                 89.946707
_cell_angle_beta                  91.300044
_cell_angle_gamma                 89.626621
_cell_volume                      1119.56828757

loop_
_atom_site_label
_atom_site_type_symbol
_atom_type_description
_atom_site_fract_x
_atom_site_fract_y
_atom_site_fract_z
_atom_type_partial_charge
C1    C     C_R   0.495040 0.259862 0.499914 0.862937
C2    C     C_R   0.471610 0.128856 0.498674 -0.100888
C3    C     C_R   0.459959 0.065175 0.374523 -0.230830
C4    C     C_R   0.460134 0.935688 0.374345 -0.230100
C5    C     C_R   0.471903 0.871462 0.498315 -0.107425
C6    C     C_R   0.456387 0.935998 0.619620 0.140496
C7    C     C_3   0.527921 0.927951 0.751591 -0.491322
C8    C     C_3   0.527134 0.070019 0.752211 -0.492108
C9    C     C_R   0.444988 0.404450 0.070001 0.220804
C10   C     C_R   0.564207 0.587902 0.073505 -0.137196
C11   C     C_R   0.564280 0.587865 0.929455 -0.138918
C12   C     C_R   0.262003 0.503287 0.498219 0.936169
C13   C     C_R   0.444994 0.404449 0.927371 0.218602
C14   C     C_3   0.310167 0.367957 0.918277 -0.506379
C15   C     C_3   0.310142 0.368190 0.072340 -0.530258
C16   C     C_R   0.495221 0.740182 0.499720 0.883907
C17   C     C_R   0.737194 0.485737 0.501614 0.900257
C18   C     C_2   0.931411 0.452475 0.390910 -0.195956
C19   C     C_2   0.865814 0.441036 0.505296 -0.053630
C20   C     C_2   0.066699 0.450321 0.392518 -0.180974
C21   C     C_2   0.128809 0.508979 0.492511 -0.359797
C22   C     C_R   0.455910 0.063991 0.619888 0.131062
H1    H     H_    0.886937 0.481195 0.295447 0.165566
H2    H     H_    0.622031 0.110524 0.742458 0.207043
H3    H     H_    0.614020 0.660260 0.129035 0.147423
H4    H     H_    0.614244 0.660097 0.876228 0.145349
H5    H     H_    0.249206 0.442294 0.872185 0.220948
H6    H     H_    0.297333 0.273134 0.873743 0.195203
H7    H     H_    0.249636 0.443093 0.114765 0.216542
H8    H     H_    0.297215 0.273532 0.116889 0.196021
H9    H     H_    0.114484 0.406475 0.308560 0.170124
H10   H     H_    0.081021 0.556662 0.574176 0.151062
H11   H     H_    0.461074 0.113971 0.278091 0.169838
H12   H     H_    0.461395 0.887198 0.277835 0.171634
H13   H     H_    0.471104 0.886550 0.833384 0.204326
H14   H     H_    0.623409 0.886735 0.741054 0.200561
H15   H     H_    0.470060 0.110661 0.834508 0.200615
N1    N     N_R   0.499170 0.499140 0.142800 -0.105362
N2    N     N_R   0.499170 0.499180 0.857150 -0.105579
O1    O     O_R   0.500020 0.316790 0.614690 -0.628064
O2    O     O_R   0.500000 0.316760 0.385350 -0.622921
O3    O     O_R   0.319080 0.500020 0.614640 -0.621738
O4    O     O_R   0.319070 0.499980 0.385300 -0.611509
O5    O     O_R   0.500000 0.683240 0.614650 -0.618134
O6    O     O_R   0.499980 0.683210 0.385310 -0.624546
O7    O     O_R   0.680930 0.500020 0.614700 -0.622233
O8    O     O_R   0.680920 0.499980 0.385360 -0.625490
Zn1   Zn    Zn3+2 0.500010 0.500020 0.653130 0.929554
Zn2   Zn    Zn3+2 0.499990 0.499980 0.346870 0.936266
C23   C     C_3   0.917383 0.377148 0.634558 -0.397836
C24   C     C_3   0.841224 0.260858 0.671561 -0.354297
C25   C     C_3   0.901822 0.191116 0.791893 -0.903496
H16   H     H_    0.998017 0.159073 0.766878 0.264048
H17   H     H_    0.906900 0.253119 0.882326 0.266669
H18   H     H_    0.845016 0.107687 0.816785 0.247880
H19   H     H_    0.744792 0.288704 0.699449 0.245770
H20   H     H_    0.835070 0.196420 0.583077 0.220596
H21   H     H_    0.015513 0.344282 0.623338 0.231672
H22   H     H_    0.916091 0.445336 0.719751 0.198040

loop_
_geom_bond_atom_site_label_1
_geom_bond_atom_site_label_2
_ccdc_geom_bond_type
C16   O6    A    
C2    C22   A    
C8    C22   S    
C6    C7    S    
C24   H20   S    
C14   H5    S    
C7    H14   S    
C16   O5    A    
C18   C20   S    
C11   H4    S    
C25   H18   S    
O6    Zn2   S    
C10   N1    A    
C8    H2    S    
C6    C22   A    
C23   C24   S    
C9    C15   S    
C7    C8    S    
O8    Zn2   S    
N1    Zn2   S    
O3    Zn1   S    
C13   C14   S    
C17   O7    A    
C11   N2    A    
C19   C23   S    
C23   H22   S    
C10   H3    S    
O2    Zn2   S    
C9    N1    A    
C17   C19   S    
C25   H17   S    
C15   H7    S    
C12   O4    A    
C2    C3    A    
C5    C6    A    
C21   H10   S    
C4    H12   S    
C13   N2    A    
C10   C11   A    
C3    H11   S    
C18   H1    S    
C23   H21   S    
O7    Zn1   S    
O5    Zn1   S    
C24   C25   S    
C20   C21   D    
C15   H8    S    
C1    C2    S    
C8    H15   S    
C1    O2    A    
O1    Zn1   S    
C9    C13   A    
C14   C15   S    
C18   C19   D    
C5    C16   S    
C12   O3    A    
C1    O1    A    
C14   H6    S    
C7    H13   S    
C12   C21   S    
O4    Zn2   S    
C3    C4    A    
C17   O8    A    
C25   H16   S    
C4    C5    A    
N2    Zn1   S    
C20   H9    S    
C24   H19   S    
