data_mof_unit_pretest_1004.cif
_audit_creation_date              2012-12-10T18:12:32-0500
_audit_creation_method            fapswitch 2.2
_symmetry_space_group_name_H-M    P1
_symmetry_Int_Tables_number       1
_space_group_crystal_system       triclinic
_cell_length_a                    12.777508
_cell_length_b                    13.116176
_cell_length_c                    15.686665
_cell_angle_alpha                 93.81267
_cell_angle_beta                  102.386398
_cell_angle_gamma                 82.216682
_cell_volume                      2542.20526348

loop_
_atom_site_label
_atom_site_type_symbol
_atom_type_description
_atom_site_fract_x
_atom_site_fract_y
_atom_site_fract_z
_atom_type_partial_charge
C1    C     C_R   0.439826 0.690284 0.484651 0.883308
C2    C     C_R   0.593572 0.197718 0.510508 -0.052034
C3    C     C_R   0.296462 0.837288 0.473142 -0.259443
C4    C     C_R   0.501281 0.500681 0.661676 0.891911
C5    C     C_R   0.259974 0.940730 0.461681 -0.132110
C6    C     C_R   0.330586 0.008639 0.450974 0.113281
C7    C     C_R   0.441717 0.971094 0.453740 -0.003603
C8    C     C_R   0.470008 0.864050 0.442905 0.061795
C9    C     C_R   0.526415 0.033844 0.468461 0.066265
C10   C     C_R   0.629845 0.993092 0.453576 0.167015
C11   C     C_R   0.645853 0.893178 0.419329 -0.315073
C12   C     C_3   0.502896 0.501261 0.917624 0.182491
C13   C     C_R   0.565704 0.828777 0.411691 0.105125
C14   C     C_R   0.513447 0.133747 0.503644 -0.259365
C15   C     C_R   0.697399 0.155368 0.502105 -0.226162
C16   C     C_R   0.560043 0.308709 0.511669 0.844228
C17   C     C_R   0.401326 0.797785 0.464024 -0.099470
C18   C     C_R   0.095581 0.339851 0.376520 0.006666
C19   C     C_R   0.797886 0.636834 0.599263 0.010220
C20   C     C_R   0.901799 0.663628 0.623395 -0.259273
C21   C     C_R   0.985119 0.606451 0.590235 -0.171866
C22   C     C_R   0.965843 0.520648 0.532148 -0.000643
C23   C     C_3   0.480922 0.410965 0.018413 0.149908
C24   C     C_R   0.858330 0.494329 0.509574 0.187130
C25   C     C_R   0.047800 0.464868 0.491261 -0.080041
C26   C     C_R   0.023890 0.380028 0.432164 0.079545
C27   C     C_R   0.926486 0.342010 0.426043 0.000657
C28   C     C_R   0.498612 0.499519 0.338338 0.911499
C29   C     C_R   0.840862 0.404925 0.452488 0.039642
C30   C     C_R   0.153439 0.490625 0.505257 -0.085596
C31   C     C_R   0.193685 0.378276 0.387691 0.244941
C32   C     C_3   0.421290 0.574149 0.017138 -0.189199
C33   C     C_3   0.520066 0.594670 0.981016 -0.154317
C34   C     C_3   0.497454 0.501879 0.082775 0.192514
C35   C     C_1   0.504206 0.501308 0.751331 -0.184210
C36   C     C_1   0.495562 0.499805 0.248786 -0.186824
C37   C     C_3   0.403759 0.480877 0.951705 -0.166466
C38   C     C_3   0.579524 0.428636 0.982843 -0.218093
C39   C     C_3   0.596212 0.522140 0.048201 -0.196606
C40   C     C_1   0.504691 0.501470 0.826905 -0.073129
C41   C     C_1   0.495316 0.500661 0.173355 -0.071633
C42   C     C_R   0.715443 0.053228 0.472717 -0.196704
H1    H     H_    0.536484 0.670625 0.963277 0.135229
H2    H     H_    0.330987 0.137024 0.384385 0.187032
H3    H     H_    0.175967 0.968444 0.460903 0.147987
H4    H     H_    0.575647 0.748471 0.299043 0.169919
H5    H     H_    0.653326 0.693786 0.388886 0.219159
H6    H     H_    0.328932 0.299230 0.356981 0.194824
H7    H     H_    0.226750 0.316815 0.269504 0.188432
H8    H     H_    0.890731 0.196658 0.433913 0.183478
H9    H     H_    0.852284 0.244150 0.331371 0.171848
H10   H     H_    0.069845 0.194624 0.327662 0.232547
H11   H     H_    0.993290 0.293772 0.265814 0.199533
H12   H     H_    0.440400 0.164047 0.524985 0.161004
H13   H     H_    0.357196 0.633678 0.033149 0.141473
H14   H     H_    0.063574 0.632077 0.610742 0.133861
H15   H     H_    0.917838 0.729235 0.667672 0.148990
H16   H     H_    0.733625 0.400674 0.339183 0.167549
H17   H     H_    0.725612 0.309852 0.406757 0.173505
H18   H     H_    0.453754 0.263332 0.984902 0.178254
H19   H     H_    0.526048 0.280232 0.086396 0.176001
H20   H     H_    0.763124 0.201698 0.515854 0.151500
H21   H     H_    0.721018 0.864337 0.399516 0.146230
H22   H     H_    0.795365 0.021881 0.463500 0.132967
H23   H     H_    0.241475 0.787788 0.487257 0.168232
H24   H     H_    0.183536 0.546895 0.554269 0.138147
H25   H     H_    0.733250 0.681186 0.625270 0.139136
H26   H     H_    0.674281 0.539544 0.089571 0.138523
H27   H     H_    0.643000 0.368224 0.967107 0.136253
H28   H     H_    0.325862 0.462366 0.910760 0.137123
H29   H     H_    0.269484 0.157479 0.472910 0.182035
N1    N     N_R   0.222180 0.444680 0.455580 -0.122634
N2    N     N_R   0.776980 0.554790 0.543960 -0.119215
N3    N     N_3   0.282397 0.108035 0.420126 -0.479104
N4    N     N_3   0.576938 0.732606 0.363729 -0.431964
N5    N     N_3   0.264575 0.351357 0.327779 -0.402708
N6    N     N_3   0.911974 0.240456 0.388613 -0.487707
N7    N     N_3   0.068234 0.267832 0.304622 -0.483879
N8    N     N_3   0.737513 0.386520 0.404808 -0.359835
N9    N     N_3   0.458722 0.311364 0.041135 -0.460923
O1    O     O_R   0.366730 0.627160 0.478790 -0.618379
O2    O     O_R   0.544830 0.662520 0.507160 -0.612147
O3    O     O_R   0.410960 0.482330 0.609040 -0.613417
O4    O     O_R   0.589060 0.517690 0.637410 -0.610558
O5    O     O_R   0.455170 0.337480 0.492840 -0.629468
O6    O     O_R   0.633270 0.372840 0.521210 -0.598381
O7    O     O_R   0.410940 0.482310 0.362590 -0.587958
O8    O     O_R   0.589040 0.517670 0.390960 -0.605051
Zn1   Zn    Zn3+2 0.381080 0.476390 0.481050 0.943044
Zn2   Zn    Zn3+2 0.618920 0.523610 0.518950 0.943229

loop_
_geom_bond_atom_site_label_1
_geom_bond_atom_site_label_2
_ccdc_geom_bond_type
C8    C13   A    
C27   C29   A    
C39   H26   S    
H6    N5    S    
C19   C20   A    
C18   C26   A    
C7    C8    A    
C26   C27   A    
C33   C39   S    
C3    C17   A    
N2    Zn2   S    
C11   H21   S    
C5    C6    A    
C24   N2    A    
C10   C42   A    
H19   N9    S    
C1    O1    A    
C12   C37   S    
C24   C29   A    
C13   N4    S    
C22   C25   A    
C29   N8    S    
C28   O8    A    
C19   H25   S    
C23   N9    S    
C2    C16   S    
C9    C10   A    
C32   H13   S    
O1    Zn1   S    
C38   H27   S    
C21   C22   A    
C16   O6    A    
C36   C41   T    
C3    H23   S    
C34   C41   S    
O4    Zn2   S    
H10   N7    S    
H4    N4    S    
C6    N3    S    
O3    Zn1   S    
C34   C39   S    
C33   H1    S    
C19   N2    A    
O6    Zn2   S    
H17   N8    S    
O5    Zn1   S    
C3    C5    A    
C1    O2    A    
C23   C37   S    
C5    H3    S    
C32   C34   S    
C12   C40   S    
C9    C14   A    
H9    N6    S    
C21   H14   S    
C4    O4    A    
C18   N7    S    
C23   C34   S    
C28   O7    A    
H7    N5    S    
C32   C37   S    
H2    N3    S    
C2    C15   A    
C30   H24   S    
H16   N8    S    
C31   N1    A    
C14   H12   S    
O8    Zn2   S    
O7    Zn1   S    
C16   O5    A    
C22   C24   A    
H8    N6    S    
C42   H22   S    
C25   C30   A    
C7    C9    A    
H18   N9    S    
C15   C42   A    
C27   N6    S    
H29   N3    S    
C30   N1    A    
C6    C7    A    
C23   C38   S    
C1    C17   S    
C8    C17   A    
O2    Zn2   S    
C32   C33   S    
C35   C40   T    
C25   C26   A    
H5    N4    S    
N1    Zn1   S    
C11   C13   A    
C31   N5    S    
C38   C39   S    
C4    O3    A    
C12   C33   S    
C15   H20   S    
H11   N7    S    
C12   C38   S    
C2    C14   A    
C4    C35   S    
C10   C11   A    
C20   C21   A    
C28   C36   S    
C18   C31   A    
C20   H15   S    
C37   H28   S    
