data_mof_unit_pretest_1800.cif
_audit_creation_date              2012-12-10T20:23:57-0500
_audit_creation_method            fapswitch 2.2
_symmetry_space_group_name_H-M    P1
_symmetry_Int_Tables_number       1
_space_group_crystal_system       triclinic
_cell_length_a                    16.837877
_cell_length_b                    18.443326
_cell_length_c                    19.266181
_cell_angle_alpha                 90.466339
_cell_angle_beta                  89.263951
_cell_angle_gamma                 95.471222
_cell_volume                      5955.15160755

loop_
_atom_site_label
_atom_site_type_symbol
_atom_type_description
_atom_site_fract_x
_atom_site_fract_y
_atom_site_fract_z
_atom_type_partial_charge
C1    C     C_R   0.498448 0.499460 0.365856 0.893520
C2    C     C_R   0.439921 0.445906 0.256767 -0.060492
C3    C     C_R   0.494282 0.500240 0.708658 -0.059583
C4    C     C_R   0.493491 0.497632 0.290964 -0.075323
C5    C     C_R   0.476442 0.559845 0.964031 -0.151387
C6    C     C_R   0.509365 0.434911 0.035403 -0.151234
C7    C     C_R   0.475178 0.560101 0.035917 -0.195664
C8    C     C_R   0.509784 0.434398 0.963475 -0.196432
C9    C     C_R   0.490782 0.497373 0.071561 0.116734
C10   C     C_R   0.492407 0.496604 0.927874 0.116183
C11   C     C_R   0.443422 0.720680 0.537827 -0.080452
C12   C     C_R   0.498520 0.500132 0.633989 0.857001
C13   C     C_R   0.556440 0.279744 0.461606 0.012249
C14   C     C_R   0.440819 0.797085 0.539107 0.369168
C15   C     C_R   0.560808 0.204047 0.461191 0.362162
C16   C     C_R   0.653297 0.510145 0.499246 0.953448
C17   C     C_R   0.346468 0.489732 0.499016 1.018542
C18   C     C_R   0.497788 0.841296 0.500053 0.064693
C19   C     C_R   0.502992 0.158727 0.499443 -0.015774
C20   C     C_R   0.554685 0.807144 0.460662 -0.374336
C21   C     C_R   0.445183 0.192563 0.538106 -0.332596
C22   C     C_R   0.554939 0.731114 0.461534 0.027766
C23   C     C_R   0.560194 0.482775 0.816247 -0.176530
C24   C     C_R   0.444855 0.268552 0.537872 0.008837
C25   C     C_R   0.502234 0.961249 0.436993 -0.193952
C26   C     C_R   0.496396 0.038533 0.562105 -0.191765
C27   C     C_R   0.502792 0.037463 0.436723 -0.186701
C28   C     C_R   0.495294 0.962314 0.562367 -0.099582
C29   C     C_R   0.500905 0.077219 0.499328 0.111479
C30   C     C_R   0.498253 0.922613 0.499821 0.168318
C31   C     C_R   0.739511 0.517975 0.495205 -0.257165
C32   C     C_R   0.260640 0.480877 0.488619 -0.163823
C33   C     C_R   0.783801 0.473594 0.536123 0.346661
C34   C     C_R   0.540476 0.548571 0.181833 -0.189014
C35   C     C_R   0.225095 0.533420 0.450271 0.331716
C36   C     C_R   0.864559 0.473397 0.523116 -0.242575
C37   C     C_R   0.142870 0.525715 0.441927 -0.395729
C38   C     C_R   0.903000 0.519605 0.472906 0.158639
C39   C     C_R   0.096193 0.465687 0.470247 0.207093
C40   C     C_R   0.861042 0.568802 0.436919 0.334259
C41   C     C_R   0.132081 0.409593 0.501948 0.296778
C42   C     C_R   0.777359 0.565464 0.445249 0.265921
C43   C     C_R   0.214950 0.418263 0.514061 0.230723
C44   C     C_R   0.561884 0.484614 0.744561 -0.206532
C45   C     C_R   0.490473 0.495560 0.852521 0.031656
C46   C     C_R   0.542409 0.549070 0.253469 -0.197096
C47   C     C_R   0.344965 0.516440 0.855451 0.116197
C48   C     C_R   0.312911 0.583914 0.859365 -0.145811
C49   C     C_R   0.240291 0.589853 0.893938 -0.123598
C50   C     C_R   0.199078 0.528462 0.924212 -0.114031
C51   C     C_R   0.230574 0.461110 0.920140 -0.133244
C52   C     C_R   0.303615 0.455115 0.886381 -0.132587
C53   C     C_R   0.375816 0.397623 0.147241 0.117068
C54   C     C_R   0.383550 0.322675 0.141823 -0.155416
C55   C     C_R   0.324596 0.276586 0.108997 -0.123665
C56   C     C_R   0.488634 0.497415 0.146963 0.039467
C57   C     C_R   0.257416 0.304953 0.082081 -0.114375
C58   C     C_R   0.249239 0.379482 0.087781 -0.132910
C59   C     C_R   0.308517 0.425874 0.119756 -0.123513
C60   C     C_R   0.349879 0.525694 0.705743 0.095897
C61   C     C_R   0.341405 0.594944 0.678887 -0.149303
C62   C     C_R   0.269963 0.609331 0.647867 -0.132510
C63   C     C_R   0.206299 0.555035 0.644494 -0.116136
C64   C     C_R   0.214075 0.486204 0.671922 -0.121053
C65   C     C_R   0.285836 0.471247 0.701925 -0.104558
C66   C     C_R   0.383394 0.394929 0.296632 0.120458
C67   C     C_R   0.420704 0.509098 0.816952 -0.023983
C68   C     C_R   0.406612 0.327910 0.319065 -0.103436
C69   C     C_R   0.353166 0.280202 0.356779 -0.128280
C70   C     C_R   0.275901 0.298478 0.371012 -0.063884
C71   C     C_R   0.252009 0.364454 0.347518 -0.132811
C72   C     C_R   0.305716 0.412893 0.310893 -0.151656
C73   C     C_R   0.436691 0.446580 0.183959 -0.026149
C74   C     C_R   0.422884 0.512370 0.744062 -0.059457
H1    H     H_    0.461413 0.608696 0.063784 0.138563
H2    H     H_    0.494970 0.067491 0.611165 0.143150
H3    H     H_    0.504853 0.065542 0.387488 0.159299
H4    H     H_    0.493358 0.934402 0.611674 0.158869
H5    H     H_    0.115168 0.567262 0.414118 0.203413
H6    H     H_    0.898106 0.438565 0.554197 0.219022
H7    H     H_    0.616279 0.474575 0.716932 0.142217
H8    H     H_    0.583345 0.588797 0.279763 0.166272
H9    H     H_    0.613635 0.472185 0.843677 0.150288
H10   H     H_    0.580192 0.587693 0.153317 0.148061
H11   H     H_    0.464417 0.608526 0.936515 0.133432
H12   H     H_    0.522692 0.385571 0.935568 0.139088
H13   H     H_    0.523137 0.386774 0.062918 0.134571
H14   H     H_    0.237223 0.622743 0.395824 0.339473
H15   H     H_    0.700163 0.447609 0.604757 0.325701
H16   H     H_    0.347754 0.790294 0.600322 0.321298
H17   H     H_    0.631788 0.128895 0.442093 0.345116
H18   H     H_    0.873760 0.661876 0.389750 0.340155
H19   H     H_    0.115999 0.305934 0.519879 0.337839
H20   H     H_    0.758712 0.613913 0.358369 0.337381
H21   H     H_    0.212870 0.343669 0.585349 0.335578
H22   H     H_    0.344160 0.631661 0.835664 0.123346
H23   H     H_    0.399706 0.685954 0.566481 0.127467
H24   H     H_    0.215751 0.641942 0.896932 0.130827
H25   H     H_    0.142585 0.533004 0.950542 0.126416
H26   H     H_    0.198101 0.413393 0.942621 0.125078
H27   H     H_    0.327351 0.402611 0.883307 0.127430
H28   H     H_    0.435115 0.300161 0.162966 0.121269
H29   H     H_    0.330759 0.218838 0.104772 0.129781
H30   H     H_    0.211537 0.269155 0.057109 0.125300
H31   H     H_    0.196695 0.401261 0.067892 0.124830
H32   H     H_    0.301499 0.483511 0.124099 0.127942
H33   H     H_    0.389526 0.637991 0.683365 0.127127
H34   H     H_    0.599793 0.314474 0.432175 0.161949
H35   H     H_    0.263556 0.662806 0.627198 0.129327
H36   H     H_    0.150931 0.566284 0.620711 0.142248
H37   H     H_    0.164527 0.444355 0.669709 0.145860
H38   H     H_    0.291044 0.417857 0.723427 0.129177
H39   H     H_    0.466226 0.313148 0.307955 0.124427
H40   H     H_    0.371604 0.229041 0.374846 0.131360
H41   H     H_    0.234478 0.261477 0.400084 0.134258
H42   H     H_    0.191987 0.378275 0.358038 0.137982
H43   H     H_    0.286827 0.464146 0.293430 0.144391
H44   H     H_    0.599341 0.839211 0.430036 0.168194
H45   H     H_    0.399909 0.160246 0.567871 0.170859
H46   H     H_    0.599087 0.705283 0.431319 0.172453
H47   H     H_    0.400272 0.294064 0.567844 0.177609
H48   H     H_    0.503947 0.932294 0.387952 0.143885
N1    N     N_2   0.985940 0.521987 0.462414 -0.116674
N2    N     N_2   0.012237 0.462143 0.472198 -0.106756
N3    N     N_R   0.499990 0.689440 0.499980 -0.105002
N4    N     N_R   0.500010 0.310560 0.500020 -0.130818
O1    O     O_R   0.500000 0.560840 0.398180 -0.599980
O2    O     O_3   0.750867 0.429599 0.588806 -0.730849
O3    O     O_3   0.382396 0.828903 0.576149 -0.781536
O4    O     O_3   0.623257 0.177840 0.424755 -0.774751
O5    O     O_3   0.903477 0.618311 0.393790 -0.755357
O6    O     O_3   0.084052 0.348309 0.522043 -0.755300
O7    O     O_3   0.730841 0.604451 0.403417 -0.775710
O8    O     O_3   0.252110 0.368843 0.552864 -0.772587
O9    O     O_R   0.500000 0.439160 0.601820 -0.615438
O10   O     O_R   0.500030 0.439210 0.398180 -0.632155
O11   O     O_R   0.499970 0.560790 0.601820 -0.632758
O12   O     O_R   0.616110 0.567600 0.499360 -0.576898
O13   O     O_R   0.383890 0.432400 0.500640 -0.577902
O14   O     O_R   0.616150 0.445970 0.499350 -0.624676
O15   O     O_R   0.383850 0.554030 0.500650 -0.580669
O16   O     O_3   0.271669 0.591493 0.421212 -0.739508
Zn1   Zn    Zn3+2 0.499980 0.581210 0.500000 0.992567
Zn2   Zn    Zn3+2 0.500020 0.418790 0.500000 0.976653

loop_
_geom_bond_atom_site_label_1
_geom_bond_atom_site_label_2
_ccdc_geom_bond_type
C66   C68   A    
C34   C56   A    
C23   C45   A    
C31   C42   A    
C27   C29   A    
C14   C18   A    
H20   O7    S    
C6    C9    A    
C20   H44   S    
C53   C59   A    
N1    N2    D    
C39   C41   A    
H17   O4    S    
C4    C46   A    
C53   C54   A    
C16   C31   S    
C15   C19   A    
C37   H5    S    
C50   H25   S    
C23   H9    S    
C42   O7    S    
C35   C37   A    
O12   Zn1   S    
O15   Zn1   S    
C22   N3    A    
C11   C14   A    
C22   H46   S    
C55   H29   S    
C51   H26   S    
C33   C36   A    
C17   O15   A    
H14   O16   S    
C3    C74   A    
C3    C12   S    
C49   H24   S    
C46   H8    S    
H16   O3    S    
C23   C44   A    
C66   C72   A    
C68   C69   A    
C12   O9    A    
C72   H43   S    
C45   C67   A    
C26   H2    S    
C31   C33   A    
C70   C71   A    
C34   C46   A    
H19   O6    S    
C28   H4    S    
C25   H48   S    
C8    H12   S    
C38   N1    S    
C68   H39   S    
C5    H11   S    
C40   C42   A    
O11   Zn1   S    
C24   N4    A    
C41   C43   A    
C16   O14   A    
C34   H10   S    
C13   H34   S    
C47   C67   S    
C69   H40   S    
C53   C73   S    
C3    C44   A    
C59   H32   S    
C51   C52   A    
C32   C35   A    
C1    O1    A    
H18   O5    S    
C44   H7    S    
C36   H6    S    
C5    C7    A    
C64   H37   S    
C7    H1    S    
C2    C66   S    
C58   C59   A    
H21   O8    S    
C6    H13   S    
C60   C61   A    
C43   O8    S    
C2    C4    A    
C65   H38   S    
C62   C63   A    
O13   Zn2   S    
C47   C48   A    
C13   C15   A    
C10   C45   S    
C50   C51   A    
C17   O13   A    
C9    C56   S    
O1    Zn1   S    
C2    C73   A    
C52   H27   S    
C18   C30   S    
C13   N4    A    
C8    C10   A    
C48   C49   A    
C40   O5    S    
C20   C22   A    
C60   C65   A    
C55   C57   A    
N4    Zn2   S    
C1    O10   A    
C25   C30   A    
C7    C9    A    
C57   H30   S    
C54   C55   A    
O9    Zn2   S    
C56   C73   A    
C48   H22   S    
C11   N3    A    
C54   H28   S    
C16   O12   A    
O14   Zn2   S    
C27   H3    S    
C41   O6    S    
C6    C8    A    
C47   C52   A    
C70   H41   S    
C25   C27   A    
C26   C28   A    
C11   H23   S    
C58   H31   S    
C64   C65   A    
C1    C4    S    
C63   H36   S    
C36   C38   A    
C5    C10   A    
O10   Zn2   S    
C67   C74   A    
C38   C40   A    
C57   C58   A    
C62   H35   S    
N3    Zn1   S    
C60   C74   S    
C24   H47   S    
C32   C43   A    
C28   C30   A    
C71   H42   S    
C18   C20   A    
C33   O2    S    
C61   C62   A    
C61   H33   S    
C69   C70   A    
C39   N2    S    
C35   O16   S    
C63   C64   A    
C37   C39   A    
C71   C72   A    
C26   C29   A    
C21   H45   S    
C49   C50   A    
C21   C24   A    
C17   C32   S    
C12   O11   A    
C15   O4    S    
C14   O3    S    
C19   C21   A    
H15   O2    S    
C19   C29   S    
