data_mof_unit_pretest_870.cif
_audit_creation_date              2013-03-05T16:00:39-0500
_audit_creation_method            fapswitch 2.2
_symmetry_space_group_name_H-M    P1
_symmetry_Int_Tables_number       1
_space_group_crystal_system       triclinic
_cell_length_a                    18.663602
_cell_length_b                    18.90779
_cell_length_c                    18.726064
_cell_angle_alpha                 109.78791
_cell_angle_beta                  109.145462
_cell_angle_gamma                 109.730946
_cell_volume                      5071.04615237

loop_
_atom_site_label
_atom_site_type_symbol
_atom_site_description
_atom_site_fract_x
_atom_site_fract_y
_atom_site_fract_z
_atom_type_partial_charge
O1    O     O_R   0.591640 0.539900 0.448310 -0.565974
O2    O     O_R   0.591610 0.643330 0.551710 -0.612217
C1    C     C_R   0.619497 0.619728 0.499156 0.990840
O3    O     O_R   0.408400 0.448280 0.356670 -0.604416
O4    O     O_R   0.408370 0.551710 0.460080 -0.626583
C2    C     C_R   0.379206 0.498979 0.379086 0.900917
Zn1   Zn    Zn3+2 0.500020 0.430940 0.430950 1.059794
Zn2   Zn    Zn3+2 0.499980 0.569060 0.569050 1.047262
O5    O     O_R   0.408390 0.356670 0.448290 -0.623369
O6    O     O_R   0.408360 0.460100 0.551690 -0.616781
O7    O     O_R   0.591630 0.448290 0.539920 -0.585549
O8    O     O_R   0.591600 0.551720 0.643330 -0.623509
C3    C     C_R   0.379337 0.380300 0.499539 0.950064
C4    C     C_R   0.620793 0.500139 0.620444 1.059895
C5    C     C_R   0.324637 0.262973 0.136959 0.146566
C6    C     C_R   0.319306 0.339414 0.166476 0.385569
C7    C     C_R   0.261360 0.343609 0.199110 0.011809
C8    C     C_R   0.210006 0.272309 0.202266 -0.211634
H1    H     H_    0.165700 0.275163 0.227295 0.198748
C9    C     C_R   0.214650 0.196686 0.172373 -0.240574
H2    H     H_    0.173992 0.141734 0.174493 0.209160
C10   C     C_R   0.271743 0.191537 0.140203 0.398539
C11   C     C_R   0.186440 0.423661 0.167066 0.226193
C12   C     C_R   0.186768 0.502423 0.187291 -0.201383
C13   C     C_R   0.250196 0.578913 0.268465 0.066870
C14   C     C_R   0.312453 0.575390 0.329920 -0.114894
H3    H     H_    0.361837 0.634276 0.392526 0.180602
C15   C     C_R   0.313204 0.497866 0.311032 -0.106633
C16   C     C_R   0.252514 0.422044 0.227790 -0.063939
C17   C     C_R   0.291979 0.710316 0.254661 -0.282350
H4    H     H_    0.312046 0.681935 0.209665 0.203404
C18   C     C_R   0.301385 0.792072 0.274981 0.370279
C19   C     C_R   0.282845 0.833297 0.338998 0.297507
C20   C     C_R   0.245637 0.787701 0.375516 0.098980
C21   C     C_R   0.230691 0.702076 0.349916 0.174275
C22   C     C_R   0.255937 0.664386 0.290522 -0.136708
C23   C     C_R   0.766061 0.747591 0.579700 0.182631
C24   C     C_R   0.828991 0.816264 0.582771 0.212481
C25   C     C_R   0.812279 0.819860 0.505411 -0.270941
C26   C     C_R   0.732254 0.759424 0.427813 -0.262094
H5    H     H_    0.719816 0.762877 0.368657 0.217843
C27   C     C_R   0.669376 0.691442 0.424162 0.279585
C28   C     C_R   0.686963 0.685358 0.500093 -0.313635
C29   C     C_R   0.708499 0.544262 0.773804 -0.257864
H6    H     H_    0.677759 0.581140 0.792384 0.199681
C30   C     C_R   0.769404 0.542102 0.838150 0.440872
C31   C     C_R   0.813334 0.499191 0.815234 -0.311708
C32   C     C_R   0.794560 0.455171 0.728722 0.158122
C33   C     C_R   0.727516 0.450737 0.662995 0.415901
C34   C     C_R   0.686756 0.498518 0.686408 -0.203889
C35   C     C_R   0.235402 0.310296 0.482422 -0.228550
H7    H     H_    0.220992 0.355007 0.465031 0.179454
C36   C     C_R   0.171400 0.245211 0.480644 -0.169552
H8    H     H_    0.107749 0.240317 0.462268 0.195556
C37   C     C_R   0.189925 0.187875 0.503723 -0.154634
C38   C     C_R   0.274332 0.196759 0.530721 0.438753
C39   C     C_R   0.336099 0.257851 0.525140 0.245194
C40   C     C_R   0.316394 0.315401 0.503043 -0.199253
O9    O     O_R   0.948300 0.539910 0.091570 -0.585290
O10   O     O_R   0.051750 0.643320 0.091550 -0.660278
C41   C     C_R   0.999980 0.619980 0.121022 0.936404
O11   O     O_R   0.039910 0.448280 0.091610 -0.567959
O12   O     O_R   0.143370 0.551700 0.091590 -0.657629
C42   C     C_R   0.120262 0.503203 0.122776 0.963715
Zn3   Zn    Zn3+2 0.930950 0.430940 0.999980 1.093096
Zn4   Zn    Zn3+2 0.069100 0.569040 0.999960 0.958337
O13   O     O_R   0.948300 0.356650 0.908390 -0.572440
O14   O     O_R   0.051750 0.460070 0.908380 -0.632801
O15   O     O_R   0.856690 0.448280 0.908350 -0.637764
O16   O     O_R   0.960140 0.551690 0.908340 -0.605100
C43   C     C_R   0.000154 0.379596 0.879619 1.058842
C44   C     C_R   0.879917 0.501510 0.882071 1.025432
O17   O     O_R   0.051710 0.908290 0.460000 -0.595791
O18   O     O_R   0.948270 0.908330 0.356580 -0.621599
C45   C     C_R   0.000548 0.880910 0.380026 1.020918
O19   O     O_R   0.960090 0.908280 0.551610 -0.595490
O20   O     O_R   0.856650 0.908310 0.448190 -0.632798
C46   C     C_R   0.879483 0.882481 0.502390 0.956216
Zn5   Zn    Zn3+2 0.069070 0.999890 0.568970 1.094426
Zn6   Zn    Zn3+2 0.930930 0.999930 0.430860 1.024263
O21   O     O_R   0.051730 0.091500 0.643240 -0.584918
O22   O     O_R   0.948290 0.091530 0.539820 -0.629322
O23   O     O_R   0.143350 0.091510 0.551630 -0.606984
O24   O     O_R   0.039910 0.091550 0.448210 -0.631290
C47   C     C_R   0.001638 0.121245 0.619978 0.976444
C48   C     C_R   0.121099 0.120207 0.500463 1.031621
C49   C     C_R   0.043948 0.771428 0.208238 -0.258698
H9    H     H_    0.078358 0.788035 0.174657 0.206989
C50   C     C_R   0.045744 0.837286 0.271594 0.316944
C51   C     C_R   0.000415 0.815253 0.314557 -0.262519
C52   C     C_R   0.953617 0.729410 0.294811 0.335544
C53   C     C_R   0.951260 0.663332 0.230120 0.258772
C54   C     C_R   0.998730 0.685282 0.188076 -0.284345
C55   C     C_R   0.077892 0.332127 0.809390 -0.276840
H10   H     H_    0.136180 0.395891 0.855149 0.197746
C56   C     C_R   0.080121 0.269984 0.745563 0.330817
C57   C     C_R   0.003206 0.188427 0.685894 -0.177771
C58   C     C_R   0.926235 0.168931 0.689766 -0.305588
H11   H     H_    0.867539 0.105793 0.642254 0.165014
C59   C     C_R   0.924866 0.229759 0.755618 0.538343
C60   C     C_R   0.000573 0.312822 0.813595 -0.132848
O25   O     O_3   0.274328 0.115444 0.110241 -0.573601
C61   C     C_3   0.338698 0.120538 0.180791 0.122836
H12   H     H_    0.315973 0.116575 0.228139 0.152085
H13   H     H_    0.402706 0.182248 0.215531 0.134848
C62   C     C_3   0.353200 0.044250 0.145014 -0.275405
H14   H     H_    0.290325 0.982116 0.110776 0.222672
H15   H     H_    0.374709 0.047221 0.096811 0.260186
C63   C     C_3   0.422844 0.046403 0.218149 -0.969232
H16   H     H_    0.486608 0.107282 0.251330 0.278043
H17   H     H_    0.431586 0.990008 0.190232 0.282858
H18   H     H_    0.402391 0.042703 0.266793 0.271998
O26   O     O_3   0.296963 0.916699 0.362932 -0.562764
C64   C     C_3   0.388151 0.978382 0.415476 0.165584
H19   H     H_    0.398997 0.035015 0.405736 0.197559
H20   H     H_    0.429769 0.954392 0.396621 0.139227
C65   C     C_3   0.418626 0.009419 0.512566 -0.287134
H21   H     H_    0.379365 0.036665 0.531805 0.296746
H22   H     H_    0.408230 0.953462 0.523517 0.222645
C66   C     C_3   0.515919 0.078654 0.570308 -0.973907
H23   H     H_    0.556173 0.051981 0.552673 0.261145
H24   H     H_    0.535962 0.099284 0.640019 0.271972
H25   H     H_    0.528670 0.136573 0.562551 0.301168
N1    N     N_R   0.228418 0.830188 0.442469 0.227871
O27   O     O_R   0.204305 0.887001 0.441602 -0.325834
O28   O     O_R   0.245708 0.819145 0.509781 -0.345662
N2    N     N_R   0.186461 0.652577 0.381133 0.262752
O29   O     O_R   0.222480 0.619575 0.421813 -0.357264
O30   O     O_R   0.113046 0.646499 0.375338 -0.349966
N3    N     N_R   0.781809 0.741537 0.657292 0.243970
O31   O     O_R   0.803252 0.807186 0.729185 -0.313421
O32   O     O_R   0.776130 0.670793 0.656599 -0.392680
N4    N     N_R   0.908929 0.882046 0.664001 0.249924
O33   O     O_R   0.931370 0.963697 0.694749 -0.383714
O34   O     O_R   0.958286 0.860381 0.708500 -0.307546
N5    N     N_R   0.587310 0.630744 0.343849 0.198787
O35   O     O_R   0.564561 0.549132 0.303293 -0.315610
O36   O     O_R   0.544448 0.659448 0.302985 -0.420009
O37   O     O_3   0.792783 0.589972 0.924787 -0.633865
C67   C     C_3   0.742164 0.536594 0.947596 0.101247
H26   H     H_    0.785865 0.555767 0.015903 0.195365
H27   H     H_    0.716647 0.465610 0.906483 0.134657
C68   C     C_3   0.665864 0.551838 0.944225 -0.380463
H28   H     H_    0.691321 0.622787 0.982822 0.252767
H29   H     H_    0.618232 0.527124 0.875280 0.221811
C69   C     C_3   0.618250 0.505440 0.981252 -0.842297
H30   H     H_    0.592443 0.434382 0.943897 0.264155
H31   H     H_    0.562274 0.516203 0.976159 0.263875
H32   H     H_    0.663620 0.531402 0.051311 0.299524
N6    N     N_R   0.841931 0.413396 0.706770 0.211953
O38   O     O_R   0.844902 0.355516 0.728325 -0.409026
O39   O     O_R   0.873124 0.425434 0.656483 -0.331702
N7    N     N_R   0.383611 0.257865 0.104074 0.217130
O40   O     O_R   0.459185 0.326190 0.137500 -0.322511
O41   O     O_R   0.362595 0.184486 0.040988 -0.331675
O42   O     O_3   0.704732 0.402226 0.576575 -0.587521
C70   C     C_3   0.650238 0.312864 0.545154 0.144151
H33   H     H_    0.581110 0.297577 0.522097 0.206090
H34   H     H_    0.668967 0.293946 0.595820 0.150867
C71   C     C_3   0.655789 0.257652 0.468119 -0.288412
H35   H     H_    0.628021 0.268093 0.412805 0.219803
H36   H     H_    0.725725 0.277933 0.488089 0.273422
C72   C     C_3   0.605557 0.161087 0.437909 -0.970174
H37   H     H_    0.635065 0.148854 0.491187 0.282505
H38   H     H_    0.608788 0.122370 0.380579 0.280923
H39   H     H_    0.535680 0.139537 0.418849 0.270006
O43   O     O_3   0.294908 0.142125 0.556246 -0.571553
C73   C     C_3   0.327626 0.176927 0.647708 0.129017
H40   H     H_    0.302553 0.120960 0.657861 0.193587
H41   H     H_    0.303802 0.220296 0.675436 0.153853
C74   C     C_3   0.428227 0.225529 0.698876 -0.372772
H42   H     H_    0.452625 0.187288 0.665053 0.268843
H43   H     H_    0.454241 0.289595 0.702745 0.253229
C75   C     C_3   0.462974 0.241473 0.792101 -0.908741
H44   H     H_    0.440154 0.280499 0.827643 0.282049
H45   H     H_    0.535922 0.277789 0.827518 0.265822
H46   H     H_    0.440127 0.178607 0.791170 0.281140
N8    N     N_R   0.418327 0.261308 0.542091 0.195062
O44   O     O_R   0.491998 0.334195 0.598959 -0.506103
O45   O     O_R   0.419789 0.190543 0.504100 -0.421134
N9    N     N_R   0.094366 0.925548 0.291908 0.227124
O46   O     O_R   0.102245 0.941109 0.231476 -0.381952
O47   O     O_R   0.140961 0.989327 0.372569 -0.350481
O48   O     O_3   0.902343 0.709043 0.332091 -0.627509
C76   C     C_3   0.947969 0.700398 0.402612 0.133530
H47   H     H_    0.999623 0.765836 0.460354 0.174679
H48   H     H_    0.979383 0.661397 0.386068 0.210235
C77   C     C_3   0.882891 0.654181 0.426311 -0.340585
H49   H     H_    0.845439 0.687637 0.436220 0.233004
H50   H     H_    0.835484 0.586079 0.371390 0.270940
C78   C     C_3   0.929475 0.653433 0.509695 -0.813666
H51   H     H_    0.966918 0.619420 0.501269 0.283061
H52   H     H_    0.880085 0.618784 0.524329 0.286811
H53   H     H_    0.975123 0.721092 0.565910 0.280784
N10   N     N_R   0.899277 0.575039 0.207264 0.224791
O49   O     O_R   0.815438 0.541844 0.179173 -0.372809
O50   O     O_R   0.937475 0.533241 0.228161 -0.330947
O51   O     O_3   0.377752 0.412453 0.171966 -0.557539
C79   C     C_3   0.335532 0.424523 0.102934 0.140338
H54   H     H_    0.312444 0.469830 0.126316 0.161045
H55   H     H_    0.278700 0.362572 0.042926 0.158379
C80   C     C_3   0.401714 0.466123 0.077859 -0.259005
H56   H     H_    0.465814 0.517905 0.137738 0.295076
H57   H     H_    0.412121 0.415771 0.038237 0.241751
C81   C     C_3   0.369691 0.506575 0.025655 -0.884354
H58   H     H_    0.302272 0.458556 0.969414 0.296749
H59   H     H_    0.414366 0.528347 0.000826 0.274704
H60   H     H_    0.369130 0.563826 0.068125 0.261906
N11   N     N_R   0.158810 0.291484 0.739681 0.210928
O52   O     O_R   0.235503 0.342470 0.810311 -0.411015
O53   O     O_R   0.154425 0.269051 0.663962 -0.445478
O54   O     O_3   0.847630 0.211797 0.758337 -0.602536
C82   C     C_3   0.818841 0.140378 0.771996 0.122254
H61   H     H_    0.818110 0.163991 0.834622 0.180773
H62   H     H_    0.862048 0.111236 0.778325 0.158189
C83   C     C_3   0.725344 0.070157 0.697578 -0.391757
H63   H     H_    0.681212 0.097518 0.697446 0.242307
H64   H     H_    0.723692 0.049658 0.633735 0.228680
C84   C     C_3   0.691774 0.990619 0.707804 -0.860472
H65   H     H_    0.733747 0.960833 0.705871 0.288871
H66   H     H_    0.623531 0.941536 0.653280 0.266768
H67   H     H_    0.691795 0.009334 0.770805 0.271286
N12   N     N_R   0.123612 0.347361 0.082043 0.203097
O55   O     O_R   0.067353 0.277861 0.074361 -0.357153
O56   O     O_R   0.120679 0.348276 0.012029 -0.468668
O57   O     O_3   0.334147 0.834213 0.235797 -0.642029
C85   C     C_3   0.263709 0.819600 0.162489 0.137525
H68   H     H_    0.280326 0.882600 0.164697 0.175223
H69   H     H_    0.199920 0.796379 0.161766 0.146857
C86   C     C_3   0.252435 0.755231 0.077883 -0.409921
H70   H     H_    0.315459 0.779973 0.077658 0.236263
H71   H     H_    0.234718 0.691447 0.074491 0.236080
C87   C     C_3   0.180763 0.742383 0.997443 -0.829183
H72   H     H_    0.117174 0.718151 0.996548 0.280727
H73   H     H_    0.172738 0.693882 0.937175 0.264676
H74   H     H_    0.198847 0.804805 0.997654 0.257078

loop_
_geom_bond_atom_site_label_1
_geom_bond_atom_site_label_2
_geom_bond_distance
_ccdc_geom_bond_type
C68   C69   1.526337 S    
Zn4   O14   2.020864 S    
C49   H9    1.081164 S    
C70   H33   1.110333 S    
C68   H29   1.110728 S    
C32   N6    1.436878 S    
C7    C16   1.483007 S    
C11   N12   1.438454 S    
C33   O42   1.386095 S    
C21   C22   1.414455 A    
O19   Zn5   2.012259 S    
Zn6   O24   2.012434 S    
C53   N10   1.435847 S    
C86   H71   1.110371 S    
N2    O30   1.300046 A    
N8    O44   1.300104 A    
C51   C52   1.399512 A    
C5    C10   1.413227 A    
Zn4   O16   2.016578 S    
C82   H61   1.111266 S    
C38   C39   1.391338 A    
Zn1   O7    2.018522 S    
C74   H43   1.108484 S    
C1    C28   1.428780 S    
C14   H3    1.085417 S    
C80   H57   1.111640 S    
C77   C78   1.525452 S    
C11   C16   1.394245 A    
C77   H50   1.111685 S    
O42   C70   1.417563 S    
C72   H38   1.110054 S    
O24   C48   1.288878 A    
C20   C21   1.417944 A    
C83   H64   1.111076 S    
C65   H22   1.110643 S    
Zn3   O15   2.024944 S    
O4    C2    1.287980 A    
O7    C4    1.277331 A    
C41   C54   1.445922 S    
C76   H48   1.113511 S    
C62   H14   1.110843 S    
C5    C6    1.413029 A    
C58   H11   1.084123 S    
N9    O46   1.301619 A    
C23   N3    1.437328 S    
C86   C87   1.525943 S    
C27   N5    1.434723 S    
C8    H1    1.083312 S    
C24   N4    1.436720 S    
O5    C3    1.276423 A    
C75   H44   1.111062 S    
C53   C54   1.416886 A    
O11   C42   1.277512 A    
C45   C51   1.417616 S    
O26   C64   1.417475 S    
C73   C74   1.531879 S    
C2    C15   1.441019 S    
C76   H47   1.111057 S    
C72   H37   1.110861 S    
C55   C60   1.400079 A    
C29   C30   1.382719 A    
C6    C7    1.417014 A    
Zn3   O13   2.014889 S    
C80   C81   1.526270 S    
C7    C8    1.399363 A    
C79   C80   1.529519 S    
C11   C12   1.404174 A    
C67   C68   1.531466 S    
O51   C79   1.413170 S    
C81   H58   1.108484 S    
C74   H42   1.110272 S    
N7    O41   1.301258 A    
C87   H72   1.110537 S    
C8    C9    1.392464 A    
C66   H25   1.109704 S    
O21   C47   1.278230 A    
C55   C56   1.387669 A    
C73   H41   1.117614 S    
C43   C60   1.441805 S    
O12   Zn4   2.025031 S    
O10   Zn4   2.014801 S    
C79   H54   1.109200 S    
C70   H34   1.116688 S    
O18   Zn6   2.020342 S    
C52   O48   1.386677 S    
N4    O34   1.301206 A    
O17   C45   1.275096 A    
C55   H10   1.083853 S    
O3    Zn1   2.023222 S    
C66   H24   1.110226 S    
C57   C58   1.390566 A    
C69   H31   1.110538 S    
C36   C37   1.397830 A    
C24   C25   1.408944 A    
C74   C75   1.525819 S    
O9    C41   1.275257 A    
C5    N7    1.440861 S    
C80   H56   1.110419 S    
C25   C26   1.395634 A    
O19   C46   1.281130 A    
C25   C46   1.437869 S    
C72   H39   1.109795 S    
C67   H26   1.111252 S    
N12   O55   1.300516 A    
Zn6   O22   2.015593 S    
C71   C72   1.526303 S    
O18   C45   1.276016 A    
C65   C66   1.526050 S    
O43   C73   1.420891 S    
Zn5   O21   2.020387 S    
C76   C77   1.528176 S    
C3    C40   1.421912 S    
C13   C14   1.380569 A    
O20   C46   1.281656 A    
C59   O54   1.387509 S    
C86   H70   1.111534 S    
C39   N8    1.434896 S    
C78   H51   1.110825 S    
C77   H49   1.107846 S    
C35   C36   1.376938 A    
C50   N9    1.440287 S    
C23   C28   1.407866 A    
O15   C44   1.274264 A    
N3    O32   1.300847 A    
N10   O50   1.301073 A    
C78   H52   1.110628 S    
C23   C24   1.394336 A    
C84   H66   1.110535 S    
C69   H32   1.110744 S    
C66   H23   1.110689 S    
C64   H20   1.114934 S    
C85   H68   1.107088 S    
C17   H4    1.083850 S    
Zn2   O8    2.023222 S    
C83   H63   1.110538 S    
C56   C57   1.404893 A    
O23   C48   1.275967 A    
C37   C38   1.416642 A    
N11   O52   1.300262 A    
O17   Zn5   2.015717 S    
C61   H13   1.116638 S    
C35   C40   1.391675 A    
C12   C13   1.406702 A    
C21   N2    1.436817 S    
C87   H73   1.110286 S    
C75   H46   1.110795 S    
O3    C2    1.273680 A    
C26   H5    1.084340 S    
C85   H69   1.114814 S    
C18   O57   1.381421 S    
C33   C34   1.414825 A    
C70   C71   1.527394 S    
C58   C59   1.387201 A    
C49   C50   1.380119 A    
N4    O33   1.301440 A    
N6    O39   1.301062 A    
C63   H18   1.110658 S    
C27   C28   1.404573 A    
C9    C10   1.399696 A    
C36   H8    1.083644 S    
N2    O29   1.300288 A    
C15   C16   1.414368 A    
C52   C53   1.390525 A    
C6    O51   1.385924 S    
C29   H6    1.083146 S    
N5    O36   1.301106 A    
N1    O28   1.301327 A    
C69   H30   1.110023 S    
O20   Zn6   2.020489 S    
C29   C34   1.400050 A    
C84   H65   1.111244 S    
C82   C83   1.528934 S    
C30   C31   1.399593 A    
C73   H40   1.111367 S    
C20   N1    1.441251 S    
C56   N11   1.437894 S    
O11   Zn3   2.016752 S    
O1    Zn1   2.019231 S    
C19   O26   1.385817 S    
C71   H36   1.111478 S    
O2    Zn2   2.013331 S    
C67   H27   1.117673 S    
N5    O35   1.300315 A    
C31   C32   1.399223 A    
O6    C3    1.275616 A    
O4    Zn2   2.018522 S    
N8    O45   1.300005 A    
O37   C67   1.416444 S    
N12   O56   1.300451 A    
C64   H19   1.109495 S    
N10   O49   1.300951 A    
O22   C47   1.277140 A    
C14   C15   1.392833 A    
C10   O25   1.380297 S    
C17   C22   1.397996 A    
C83   C84   1.525903 S    
C18   C19   1.409248 A    
C37   C48   1.441093 S    
C63   H17   1.110369 S    
N3    O31   1.301178 A    
O8    C4    1.288665 A    
C82   H62   1.117791 S    
C35   H7    1.084226 S    
C65   H21   1.111063 S    
C71   H35   1.111706 S    
C84   H67   1.110857 S    
C17   C18   1.392790 A    
C39   C40   1.402061 A    
C4    C34   1.447762 S    
C62   H15   1.111694 S    
O14   C43   1.283825 A    
C32   C33   1.391669 A    
C49   C54   1.397971 A    
C38   O43   1.387379 S    
C26   C27   1.379664 A    
C59   C60   1.408080 A    
N11   O53   1.300141 A    
C19   C20   1.414045 A    
O2    C1    1.278275 A    
C61   C62   1.526742 S    
O13   C43   1.277439 A    
O25   C61   1.411598 S    
C87   H74   1.110833 S    
C75   H45   1.110460 S    
C31   C44   1.420743 S    
C78   H53   1.111110 S    
C64   C65   1.532108 S    
C47   C57   1.423951 S    
C13   C22   1.481886 S    
C12   C42   1.428713 S    
O12   C42   1.276177 A    
Zn5   O23   2.020615 S    
Zn1   O5    2.013330 S    
N9    O47   1.299621 A    
C85   C86   1.529210 S    
O16   C44   1.274999 A    
C9    H2    1.082746 S    
Zn2   O6    2.019231 S    
O57   C85   1.415352 S    
C61   H12   1.114367 S    
C79   H55   1.117103 S    
N6    O38   1.299630 A    
O10   C41   1.288283 A    
O48   C76   1.413600 S    
C81   H60   1.111132 S    
O1    C1    1.275723 A    
C50   C51   1.404252 A    
C63   H16   1.110454 S    
C81   H59   1.110401 S    
N1    O27   1.300076 A    
O9    Zn3   2.020947 S    
C68   H28   1.111595 S    
O54   C82   1.418363 S    
C30   O37   1.384355 S    
N7    O40   1.301250 A    
C62   C63   1.525001 S    
