data_mof_unit_pretest_1306.cif
_audit_creation_date              2012-12-10T17:11:01-0500
_audit_creation_method            fapswitch 2.2
_symmetry_space_group_name_H-M    P1
_symmetry_Int_Tables_number       1
_space_group_crystal_system       triclinic
_cell_length_a                    11.704691
_cell_length_b                    13.020506
_cell_length_c                    13.460055
_cell_angle_alpha                 93.046271
_cell_angle_beta                  76.147121
_cell_angle_gamma                 100.556062
_cell_volume                      1957.86125454

loop_
_atom_site_label
_atom_site_type_symbol
_atom_type_description
_atom_site_fract_x
_atom_site_fract_y
_atom_site_fract_z
_atom_type_partial_charge
C1    C     C_R   0.522174 0.701570 0.502308 0.803665
C2    C     C_R   0.444545 0.483900 0.975897 0.080555
C3    C     C_R   0.471597 0.460796 0.869428 0.083887
C4    C     C_R   0.531018 0.477234 0.032928 0.076170
C5    C     C_R   0.638301 0.440996 0.984544 0.162610
C6    C     C_R   0.655827 0.406577 0.883288 -0.244990
C7    C     C_R   0.572529 0.413916 0.827325 -0.202715
C8    C     C_R   0.514776 0.506083 0.136581 -0.248921
C9    C     C_R   0.706442 0.464613 0.142069 -0.173149
C10   C     C_R   0.396200 0.484424 0.808319 -0.104641
C11   C     C_R   0.465788 0.185654 0.496994 -0.047506
C12   C     C_R   0.435612 0.490564 0.695848 0.783907
C13   C     C_R   0.538091 0.816793 0.504397 -0.105707
C14   C     C_R   0.651056 0.991597 0.517270 -0.201289
C15   C     C_R   0.646019 0.883202 0.517372 0.083296
C16   C     C_R   0.441125 0.861166 0.493082 -0.286372
C17   C     C_R   0.448179 0.968790 0.494196 0.170989
C18   C     C_R   0.553971 0.033832 0.506301 0.132986
C19   C     C_R   0.562117 0.141435 0.507714 -0.235677
C20   C     C_R   0.359845 0.121040 0.484876 -0.192074
C21   C     C_R   0.351106 0.012764 0.483428 -0.201581
C22   C     C_R   0.942637 0.587253 0.602000 -0.329793
C23   C     C_R   0.478445 0.299141 0.498335 0.814492
C24   C     C_R   0.825140 0.581058 0.592022 0.070847
C25   C     C_R   0.857767 0.460324 0.453680 0.097341
C26   C     C_R   0.979987 0.466201 0.458459 -0.026012
C27   C     C_R   0.020776 0.530404 0.535532 0.053641
C28   C     C_R   0.139543 0.536464 0.545096 0.019115
C29   C     C_R   0.179814 0.419563 0.405923 0.038443
C30   C     C_R   0.063854 0.411212 0.391378 -0.144553
C31   C     C_R   0.563765 0.503739 0.304010 0.816029
C32   C     C_R   0.726012 0.437244 0.038756 -0.189594
C33   C     C_R   0.598580 0.495162 0.192198 -0.058293
C34   C     C_R   0.286189 0.513341 0.855783 -0.189516
C35   C     C_R   0.253504 0.524644 0.961268 -0.137712
C36   C     C_R   0.332052 0.512395 0.020807 -0.171054
Cu1   Cu    Cu3+1 0.386470 0.492430 0.492410 0.938099
Cu2   Cu    Cu3+1 0.613530 0.507570 0.507590 0.934882
H1    H     H_    0.773576 0.458148 0.183190 0.170234
H2    H     H_    0.284253 0.153979 0.476333 0.158029
H3    H     H_    0.730280 0.045166 0.526071 0.129889
H4    H     H_    0.268979 0.963673 0.473895 0.135245
H5    H     H_    0.359101 0.811889 0.483365 0.163426
H6    H     H_    0.171407 0.585728 0.603723 0.117699
H7    H     H_    0.243061 0.377551 0.355682 0.138235
H8    H     H_    0.972350 0.636430 0.661672 0.136867
H9    H     H_    0.765939 0.624951 0.644099 0.129671
H10   H     H_    0.734346 0.373537 0.847052 0.147574
H11   H     H_    0.808608 0.410766 0.001750 0.139494
H12   H     H_    0.436515 0.536104 0.176887 0.148766
H13   H     H_    0.226275 0.530042 0.811048 0.149473
H14   H     H_    0.300691 0.524177 0.101826 0.128975
H15   H     H_    0.168068 0.546556 0.997010 0.141676
H16   H     H_    0.587751 0.380172 0.751291 0.174990
H17   H     H_    0.644131 0.190743 0.517480 0.155247
N1    N     N_R   0.215880 0.481050 0.481000 -0.187877
N2    N     N_R   0.784100 0.518950 0.519000 -0.203487
O1    O     O_R   0.419710 0.645650 0.494620 -0.579592
O2    O     O_R   0.611450 0.658430 0.507430 -0.601350
O3    O     O_R   0.357340 0.490460 0.641450 -0.581134
O4    O     O_R   0.549080 0.503250 0.654260 -0.593349
O5    O     O_R   0.388550 0.341570 0.492570 -0.589005
O6    O     O_R   0.580290 0.354350 0.505380 -0.589479
O7    O     O_R   0.450920 0.496750 0.345740 -0.591078
O8    O     O_R   0.642660 0.509540 0.358550 -0.581023
C37   C     C_3   0.753597 0.839513 0.532361 -0.359927
C38   C     C_3   0.862625 0.919374 0.547916 -0.390961
C39   C     C_3   0.961401 0.864945 0.564585 -0.848827
H18   H     H_    0.929427 0.817946 0.635491 0.249366
H19   H     H_    0.989914 0.813216 0.498426 0.259671
H20   H     H_    0.039781 0.924389 0.572871 0.241686
H21   H     H_    0.899283 0.969407 0.479170 0.227236
H22   H     H_    0.835994 0.969141 0.616239 0.224235
H23   H     H_    0.723014 0.789353 0.601218 0.205578
H24   H     H_    0.785385 0.791817 0.463778 0.222579
C40   C     C_1   0.039852 0.348871 0.304219 0.191411
N3    N     N_1   0.022306 0.298886 0.233902 -0.267515
C41   C     C_1   0.806908 0.387651 0.384692 0.301631
N4    N     N_1   0.766199 0.328250 0.329907 -0.294085

loop_
_geom_bond_atom_site_label_1
_geom_bond_atom_site_label_2
_ccdc_geom_bond_type
C35   H15   S    
C14   C18   A    
C35   C36   A    
C4    C8    A    
Cu1   O5    S    
C28   N1    A    
C11   C19   A    
C34   H13   S    
C29   C30   A    
C6    H10   S    
C34   C35   A    
C3    C7    A    
C1    O2    A    
C5    C6    A    
C20   H2    S    
C19   H17   S    
C37   H23   S    
C9    H1    S    
C38   H21   S    
C9    C32   A    
C39   H18   S    
Cu1   N1    S    
C23   O5    A    
C24   N2    A    
C31   C33   S    
C38   H22   S    
Cu1   O1    S    
C36   H14   S    
Cu2   O4    S    
C23   O6    A    
C37   C38   S    
C9    C33   A    
C25   N2    A    
C11   C20   A    
C38   C39   S    
C40   N3    T    
C41   N4    T    
C18   C19   A    
C25   C26   A    
C15   C37   S    
C25   C41   S    
C28   H6    S    
C17   C21   A    
Cu2   O2    S    
C29   H7    S    
C2    C4    A    
Cu1   Cu2   S    
Cu2   N2    S    
C30   C40   S    
Cu2   O8    S    
C17   C18   A    
C26   C27   A    
C10   C34   A    
C16   H5    S    
C10   C12   S    
C14   H3    S    
C22   H8    S    
C26   C30   A    
C22   C27   A    
C13   C15   A    
C22   C24   A    
C1    C13   S    
C8    H12   S    
Cu1   O7    S    
Cu2   O6    S    
C2    C36   A    
C31   O8    A    
C24   H9    S    
C31   O7    A    
C4    C5    A    
C6    C7    A    
C29   N1    A    
C5    C32   A    
C2    C3    A    
C3    C10   A    
C1    O1    A    
C12   O4    A    
C16   C17   A    
C39   H20   S    
C37   H24   S    
C11   C23   S    
C8    C33   A    
C32   H11   S    
Cu1   O3    S    
C21   H4    S    
C12   O3    A    
C20   C21   A    
C39   H19   S    
C13   C16   A    
C27   C28   A    
C14   C15   A    
C7    H16   S    
