data_mof_unit_pretest_576.cif
_audit_creation_date              2012-10-26T21:10:45-0400
_audit_creation_method            fapswitch 2.2
_symmetry_space_group_name_H-M    P1
_symmetry_Int_Tables_number       1
_space_group_crystal_system       triclinic
_cell_length_a                    10.794757
_cell_length_b                    14.708261
_cell_length_c                    14.689199
_cell_angle_alpha                 65.070952
_cell_angle_beta                  103.370335
_cell_angle_gamma                 103.455534
_cell_volume                      2033.30583924

loop_
_atom_site_label
_atom_site_type_symbol
_atom_type_description
_atom_site_fract_x
_atom_site_fract_y
_atom_site_fract_z
_atom_type_partial_charge
Br1   Br    Br    0.666540 0.613447 0.687961 -0.385364
Br2   Br    Br    0.244847 0.332557 0.407023 -0.412908
Br3   Br    Br    0.033080 0.743061 0.711756 -0.295679
Br4   Br    Br    0.909969 0.246068 0.270658 -0.326080
Br5   Br    Br    0.259457 0.157486 0.659551 -0.363624
Br6   Br    Br    0.784305 0.811938 0.377862 -0.399987
Br7   Br    Br    0.895002 0.963509 0.713742 -0.447000
Br8   Br    Br    0.105270 0.041704 0.288160 -0.459242
C1    C     C_R   0.478130 0.119775 0.312116 0.541851
C2    C     C_R   0.611779 0.775533 0.970680 -0.139724
C3    C     C_R   0.374021 0.148311 0.134694 -0.130363
C4    C     C_R   0.602760 0.842516 0.869634 -0.130537
C5    C     C_R   0.495674 0.292595 0.173076 0.268538
C6    C     C_R   0.451748 0.712683 0.822282 0.320015
C7    C     C_R   0.439412 0.359367 0.078879 0.063436
C8    C     C_R   0.483664 0.638663 0.919909 0.100462
C9    C     C_R   0.372918 0.318570 0.006470 -0.025933
C10   C     C_R   0.552671 0.674236 0.996351 -0.067473
C11   C     C_R   0.459071 0.466211 0.051250 -0.005697
C12   C     C_R   0.517870 0.880276 0.687551 0.541008
C13   C     C_R   0.444139 0.531658 0.946252 0.067388
C14   C     C_R   0.398527 0.486540 0.872899 0.319008
C15   C     C_R   0.494932 0.510117 0.125372 0.298214
C16   C     C_R   0.263153 0.997485 0.504300 0.573192
C17   C     C_R   0.737252 0.000859 0.498591 0.583135
C18   C     C_R   0.351225 0.382432 0.904779 -0.111346
C19   C     C_R   0.553448 0.610410 0.098100 -0.050866
C20   C     C_R   0.702177 0.277485 0.678074 -0.118613
C21   C     C_R   0.263001 0.701321 0.354289 -0.124647
C22   C     C_R   0.670884 0.197870 0.645621 0.088729
C23   C     C_R   0.871348 0.000486 0.499711 0.024950
C24   C     C_R   0.304250 0.787673 0.375845 0.075765
C25   C     C_R   0.526096 0.288745 0.505883 0.133815
C26   C     C_R   0.490027 0.720183 0.481920 0.133826
C27   C     C_R   0.542037 0.367437 0.541571 0.032874
C28   C     C_R   0.447377 0.625380 0.471978 0.023800
C29   C     C_R   0.638518 0.362382 0.626120 0.003258
C30   C     C_R   0.333605 0.620136 0.402280 0.002666
C31   C     C_R   0.469363 0.450912 0.496294 0.019069
C32   C     C_R   0.512265 0.537295 0.525804 0.001920
C33   C     C_R   0.611882 0.527388 0.611970 0.157836
C34   C     C_R   0.129263 0.997799 0.504188 0.028864
C35   C     C_R   0.350774 0.449352 0.428269 0.171327
C36   C     C_R   0.670859 0.440947 0.659852 -0.065161
C37   C     C_R   0.287609 0.533365 0.382175 -0.062622
C38   C     C_R   0.220034 0.805383 0.857379 0.250685
C39   C     C_R   0.722964 0.147336 0.153127 0.232556
C40   C     C_R   0.151785 0.840130 0.758491 0.203654
C41   C     C_R   0.808854 0.130967 0.244232 0.202141
C42   C     C_R   0.167991 0.944517 0.695543 -0.059141
C43   C     C_R   0.823603 0.031374 0.313770 -0.032891
C44   C     C_R   0.250963 0.013893 0.734073 0.242407
C45   C     C_R   0.914004 0.014305 0.410423 0.012284
C46   C     C_R   0.755037 0.948139 0.289973 0.238959
C47   C     C_R   0.322984 0.979099 0.831481 0.242655
C48   C     C_R   0.667088 0.963930 0.199973 0.251155
C49   C     C_R   0.306899 0.874927 0.892830 -0.178530
C50   C     C_R   0.651005 0.063604 0.132134 -0.170438
C51   C     C_R   0.956533 0.985054 0.591115 0.186329
C52   C     C_R   0.044131 0.015033 0.412373 0.188674
C53   C     C_R   0.085590 0.980408 0.594639 0.014413
C54   C     C_R   0.452472 0.187089 0.204602 0.006458
C55   C     C_R   0.523160 0.811792 0.794738 -0.009084
C56   C     C_R   0.339093 0.213385 0.035068 -0.119431
Cu1   Cu    Cu3+1 0.466270 0.918260 0.475690 1.033418
Cu2   Cu    Cu3+1 0.533730 0.081740 0.524310 1.046066
H1    H     H_    0.360952 0.848077 0.968669 0.097087
H2    H     H_    0.716410 0.130742 0.687718 0.162745
H3    H     H_    0.774151 0.271920 0.744549 0.124218
H4    H     H_    0.174685 0.697074 0.302095 0.129036
H5    H     H_    0.309158 0.349620 0.848745 0.131273
H6    H     H_    0.591619 0.640334 0.156746 0.178623
H7    H     H_    0.655086 0.918956 0.850369 0.170145
H8    H     H_    0.341327 0.067595 0.156542 0.162729
H9    H     H_    0.375722 0.498353 0.732323 0.333220
H10   H     H_    0.394614 0.404930 0.224582 0.354937
H11   H     H_    0.256178 0.691011 0.984354 0.321515
H12   H     H_    0.583618 0.076156 0.062390 0.100213
H13   H     H_    0.646554 0.244187 0.026167 0.329318
H14   H     H_    0.450393 0.012025 0.934840 0.302120
H15   H     H_    0.541374 0.904728 0.113912 0.301591
H16   H     H_    0.310644 0.754455 0.710047 0.334572
H17   H     H_    0.656081 0.278828 0.267546 0.365551
H18   H     H_    0.285400 0.181529 0.980438 0.162338
H19   H     H_    0.666801 0.802370 0.028687 0.165647
H20   H     H_    0.743777 0.434474 0.726091 0.174315
H21   H     H_    0.197571 0.529625 0.331445 0.170755
H22   H     H_    0.583851 0.738474 0.518783 0.207636
H23   H     H_    0.471409 0.294321 0.433417 0.196596
H24   H     H_    0.247830 0.849004 0.341571 0.169776
N1    N     N_R   0.584450 0.204570 0.560790 -0.239822
N2    N     N_R   0.415550 0.795430 0.439210 -0.246243
O1    O     O_R   0.455540 0.022090 0.338120 -0.510122
O2    O     O_3   0.468861 0.459412 0.223700 -0.647027
O3    O     O_3   0.200339 0.703151 0.917694 -0.603159
O4    O     O_3   0.711390 0.245658 0.085834 -0.626264
O5    O     O_3   0.406190 0.048669 0.865790 -0.665054
O6    O     O_3   0.599121 0.880911 0.179706 -0.666119
O7    O     O_3   0.339677 0.691016 0.761940 -0.581407
O8    O     O_3   0.600160 0.331430 0.227770 -0.612409
O9    O     O_R   0.544460 0.977910 0.661880 -0.512052
O10   O     O_R   0.512510 0.160150 0.379180 -0.493506
O11   O     O_R   0.487490 0.839850 0.620820 -0.466109
O12   O     O_R   0.291160 0.930970 0.479480 -0.491120
O13   O     O_R   0.708840 0.069030 0.520520 -0.472968
O14   O     O_R   0.348130 0.069020 0.520540 -0.459666
O15   O     O_R   0.651870 0.930980 0.479460 -0.494419
O16   O     O_3   0.410589 0.541721 0.771818 -0.592908

loop_
_geom_bond_atom_site_label_1
_geom_bond_atom_site_label_2
_ccdc_geom_bond_type
C17   C23   S    
Cu1   N2    S    
C2    H19   S    
C8    C13   A    
H14   O5    S    
C16   C34   S    
H16   O7    S    
Cu2   O10   S    
C11   C15   A    
C20   H3    S    
C48   O6    S    
C3    C54   A    
C17   O13   A    
C6    O7    S    
C39   C41   A    
C12   O11   A    
C7    C11   A    
C9    C18   A    
C11   C13   A    
Cu2   O14   S    
C21   C24   A    
C25   N1    A    
C9    C56   A    
H15   O6    S    
Br3   C40   S    
C23   C51   A    
C56   H18   S    
C30   C37   A    
H10   O2    S    
C24   H24   S    
C38   O3    S    
C1    O10   A    
C41   C43   A    
C21   C30   A    
C42   C44   A    
C39   O4    S    
Br5   C44   S    
C15   C19   A    
C44   C47   A    
C40   C42   A    
H9    O16   S    
C4    H7    S    
C18   H5    S    
C37   H21   S    
Cu2   O9    S    
C49   H1    S    
C36   H20   S    
Br7   C51   S    
C45   C52   A    
C46   C48   A    
C2    C10   A    
C38   C40   A    
C51   C53   A    
C5    C54   A    
C1    C54   S    
C28   C32   A    
C3    C56   A    
C34   C52   A    
C31   C32   A    
C4    C55   A    
C31   C35   A    
C12   O9    A    
H11   O3    S    
C16   O12   A    
C27   C31   A    
C25   H23   S    
Br2   C35   S    
C47   O5    S    
C47   C49   A    
C26   H22   S    
C23   C45   A    
C35   C37   A    
C34   C53   A    
C2    C4    A    
Br1   C33   S    
C32   C33   A    
Br6   C46   S    
H17   O8    S    
C5    C7    A    
C38   C49   A    
C33   C36   A    
C6    C8    A    
C16   O14   A    
Cu1   O11   S    
Cu2   O13   S    
C1    O1    A    
C17   O15   A    
C21   H4    S    
C7    C9    A    
C27   C29   A    
C10   C19   A    
C22   N1    A    
C3    H8    S    
C20   C22   A    
Cu2   N1    S    
C15   O2    S    
Br4   C41   S    
C43   C46   A    
C12   C55   S    
C28   C30   A    
H13   O4    S    
Br8   C52   S    
C39   C50   A    
C24   N2    A    
C20   C29   A    
C5    O8    S    
C14   O16   S    
C6    C55   A    
Cu1   O1    S    
C25   C27   A    
C48   C50   A    
C26   C28   A    
C26   N2    A    
C50   H12   S    
C29   C36   A    
C8    C10   A    
Cu1   Cu2   S    
C14   C18   A    
C42   C53   S    
Cu1   O12   S    
C43   C45   S    
C13   C14   A    
Cu1   O15   S    
C22   H2    S    
C19   H6    S    
