data_mof_unit_pretest_1344.cif
_audit_creation_date              2012-12-11T17:08:27-0500
_audit_creation_method            fapswitch 2.2
_symmetry_space_group_name_H-M    P1
_symmetry_Int_Tables_number       1
_space_group_crystal_system       triclinic
_cell_length_a                    6.960783
_cell_length_b                    14.525859
_cell_length_c                    16.072495
_cell_angle_alpha                 90.047185
_cell_angle_beta                  90.020001
_cell_angle_gamma                 90.002543
_cell_volume                      1625.11105397

loop_
_atom_site_label
_atom_site_type_symbol
_atom_type_description
_atom_site_fract_x
_atom_site_fract_y
_atom_site_fract_z
_atom_type_partial_charge
O1    O     O_R   0.505700 0.583890 0.413310 -0.539754
O2    O     O_R   0.175960 0.594920 0.586080 -0.544192
O3    O     O_R   0.005660 0.416110 0.586690 -0.541223
C1    C     C_R   0.344689 0.616830 0.614877 0.688489
O4    O     O_R   0.175980 0.594920 0.413930 -0.535280
O5    O     O_R   0.005680 0.416110 0.413310 -0.515988
C2    C     C_R   0.344772 0.617047 0.385277 0.744387
O6    O     O_R   0.505680 0.583890 0.586690 -0.539548
O7    O     O_3   0.339200 0.441330 0.500000 -0.369389
V1    V     V_3+5 0.064350 0.510880 0.500000 1.434264
O8    O     O_R   0.675960 0.405080 0.413920 -0.548451
C3    C     C_R   0.844991 0.383227 0.385082 0.718179
O9    O     O_R   0.675940 0.405080 0.586070 -0.545886
C4    C     C_R   0.844741 0.383162 0.614908 0.687091
V2    V     V_3+5 0.564340 0.489120 0.500000 1.412757
O10   O     O_3   0.839360 0.558670 0.500000 -0.375021
C5    C     C_R   0.008029 0.317096 0.741289 0.107728
C6    C     C_R   0.852683 0.317958 0.685801 -0.115129
C7    C     C_R   0.699952 0.257071 0.702221 -0.181823
H1    H     H_    0.576824 0.255259 0.661370 0.136858
C8    C     C_R   0.710662 0.193279 0.768036 -0.118837
H2    H     H_    0.594429 0.144824 0.776259 0.158593
C9    C     C_R   0.875349 0.187670 0.818873 -0.111875
C10   C     C_R   0.019428 0.253355 0.805948 0.128797
C11   C     C_3   0.229381 0.239757 0.793288 -0.403494
C12   C     C_3   0.217199 0.309586 0.723174 -0.413086
H3    H     H_    0.262971 0.168958 0.771417 0.166112
H4    H     H_    0.315214 0.264229 0.847290 0.209892
H5    H     H_    0.244705 0.279543 0.660667 0.171414
H6    H     H_    0.295311 0.374649 0.736747 0.176428
C13   C     C_R   0.735077 0.253124 0.185380 0.125904
C14   C     C_R   0.882623 0.187711 0.181101 -0.124620
C15   C     C_R   0.030577 0.194546 0.240774 -0.160509
H7    H     H_    0.150400 0.147176 0.239065 0.114679
C16   C     C_R   0.018384 0.258293 0.306884 -0.122577
H8    H     H_    0.129785 0.258446 0.353864 0.118856
C17   C     C_R   0.858443 0.317339 0.314938 -0.102672
C18   C     C_R   0.724136 0.316552 0.250079 0.030720
C19   C     C_3   0.509816 0.314883 0.250779 -0.265988
C20   C     C_3   0.521925 0.243666 0.180048 0.065787
H9    H     H_    0.452051 0.285458 0.309490 0.091625
H10   H     H_    0.474245 0.173848 0.199234 0.083872
C21   C     C_R   0.498801 0.752712 0.685922 0.070408
C22   C     C_R   0.352215 0.686831 0.681821 -0.094554
C23   C     C_R   0.205396 0.692735 0.742100 -0.144353
H11   H     H_    0.086133 0.645003 0.740543 0.113028
C24   C     C_R   0.217795 0.756341 0.808380 -0.115289
H12   H     H_    0.107023 0.756163 0.855613 0.113162
C25   C     C_R   0.376600 0.816215 0.815837 -0.109167
C26   C     C_R   0.509915 0.815924 0.750650 0.107909
C27   C     C_3   0.724713 0.814065 0.750790 -0.180535
C28   C     C_3   0.711953 0.744271 0.679652 -0.442124
H13   H     H_    0.784852 0.785023 0.809157 0.102358
H14   H     H_    0.762648 0.674438 0.697286 0.167139
H15   H     H_    0.766571 0.769599 0.618796 0.177730
C29   C     C_R   0.506748 0.682670 0.258563 0.108476
C30   C     C_R   0.352689 0.682506 0.314627 -0.109807
C31   C     C_R   0.201202 0.744409 0.298985 -0.173424
H16   H     H_    0.078779 0.746707 0.340218 0.130950
C32   C     C_R   0.212523 0.808604 0.233452 -0.176898
H17   H     H_    0.097890 0.858157 0.226052 0.123195
C33   C     C_R   0.375892 0.812989 0.181705 -0.108410
C34   C     C_R   0.518274 0.746240 0.193867 0.105563
C35   C     C_3   0.729370 0.757710 0.205209 -0.409264
C36   C     C_3   0.716793 0.687866 0.275354 -0.390484
H18   H     H_    0.766946 0.828101 0.226898 0.161681
H19   H     H_    0.812254 0.732453 0.150676 0.184817
H20   H     H_    0.747971 0.717456 0.337708 0.164158
H21   H     H_    0.791231 0.621987 0.261141 0.194609
O11   O     O_R   0.229000 0.916070 0.913330 -0.538553
O12   O     O_R   0.558770 0.905070 0.086080 -0.545668
O13   O     O_R   0.729000 0.083900 0.086690 -0.536102
C37   C     C_R   0.389753 0.883162 0.114967 0.675837
O14   O     O_R   0.558720 0.905070 0.913930 -0.544975
O15   O     O_R   0.728960 0.083900 0.913310 -0.529313
C38   C     C_R   0.389655 0.882779 0.885446 0.703458
O16   O     O_R   0.229050 0.916070 0.086710 -0.546915
O17   O     O_3   0.395460 0.058650 0.000020 -0.344211
V3    V     V_3+5 0.670340 0.989120 0.000000 1.450022
O18   O     O_R   0.058670 0.094960 0.913900 -0.536851
C39   C     C_R   0.889515 0.117069 0.885228 0.747184
O19   O     O_R   0.058720 0.094960 0.086050 -0.527507
C40   C     C_R   0.889999 0.117175 0.114607 0.720952
V4    V     V_3+5 0.170330 0.010930 0.999970 1.470755
O20   O     O_3   0.895340 0.941350 0.999980 -0.383723
Br1   Br    Br    0.425304 0.279915 0.070990 -0.494372
C41   C     C_2   0.815097 0.904182 0.725431 0.780743
O21   O     O_2   0.719297 0.974697 0.722598 -0.583245
O22   O     O_R   0.010483 0.906686 0.705817 -0.661141
H22   H     H_    0.056295 0.970839 0.690892 0.284344
C42   C     C_2   0.425387 0.407334 0.228622 0.884728
O23   O     O_2   0.279163 0.433446 0.263401 -0.567102
O24   O     O_R   0.514628 0.463429 0.169376 -0.638180
H23   H     H_    0.441262 0.522564 0.158940 0.291872

loop_
_geom_bond_atom_site_label_1
_geom_bond_atom_site_label_2
_ccdc_geom_bond_type
C41   O21   D    
O24   H23   S    
C4    C6    S    
C7    H1    S    
V3    O20   S    
C1    O6    A    
O12   V3    S    
C24   C25   A    
C23   H11   S    
C13   C20   S    
C11   H4    S    
C17   C18   A    
O14   C38   A    
C5    C12   S    
C7    C8    A    
O13   V3    S    
O5    C3    A    
C18   C19   S    
C21   C28   S    
C31   C32   A    
V2    O10   S    
C29   C30   A    
C32   C33   A    
C6    C7    A    
C20   Br1   S    
C3    C17   S    
O8    V2    S    
C16   H8    S    
C9    C10   A    
C33   C37   S    
O1    V2    S    
O11   V4    S    
O7    V1    S    
C28   H15   S    
O18   V4    S    
C20   H10   S    
O9    C4    A    
C19   C42   S    
C28   H14   S    
C15   H7    S    
C23   C24   A    
C25   C38   S    
C5    C10   A    
C27   C28   S    
C35   H19   S    
C10   C11   S    
C19   H9    S    
C27   C41   S    
C19   C20   S    
O4    C2    A    
O17   V3    S    
O15   C39   A    
C1    C22   S    
O16   V4    S    
C26   C27   S    
C31   H16   S    
O19   C40   A    
C32   H17   S    
C27   H13   S    
C35   H18   S    
O2    C1    A    
C21   C22   A    
C33   C34   A    
C42   O24   S    
C24   H12   S    
C36   H20   S    
C5    C6    A    
C29   C34   A    
V4    O20   S    
O3    C4    A    
C12   H6    S    
O6    V2    S    
O19   V4    S    
O14   V3    S    
O9    V2    S    
O11   C38   A    
O2    V1    S    
C42   O23   D    
C22   C23   A    
O12   C37   A    
C14   C40   S    
C9    C39   S    
C16   C17   A    
O1    C2    A    
C13   C14   A    
O18   C39   A    
O5    V1    S    
O8    C3    A    
C21   C26   A    
C11   H3    S    
C13   C18   A    
C14   C15   A    
C8    C9    A    
C11   C12   S    
O4    V1    S    
O3    V1    S    
V1    O10   S    
C35   C36   S    
C30   C31   A    
C36   H21   S    
C15   C16   A    
O7    V2    S    
O13   C40   A    
C34   C35   S    
O17   V4    S    
C12   H5    S    
C25   C26   A    
C41   O22   S    
C37   O16   A    
O22   H22   S    
C8    H2    S    
O15   V3    S    
C2    C30   S    
C29   C36   S    
