data_mof_unit_pretest_1202.cif
_audit_creation_date              2013-03-05T16:04:58-0500
_audit_creation_method            fapswitch 2.2
_symmetry_space_group_name_H-M    P1
_symmetry_Int_Tables_number       1
_space_group_crystal_system       triclinic
_cell_length_a                    23.049103
_cell_length_b                    21.058366
_cell_length_c                    14.989245
_cell_angle_alpha                 90.11786
_cell_angle_beta                  100.581855
_cell_angle_gamma                 90.030698
_cell_volume                      7151.67912384

loop_
_atom_site_label
_atom_site_type_symbol
_atom_site_description
_atom_site_fract_x
_atom_site_fract_y
_atom_site_fract_z
_atom_type_partial_charge
O1    O     O_R   0.541320 0.066090 0.608930 -0.555994
O2    O     O_R   0.458680 0.933910 0.391070 -0.582550
O3    O     O_R   0.458680 0.066090 0.391070 -0.552293
O4    O     O_R   0.541320 0.933910 0.608930 -0.571582
O5    O     O_R   0.041320 0.566090 0.608930 -0.543682
O6    O     O_R   0.958680 0.433910 0.391070 -0.579703
O7    O     O_R   0.958680 0.566090 0.391070 -0.553099
O8    O     O_R   0.041320 0.433910 0.608930 -0.583366
O9    O     O_R   0.572880 0.066110 0.470280 -0.606153
O10   O     O_R   0.427120 0.933890 0.529720 -0.569215
O11   O     O_R   0.427120 0.066110 0.529720 -0.606697
O12   O     O_R   0.572880 0.933890 0.470280 -0.569795
O13   O     O_R   0.072880 0.566110 0.470280 -0.605566
O14   O     O_R   0.927120 0.433890 0.529720 -0.560248
O15   O     O_R   0.927120 0.566110 0.529720 -0.628822
O16   O     O_R   0.072880 0.433890 0.470280 -0.572047
C1    C     C_R   0.572642 0.089729 0.551856 0.877173
C2    C     C_R   0.425971 0.911732 0.446954 0.934000
C3    C     C_R   0.427782 0.090065 0.448609 0.879642
C4    C     C_R   0.573592 0.911389 0.552450 0.929391
C5    C     C_R   0.072078 0.590214 0.551330 0.883922
C6    C     C_R   0.926249 0.411547 0.447068 0.929522
C7    C     C_R   0.926896 0.589539 0.447985 0.864887
C8    C     C_R   0.074024 0.411826 0.553035 0.933477
Zn1   Zn    Zn3+2 0.478910 0.000000 0.592580 1.035854
Zn2   Zn    Zn3+2 0.521090 0.000000 0.407420 1.030682
Zn3   Zn    Zn3+2 0.978910 0.500000 0.592580 1.025435
Zn4   Zn    Zn3+2 0.021090 0.500000 0.407420 1.030020
C9    C     C_R   0.608059 0.853766 0.576800 -0.207680
C10   C     C_R   0.394607 0.149241 0.425478 -0.222204
C11   C     C_R   0.385572 0.859329 0.416127 -0.194833
C12   C     C_R   0.607010 0.148045 0.576268 -0.221263
C13   C     C_R   0.114332 0.359585 0.583986 -0.197238
C14   C     C_R   0.889223 0.645326 0.420358 -0.219243
C15   C     C_R   0.887127 0.358093 0.416843 -0.197362
C16   C     C_R   0.104356 0.650143 0.573565 -0.220354
C17   C     C_R   0.617704 0.746038 0.636247 0.213333
C18   C     C_R   0.372282 0.248299 0.342450 0.197737
C19   C     C_R   0.357064 0.763035 0.328914 0.207487
C20   C     C_R   0.629346 0.247861 0.658034 0.198532
C21   C     C_R   0.143748 0.264788 0.673537 0.206194
C22   C     C_R   0.861907 0.740957 0.330462 0.207253
C23   C     C_R   0.861507 0.259863 0.332858 0.206628
C24   C     C_R   0.123651 0.751517 0.652318 0.197370
C25   C     C_R   0.589586 0.805683 0.630619 0.372493
C26   C     C_R   0.407852 0.193745 0.362071 0.352323
C27   C     C_R   0.397109 0.813598 0.352832 0.376142
C28   C     C_R   0.593560 0.193363 0.638665 0.352299
C29   C     C_R   0.103810 0.315308 0.649681 0.378588
C30   C     C_R   0.900668 0.689526 0.355113 0.354536
C31   C     C_R   0.900150 0.311814 0.355287 0.375978
C32   C     C_R   0.089361 0.695756 0.634399 0.348396
C33   C     C_R   0.654746 0.843083 0.531877 -0.311843
C34   C     C_R   0.353169 0.164556 0.478114 -0.337728
C35   C     C_R   0.336310 0.853544 0.456652 -0.315661
C36   C     C_R   0.650154 0.161536 0.525966 -0.334037
C37   C     C_R   0.162650 0.352640 0.541700 -0.319819
C38   C     C_R   0.842844 0.656452 0.465808 -0.351238
C39   C     C_R   0.837949 0.351487 0.457073 -0.319914
C40   C     C_R   0.146241 0.665147 0.521513 -0.334915
C41   C     C_R   0.679632 0.783020 0.529640 0.060171
C42   C     C_R   0.321813 0.221134 0.467747 0.047873
C43   C     C_R   0.299768 0.800413 0.441692 0.061722
C44   C     C_R   0.681333 0.218348 0.535215 0.048085
C45   C     C_R   0.198970 0.299534 0.556903 0.061305
C46   C     C_R   0.802551 0.705484 0.441090 0.060656
C47   C     C_R   0.803474 0.296870 0.444685 0.061104
C48   C     C_R   0.176145 0.722722 0.529863 0.045811
C49   C     C_R   0.662872 0.734679 0.585732 -0.013565
C50   C     C_R   0.327578 0.260703 0.393660 -0.010074
C51   C     C_R   0.307347 0.757564 0.371507 -0.007949
C52   C     C_R   0.674390 0.259577 0.607280 -0.012187
C53   C     C_R   0.192415 0.258049 0.628899 -0.008773
C54   C     C_R   0.812697 0.749083 0.373743 -0.017954
C55   C     C_R   0.812069 0.253431 0.375855 -0.008003
C56   C     C_R   0.168812 0.763698 0.601849 -0.009549
C57   C     C_R   0.721045 0.770147 0.472737 0.119819
C58   C     C_R   0.281573 0.236337 0.525612 0.124974
C59   C     C_R   0.256420 0.788493 0.495821 0.125766
C60   C     C_R   0.722081 0.232620 0.477825 0.125073
C61   C     C_R   0.241297 0.286554 0.501479 0.125641
C62   C     C_R   0.753585 0.713333 0.485084 0.119700
C63   C     C_R   0.761068 0.284298 0.499982 0.122673
C64   C     C_R   0.216699 0.737555 0.472401 0.124784
C65   C     C_R   0.279781 0.202110 0.606143 -0.276475
C66   C     C_R   0.728614 0.810358 0.400563 -0.254572
C67   C     C_R   0.725433 0.196345 0.399401 -0.273525
C68   C     C_R   0.253912 0.823241 0.575854 -0.255783
C69   C     C_R   0.734580 0.665077 0.538010 -0.255068
C70   C     C_R   0.242310 0.319682 0.419789 -0.257818
C71   C     C_R   0.219345 0.702140 0.393065 -0.274198
C72   C     C_R   0.758841 0.319414 0.579804 -0.260395
C73   C     C_R   0.234237 0.210336 0.653621 -0.134656
C74   C     C_R   0.772950 0.799272 0.350849 -0.138971
C75   C     C_R   0.771525 0.204151 0.352852 -0.135194
C76   C     C_R   0.209343 0.813010 0.625298 -0.128778
C77   C     C_R   0.689530 0.675095 0.586157 -0.124581
C78   C     C_R   0.286143 0.308888 0.369229 -0.128873
C79   C     C_R   0.265570 0.709625 0.346751 -0.135959
C80   C     C_R   0.714908 0.308970 0.630168 -0.131403
H1    H     H_    0.232952 0.179366 0.710640 0.199370
H2    H     H_    0.776052 0.830838 0.295131 0.193453
H3    H     H_    0.774216 0.171655 0.297852 0.199433
H4    H     H_    0.209275 0.841564 0.685333 0.192522
H5    H     H_    0.675939 0.635528 0.623366 0.199794
H6    H     H_    0.285077 0.336239 0.307950 0.193054
H7    H     H_    0.267568 0.677730 0.290814 0.199157
H8    H     H_    0.715005 0.337996 0.689821 0.195311
H9    H     H_    0.344990 0.130406 0.526610 0.188530
H10   H     H_    0.670154 0.882432 0.496396 0.203586
H11   H     H_    0.659530 0.125883 0.480004 0.187082
H12   H     H_    0.327240 0.891550 0.500397 0.208642
H13   H     H_    0.840191 0.628090 0.524206 0.174608
H14   H     H_    0.171304 0.389803 0.496536 0.210247
H15   H     H_    0.156092 0.629975 0.475234 0.187567
H16   H     H_    0.827276 0.389905 0.498753 0.216690
H17   H     H_    0.313102 0.168294 0.634459 0.133620
H18   H     H_    0.698718 0.848988 0.378538 0.176842
H19   H     H_    0.692993 0.161231 0.372145 0.133588
H20   H     H_    0.287200 0.857289 0.603837 0.175715
H21   H     H_    0.751491 0.617789 0.538519 0.136107
H22   H     H_    0.208456 0.352958 0.391492 0.173734
H23   H     H_    0.186169 0.667871 0.365162 0.134969
H24   H     H_    0.791788 0.354174 0.606751 0.193335
N1    N     N_R   0.549130 0.000000 0.284090 -0.171944
N2    N     N_R   0.450870 0.000000 0.715910 -0.172489
N3    N     N_R   0.049130 0.500000 0.284090 -0.170986
N4    N     N_R   0.950870 0.500000 0.715910 -0.175218
C81   C     C_R   0.628764 0.977223 0.207541 -0.419182
C82   C     C_R   0.371135 0.978824 0.792823 -0.414848
C83   C     C_R   0.129776 0.482674 0.207557 -0.420168
C84   C     C_R   0.872718 0.471045 0.792619 -0.383116
C85   C     C_R   0.608405 0.992149 0.287554 0.562067
C86   C     C_R   0.391475 0.993683 0.712909 0.564440
C87   C     C_R   0.108704 0.494865 0.287807 0.564541
C88   C     C_R   0.892858 0.484659 0.712919 0.558082
C89   C     C_R   0.509157 0.997074 0.205437 0.424453
C90   C     C_R   0.491052 0.995704 0.794187 0.429275
C91   C     C_R   0.009386 0.496351 0.205501 0.422859
C92   C     C_R   0.990427 0.502128 0.795037 0.426272
C93   C     C_R   0.527700 0.977539 0.124234 -0.131177
C94   C     C_R   0.472351 0.976979 0.875525 -0.131967
C95   C     C_R   0.028841 0.479340 0.124189 -0.131733
C96   C     C_R   0.973075 0.480727 0.876216 -0.134018
C97   C     C_R   0.588958 0.970357 0.126467 0.062690
C98   C     C_R   0.410986 0.971061 0.873548 0.057782
C99   C     C_R   0.090340 0.475694 0.126234 0.063041
C100  C     C_R   0.912373 0.468902 0.874054 0.049747
C101  C     C_R   0.488511 0.967061 0.040657 0.090273
C102  C     C_R   0.511453 0.966535 0.959136 0.095547
C103  C     C_R   0.990142 0.468323 0.040670 0.091738
C104  C     C_R   0.012870 0.471614 0.959230 0.091388
C105  C     C_R   0.572067 0.954363 0.964682 -0.217021
C106  C     C_R   0.427763 0.955696 0.035237 -0.214682
C107  C     C_R   0.074022 0.463589 0.963990 -0.217692
C108  C     C_R   0.930167 0.452837 0.035359 -0.212118
C109  C     C_R   0.610173 0.955499 0.047600 -0.160231
C110  C     C_R   0.389630 0.956935 0.952431 -0.153999
C111  C     C_R   0.112156 0.464552 0.046821 -0.156041
C112  C     C_R   0.891952 0.452349 0.952742 -0.155491
H25   H     H_    0.656792 0.947146 0.049470 0.157788
H26   H     H_    0.342887 0.949500 0.950715 0.157873
H27   H     H_    0.159103 0.459216 0.048279 0.158848
H28   H     H_    0.845902 0.440742 0.950824 0.158310
H29   H     H_    0.675086 0.969124 0.208085 0.179868
H30   H     H_    0.324671 0.971909 0.792486 0.180734
H31   H     H_    0.176395 0.477156 0.207883 0.181169
H32   H     H_    0.827129 0.457885 0.790318 0.180625
H33   H     H_    0.590778 0.942687 0.905920 0.191822
H34   H     H_    0.408864 0.944931 0.094045 0.188219
H35   H     H_    0.093186 0.455268 0.904656 0.189141
H36   H     H_    0.912112 0.439631 0.094033 0.186815
O17   O     O_3   0.454467 0.183578 0.317753 -0.595248
C113  C     C_3   0.504613 0.216123 0.364104 0.152444
H37   H     H_    0.517825 0.197795 0.434234 0.098423
H38   H     H_    0.496370 0.268152 0.366506 0.172436
C114  C     C_3   0.555802 0.205351 0.314721 -0.781632
H39   H     H_    0.543684 0.221683 0.243330 0.268962
H40   H     H_    0.594943 0.232517 0.348875 0.217348
H41   H     H_    0.567165 0.154065 0.315379 0.238808
O18   O     O_3   0.539487 0.813890 0.667951 -0.560405
C115  C     C_3   0.556273 0.828992 0.760934 0.130614
H42   H     H_    0.573649 0.878314 0.768900 0.158128
H43   H     H_    0.590484 0.796071 0.797112 0.158036
C116  C     C_3   0.502318 0.824017 0.805645 -0.710208
H44   H     H_    0.485080 0.774638 0.799812 0.281704
H45   H     H_    0.514338 0.836657 0.878622 0.197463
H46   H     H_    0.467209 0.856608 0.771968 0.246428
O19   O     O_3   0.546804 0.183790 0.682864 -0.596530
C117  C     C_3   0.497156 0.217252 0.637202 0.149855
H47   H     H_    0.482833 0.198277 0.567554 0.100847
H48   H     H_    0.506485 0.268991 0.633642 0.173400
C118  C     C_3   0.446512 0.208758 0.688308 -0.778189
H49   H     H_    0.459982 0.225281 0.759513 0.272203
H50   H     H_    0.407982 0.237077 0.655107 0.217658
H51   H     H_    0.433646 0.157892 0.688181 0.234379
O20   O     O_3   0.450930 0.813539 0.324269 -0.563556
C119  C     C_3   0.443470 0.835712 0.234063 0.131060
H52   H     H_    0.431649 0.886840 0.231134 0.162800
H53   H     H_    0.408638 0.809225 0.187439 0.170277
C120  C     C_3   0.501249 0.827125 0.200127 -0.719446
H54   H     H_    0.514343 0.776317 0.204384 0.281234
H55   H     H_    0.495894 0.842448 0.128308 0.199972
H56   H     H_    0.536625 0.855776 0.242080 0.245211
O21   O     O_3   0.949312 0.682665 0.314220 -0.596602
C121  C     C_3   0.997405 0.716425 0.364310 0.143354
H57   H     H_    0.012505 0.693573 0.430985 0.103547
H58   H     H_    0.985950 0.767005 0.374504 0.166560
C122  C     C_3   0.048509 0.714806 0.313042 -0.763488
H59   H     H_    0.034746 0.735840 0.244549 0.275177
H60   H     H_    0.086187 0.742542 0.350735 0.214830
H61   H     H_    0.062914 0.664991 0.305926 0.232035
O22   O     O_3   0.051061 0.316632 0.681400 -0.561085
C123  C     C_3   0.060738 0.340478 0.771056 0.129401
H62   H     H_    0.069819 0.392238 0.771065 0.160064
H63   H     H_    0.098241 0.316851 0.816025 0.166277
C124  C     C_3   0.005482 0.329190 0.810837 -0.709635
H64   H     H_    0.994894 0.277700 0.809165 0.284098
H65   H     H_    0.012726 0.345638 0.882382 0.199895
H66   H     H_    0.967616 0.355369 0.770939 0.246760
O23   O     O_3   0.042714 0.685195 0.678577 -0.592817
C125  C     C_3   0.991901 0.715766 0.630952 0.153961
H67   H     H_    0.979301 0.695933 0.561602 0.095094
H68   H     H_    0.998891 0.767929 0.626843 0.171697
C126  C     C_3   0.940635 0.704367 0.679980 -0.782256
H69   H     H_    0.951430 0.723471 0.750190 0.266555
H70   H     H_    0.900472 0.728525 0.643228 0.215574
H71   H     H_    0.931481 0.652671 0.682717 0.239002
O24   O     O_3   0.954035 0.312864 0.326976 -0.562907
C127  C     C_3   0.946129 0.334122 0.236309 0.130143
H72   H     H_    0.932288 0.384646 0.232068 0.163941
H73   H     H_    0.912541 0.305789 0.190105 0.170558
C128  C     C_3   0.004410 0.327872 0.203170 -0.716897
H74   H     H_    0.019253 0.277631 0.208097 0.280971
H75   H     H_    0.998882 0.342996 0.131245 0.198877
H76   H     H_    0.038613 0.357908 0.245175 0.245501
N5    N     N_R   0.598119 0.696616 0.689679 0.202990
O25   O     O_R   0.542458 0.681641 0.677989 -0.313076
O26   O     O_R   0.634665 0.671886 0.757139 -0.404410
N6    N     N_R   0.383059 0.291220 0.272772 0.206724
O27   O     O_R   0.393714 0.269289 0.196183 -0.352228
O28   O     O_R   0.389428 0.351698 0.289818 -0.389578
N7    N     N_R   0.369630 0.715050 0.266968 0.198636
O29   O     O_R   0.419669 0.684837 0.283257 -0.314585
O30   O     O_R   0.335081 0.707981 0.188556 -0.415785
N8    N     N_R   0.618414 0.291415 0.727069 0.205794
O31   O     O_R   0.608506 0.270147 0.804330 -0.351035
O32   O     O_R   0.610793 0.351531 0.708673 -0.390339
N9    N     N_R   0.132186 0.218261 0.737994 0.199299
O33   O     O_R   0.081939 0.188322 0.724968 -0.316020
O34   O     O_R   0.168008 0.212444 0.815443 -0.413827
N10   N     N_R   0.874221 0.785498 0.263839 0.207944
O35   O     O_R   0.886709 0.765248 0.187509 -0.355151
O36   O     O_R   0.881495 0.845359 0.284626 -0.394800
N11   N     N_R   0.875289 0.211615 0.272218 0.198767
O37   O     O_R   0.926193 0.183133 0.289040 -0.314805
O38   O     O_R   0.840748 0.202596 0.194248 -0.414052
N12   N     N_R   0.111195 0.795799 0.719498 0.206288
O39   O     O_R   0.099924 0.775462 0.796437 -0.355113
O40   O     O_R   0.104065 0.855765 0.699713 -0.389410
O41   O     O_3   0.549057 0.010117 0.791207 -0.618702
C129  C     C_3   0.561855 0.071140 0.829163 0.116031
H77   H     H_    0.556524 0.073500 0.901309 0.129289
H78   H     H_    0.531886 0.106993 0.791429 0.212755
C130  C     C_3   0.625631 0.087873 0.825870 -0.690653
H79   H     H_    0.633807 0.083880 0.755430 0.256579
H80   H     H_    0.635198 0.137214 0.850465 0.244430
H81   H     H_    0.655762 0.054897 0.869861 0.226794
O42   O     O_3   0.451442 0.013015 0.208106 -0.621249
C131  C     C_3   0.439629 0.073626 0.168653 0.118423
H82   H     H_    0.445282 0.074818 0.096628 0.128379
H83   H     H_    0.469984 0.109535 0.205756 0.212357
C132  C     C_3   0.375973 0.091480 0.170872 -0.685804
H84   H     H_    0.367411 0.088675 0.241195 0.257900
H85   H     H_    0.367108 0.140570 0.145137 0.245671
H86   H     H_    0.345598 0.058333 0.127303 0.225545
O43   O     O_3   0.046940 0.522776 0.792466 -0.616263
C133  C     C_3   0.055641 0.582924 0.834932 0.117178
H87   H     H_    0.048125 0.582404 0.906056 0.124888
H88   H     H_    0.024740 0.618142 0.797720 0.210470
C134  C     C_3   0.119099 0.603846 0.837432 -0.677127
H89   H     H_    0.129813 0.602473 0.768278 0.262021
H90   H     H_    0.125517 0.652885 0.864741 0.245227
H91   H     H_    0.149662 0.571510 0.881862 0.223045
O44   O     O_3   0.951070 0.509344 0.208357 -0.622595
C135  C     C_3   0.936705 0.569722 0.169601 0.124159
H92   H     H_    0.941963 0.572014 0.097470 0.129045
H93   H     H_    0.965804 0.606605 0.206800 0.213692
C136  C     C_3   0.872480 0.584376 0.172607 -0.700253
H94   H     H_    0.864229 0.579818 0.242918 0.255838
H95   H     H_    0.861669 0.633441 0.148165 0.243830
H96   H     H_    0.843303 0.550551 0.128340 0.227535
O45   O     O_3   0.353570 0.994719 0.629026 -0.586618
C137  C     C_3   0.300324 0.028254 0.631252 0.042792
H97   H     H_    0.291323 0.059312 0.571170 0.173965
H98   H     H_    0.301942 0.059763 0.691536 0.125748
C138  C     C_3   0.247588 0.983499 0.621259 -0.806676
H99   H     H_    0.206938 0.011312 0.623375 0.249765
H100  H     H_    0.241974 0.958615 0.554864 0.255341
H101  H     H_    0.253044 0.948188 0.676687 0.240120
O46   O     O_3   0.645740 0.991397 0.371954 -0.585475
C139  C     C_3   0.700872 0.021540 0.371696 0.043080
H102  H     H_    0.710874 0.052058 0.432540 0.172188
H103  H     H_    0.701578 0.053144 0.312339 0.126561
C140  C     C_3   0.750956 0.973385 0.381729 -0.803158
H104  H     H_    0.793586 0.998673 0.385030 0.248786
H105  H     H_    0.752871 0.946050 0.445444 0.254115
H106  H     H_    0.745219 0.940270 0.323421 0.239909
O47   O     O_3   0.856837 0.471315 0.630867 -0.595456
C141  C     C_3   0.810170 0.515385 0.611364 0.048206
H107  H     H_    0.809555 0.531647 0.541100 0.174227
H108  H     H_    0.815005 0.557956 0.656796 0.125785
C142  C     C_3   0.750611 0.483628 0.610917 -0.835763
H109  H     H_    0.749944 0.457932 0.675107 0.257281
H110  H     H_    0.715303 0.520131 0.602301 0.235273
H111  H     H_    0.740551 0.449988 0.553057 0.254219
O48   O     O_3   0.145910 0.494764 0.372396 -0.586104
C143  C     C_3   0.200267 0.526748 0.372677 0.045593
H112  H     H_    0.209825 0.556476 0.434385 0.174318
H113  H     H_    0.199922 0.559468 0.314235 0.124954
C144  C     C_3   0.251517 0.480168 0.380870 -0.805462
H114  H     H_    0.293074 0.506638 0.379816 0.250497
H115  H     H_    0.256261 0.454278 0.446237 0.254930
H116  H     H_    0.244857 0.445655 0.324138 0.241490

loop_
_geom_bond_atom_site_label_1
_geom_bond_atom_site_label_2
_geom_bond_distance
_ccdc_geom_bond_type
N11   O38   1.301149 A    
C17   C49   1.415429 A    
C82   C98   1.388289 A    
C120  H55   1.109457 S    
C94   C98   1.414690 A    
C53   C73   1.395524 A    
C18   C50   1.417434 A    
C55   C75   1.395819 A    
O46   C139  1.420804 S    
C134  H91   1.110646 S    
N3    C91   1.354970 A    
C106  C110  1.383207 A    
C29   O22   1.384667 S    
C132  H86   1.110664 S    
C106  H34   1.076977 S    
C100  C112  1.392709 A    
C115  H42   1.111259 S    
C38   H13   1.071645 S    
O3    C3    1.315340 A    
C64   C71   1.413192 A    
C81   C97   1.388935 A    
C143  C144  1.523530 S    
C93   C97   1.414379 A    
C77   H5    1.081315 S    
C95   C103  1.416038 A    
C82   C86   1.400065 A    
C60   C63   1.410662 A    
C21   C29   1.410246 A    
O9    Zn2   1.957191 S    
C23   C55   1.414941 A    
C141  H108  1.117737 S    
C14   C30   1.410888 A    
C73   H1    1.080859 S    
C89   O42   1.379814 S    
C121  H57   1.107216 S    
O22   C123  1.412425 S    
C51   C79   1.396493 A    
O7    Zn4   1.985033 S    
C9    C25   1.409393 A    
C115  C116  1.520857 S    
Zn1   N2    2.067347 S    
O24   C127  1.411453 S    
C46   C62   1.417441 A    
C97   C109  1.394807 A    
Zn3   N4    2.067347 S    
O15   Zn3   1.960855 S    
C90   O41   1.379548 S    
O12   C4    1.317865 A    
O13   C5    1.318952 A    
O2    Zn2   1.983246 S    
C127  H73   1.111681 S    
C113  C114  1.520457 S    
C28   O19   1.379664 S    
C81   C85   1.400979 A    
C61   C70   1.414411 A    
C43   C51   1.419593 A    
C76   H4    1.081497 S    
C15   C31   1.410507 A    
C131  H83   1.106992 S    
C17   C25   1.409241 A    
C19   C27   1.410676 A    
C20   C28   1.411163 A    
O21   C121  1.410381 S    
C7    C14   1.475348 S    
C135  C136  1.521050 S    
O3    Zn2   1.985033 S    
C116  H46   1.110281 S    
C78   H6    1.081641 S    
C41   C49   1.419450 A    
N4    C88   1.368113 A    
C56   C76   1.396938 A    
C135  H93   1.106476 S    
C57   C62   1.406789 A    
O10   C2    1.320248 A    
C24   N12   1.438260 S    
O4    C4    1.313367 A    
O5    C5    1.316191 A    
C74   H2    1.081036 S    
C144  H114  1.110607 S    
C69   C77   1.385048 A    
C14   C38   1.388817 A    
C1    C12   1.469721 S    
C19   C51   1.415249 A    
C119  H53   1.111712 S    
C2    C11   1.461896 S    
C3    C10   1.470785 S    
C122  H61   1.111307 S    
N10   O35   1.301079 A    
C47   C63   1.417978 A    
C117  H47   1.109090 S    
C91   C95   1.419155 A    
C126  H71   1.111063 S    
O4    Zn1   1.985035 S    
C116  H44   1.110496 S    
C10   C34   1.383743 A    
C42   C50   1.415303 A    
N9    O33   1.300996 A    
O23   C125  1.411148 S    
C62   C69   1.408683 A    
O41   C129  1.413146 S    
C123  H63   1.112191 S    
C142  H110  1.110105 S    
O11   Zn1   1.960855 S    
C46   C54   1.416666 A    
C24   C56   1.418209 A    
C113  H37   1.109472 S    
C143  H113  1.114497 S    
C39   C47   1.390223 A    
O5    Zn3   1.983245 S    
C33   C41   1.391981 A    
O6    Zn4   1.983246 S    
C41   C57   1.417901 A    
C114  H40   1.109900 S    
C35   C43   1.392880 A    
C36   C44   1.388811 A    
C83   C99   1.387751 A    
C128  H74   1.110537 S    
C16   C32   1.409278 A    
Zn4   N3    2.067345 S    
C23   N11   1.435980 S    
C140  H106  1.105701 S    
C83   H31   1.079977 S    
C71   H23   1.077559 S    
O43   C133  1.413942 S    
C138  H100  1.110071 S    
C127  H72   1.109521 S    
C75   H3    1.080873 S    
C136  H94   1.109100 S    
C19   N7    1.436093 S    
C139  H103  1.114695 S    
C80   H8    1.081738 S    
C107  C111  1.383315 A    
C108  C112  1.381599 A    
C125  C126  1.520961 S    
C124  H64   1.110519 S    
C18   N6    1.438198 S    
C108  H36   1.076705 S    
O12   Zn2   1.960857 S    
C67   H19   1.076449 S    
O45   C137  1.421943 S    
C84   C88   1.389175 A    
C144  H116  1.106480 S    
C122  H59   1.110525 S    
C125  H68   1.113605 S    
C130  H80   1.110168 S    
N2    C86   1.367860 A    
C22   C30   1.410378 A    
O10   Zn1   1.957192 S    
C114  H39   1.110515 S    
C47   C55   1.418384 A    
C58   C65   1.414264 A    
N8    O31   1.301179 A    
C122  H60   1.110146 S    
C20   C52   1.417082 A    
C85   O46   1.393368 S    
C42   C58   1.417646 A    
C129  H77   1.111582 S    
C98   C110  1.394232 A    
C134  H90   1.109836 S    
O1    C1    1.314947 A    
O14   C6    1.321013 A    
N12   O39   1.301088 A    
N4    C92   1.357422 A    
C96   C104  1.417205 A    
O7    C7    1.317770 A    
N6    O27   1.301153 A    
O8    C8    1.310406 A    
C111  H27   1.084206 S    
O20   C119  1.411772 S    
C128  H76   1.110627 S    
C115  H43   1.114245 S    
C140  H105  1.110050 S    
C18   C26   1.411459 A    
C21   C53   1.414748 A    
C133  H87   1.111112 S    
C27   O20   1.384669 S    
C71   C79   1.383426 A    
C49   C77   1.396907 A    
C88   O47   1.379932 S    
C68   C76   1.389614 A    
C31   O24   1.384459 S    
C44   C60   1.417705 A    
C54   C74   1.400403 A    
C129  C130  1.521071 S    
C25   O18   1.383311 S    
O18   C115  1.411857 S    
C124  H66   1.110619 S    
C118  H49   1.110533 S    
O11   C3    1.319918 A    
C112  H28   1.084290 S    
N3    C87   1.368332 A    
C72   H24   1.077589 S    
C137  H97   1.102620 S    
C121  H58   1.114453 S    
C13   C29   1.410365 A    
N7    O29   1.301028 A    
O6    C6    1.310266 A    
C136  H96   1.110658 S    
C15   C39   1.385301 A    
C120  H54   1.110615 S    
C117  C118  1.519926 S    
C39   H16   1.076985 S    
C133  C134  1.521167 S    
C103  C104  1.415815 A    
O13   Zn4   1.957191 S    
O14   Zn3   1.957192 S    
C68   H20   1.076416 S    
C36   H11   1.066661 S    
C22   N10   1.437104 S    
C32   O23   1.380514 S    
C11   C27   1.409757 A    
O42   C131  1.413277 S    
C12   C28   1.408820 A    
C131  C132  1.521062 S    
C59   C68   1.414144 A    
C10   C26   1.408819 A    
C22   C54   1.416569 A    
C48   C64   1.417600 A    
C137  C138  1.522996 S    
N7    O30   1.301186 A    
C90   C94   1.422158 A    
C87   O48   1.394175 S    
C34   C42   1.387972 A    
N1    C89   1.357675 A    
O17   C113  1.410879 S    
Zn2   N1    2.067345 S    
C101  C106  1.407906 A    
O44   C135  1.413012 S    
C6    C15   1.460208 S    
C82   H30   1.079828 S    
C45   C61   1.419043 A    
C104  C107  1.408443 A    
C65   H17   1.076661 S    
C26   O17   1.379622 S    
C66   H18   1.078766 S    
C103  C108  1.408052 A    
C48   C56   1.414488 A    
C109  H25   1.084199 S    
N10   O36   1.301240 A    
C89   C93   1.422168 A    
C141  H107  1.105755 S    
C117  H48   1.113733 S    
C92   O43   1.380260 S    
C92   C96   1.422860 A    
C37   C45   1.391179 A    
C20   N8    1.437911 S    
C79   H7    1.080813 S    
C8    C13   1.460661 S    
C81   H29   1.079856 S    
C94   C102  1.420491 A    
C101  C102  1.417795 A    
C118  H51   1.111185 S    
C58   C61   1.410746 A    
C23   C31   1.410905 A    
C142  H109  1.107404 S    
C59   C64   1.411185 A    
C69   H21   1.069091 S    
C102  C105  1.407947 A    
C105  C109  1.384073 A    
O19   C117  1.410546 S    
C113  H38   1.113738 S    
C116  H45   1.109757 S    
C40   C48   1.388360 A    
C140  H104  1.110418 S    
C105  H33   1.077495 S    
O8    Zn3   1.985035 S    
C131  H82   1.111268 S    
C11   C35   1.387997 A    
C12   C36   1.383513 A    
C141  C142  1.525604 S    
C33   H10   1.080029 S    
O16   Zn4   1.960857 S    
C35   H12   1.078223 S    
O2    C2    1.311993 A    
C138  H99   1.110565 S    
C96   C100  1.415449 A    
C99   C111  1.394145 A    
C93   C101  1.420225 A    
C5    C16   1.470853 S    
C43   C59   1.420516 A    
O47   C141  1.410807 S    
C95   C99   1.414310 A    
C63   C72   1.414199 A    
C139  C140  1.523707 S    
C60   C67   1.414577 A    
C83   C87   1.400790 A    
C135  H92   1.111001 S    
C45   C53   1.419238 A    
C91   O44   1.380160 S    
C127  C128  1.521031 S    
C66   C74   1.390432 A    
C126  H70   1.110674 S    
C38   C46   1.393605 A    
C118  H50   1.109709 S    
C119  H52   1.109732 S    
C132  H85   1.109989 S    
C130  H79   1.109103 S    
O15   C7    1.320835 A    
O16   C8    1.321218 A    
O1    Zn1   1.983245 S    
C70   H22   1.077067 S    
O48   C143  1.421466 S    
C65   C73   1.382930 A    
C4    C9    1.460545 S    
N8    O32   1.301318 A    
N9    O34   1.301176 A    
C84   C100  1.384904 A    
C123  H62   1.109791 S    
C142  H111  1.109610 S    
C129  H78   1.107214 S    
C138  H101  1.106015 S    
C144  H115  1.110014 S    
C134  H89   1.109135 S    
C34   H9    1.064637 S    
C67   C75   1.383850 A    
N12   O40   1.301329 A    
C143  H112  1.103912 S    
C17   N5    1.436681 S    
C114  H41   1.111098 S    
C119  C120  1.521078 S    
N6    O28   1.301334 A    
C132  H84   1.109150 S    
C128  H75   1.109491 S    
O9    C1    1.320057 A    
C57   C66   1.410948 A    
N5    O26   1.301168 A    
C120  H56   1.110816 S    
C133  H88   1.106685 S    
N11   O37   1.301014 A    
C72   C80   1.387394 A    
C52   C80   1.396975 A    
N1    C85   1.367793 A    
C139  H102  1.103697 S    
N2    C90   1.357952 A    
C13   C37   1.386531 A    
C126  H69   1.110518 S    
C84   H32   1.080951 S    
C16   C40   1.384894 A    
C123  C124  1.520935 S    
C37   H14   1.078037 S    
C124  H65   1.109301 S    
C86   O45   1.393325 S    
C137  H98   1.115047 S    
C121  C122  1.520387 S    
C24   C32   1.412568 A    
C9    C33   1.388445 A    
C136  H95   1.110033 S    
C44   C52   1.416332 A    
C125  H67   1.107491 S    
C130  H81   1.110652 S    
C110  H26   1.084239 S    
C30   O21   1.380541 S    
C107  H35   1.077275 S    
C21   N9    1.436185 S    
C40   H15   1.066414 S    
N5    O25   1.301096 A    
C70   C78   1.388344 A    
C50   C78   1.396396 A    
