data_mof_unit_pretest_1072.cif
_audit_creation_date              2012-12-10T20:03:10-0500
_audit_creation_method            fapswitch 2.2
_symmetry_space_group_name_H-M    P1
_symmetry_Int_Tables_number       1
_space_group_crystal_system       triclinic
_cell_length_a                    8.583514
_cell_length_b                    18.863492
_cell_length_c                    18.462893
_cell_angle_alpha                 89.031171
_cell_angle_beta                  98.732577
_cell_angle_gamma                 90.221022
_cell_volume                      2954.34108921

loop_
_atom_site_label
_atom_site_type_symbol
_atom_type_description
_atom_site_fract_x
_atom_site_fract_y
_atom_site_fract_z
_atom_type_partial_charge
C1    C     C_R   0.496681 0.364987 0.500422 0.854780
C2    C     C_R   0.496303 0.635059 0.499070 0.853874
C3    C     C_R   0.293312 0.963295 0.549824 0.473427
C4    C     C_R   0.306932 0.036715 0.417287 0.473902
C5    C     C_R   0.300920 0.036959 0.548588 -0.326193
C6    C     C_R   0.312811 0.963051 0.419777 -0.327761
C7    C     C_R   0.316804 0.073891 0.483512 -0.105985
C8    C     C_R   0.315049 0.926081 0.486498 -0.106032
C9    C     C_R   0.606960 0.540744 0.732241 -0.087893
C10   C     C_R   0.396547 0.457137 0.268478 -0.121161
C11   C     C_R   0.609541 0.542818 0.808646 0.386667
C12   C     C_R   0.389829 0.456028 0.191193 0.407240
C13   C     C_R   0.502430 0.500539 0.841688 -0.000861
C14   C     C_R   0.497039 0.498597 0.158507 0.023047
C15   C     C_R   0.393040 0.459347 0.795695 -0.342010
C16   C     C_R   0.603429 0.541565 0.203943 -0.372926
C17   C     C_R   0.393916 0.459760 0.719738 0.003873
C18   C     C_R   0.602322 0.541843 0.279755 0.004714
C19   C     C_R   0.358984 0.504932 0.951437 -0.229210
C20   C     C_R   0.641149 0.494502 0.048870 -0.235429
C21   C     C_R   0.357410 0.504777 0.027389 -0.107820
C22   C     C_R   0.642752 0.494501 0.972899 -0.111144
C23   C     C_R   0.200840 0.499955 0.480860 0.971504
C24   C     C_R   0.799163 0.499999 0.519139 0.976537
C25   C     C_R   0.498375 0.499048 0.077254 0.171725
C26   C     C_R   0.501662 0.499966 0.923006 0.142123
C27   C     C_2   0.035804 0.499969 0.470489 -0.395288
C28   C     C_2   0.964215 0.499906 0.529505 -0.391819
C29   C     C_R   0.348486 0.735227 0.436132 -0.188284
C30   C     C_R   0.341668 0.265162 0.538004 -0.187516
C31   C     C_R   0.297271 0.804974 0.434712 -0.205434
C32   C     C_R   0.291358 0.195256 0.531144 -0.202502
C33   C     C_R   0.358654 0.850750 0.490949 0.165065
C34   C     C_R   0.361704 0.149113 0.487017 0.161808
C35   C     C_R   0.471705 0.825591 0.548807 -0.096835
C36   C     C_R   0.483319 0.173966 0.449963 -0.093050
C37   C     C_R   0.519140 0.755111 0.551400 -0.242948
C38   C     C_R   0.529772 0.244563 0.454857 -0.239599
C39   C     C_R   0.458655 0.710028 0.494690 -0.018838
C40   C     C_R   0.459850 0.290023 0.499354 -0.020145
H1    H     H_    0.973692 0.500083 0.414534 0.175621
H2    H     H_    0.026337 0.499781 0.585458 0.178538
H3    H     H_    0.308538 0.426256 0.818457 0.167700
H4    H     H_    0.685966 0.575445 0.180768 0.161532
H5    H     H_    0.309914 0.427616 0.684888 0.133325
H6    H     H_    0.683890 0.575413 0.314186 0.136276
H7    H     H_    0.248345 0.510100 0.914782 0.147871
H8    H     H_    0.751774 0.489986 0.085601 0.139002
H9    H     H_    0.245701 0.510266 0.047162 0.148114
H10   H     H_    0.754633 0.489258 0.953221 0.167305
H11   H     H_    0.298054 0.700293 0.392722 0.149839
H12   H     H_    0.284401 0.300521 0.571383 0.142551
H13   H     H_    0.209573 0.823089 0.389835 0.134188
H14   H     H_    0.197074 0.177390 0.559906 0.134868
H15   H     H_    0.525085 0.860571 0.591489 0.164789
H16   H     H_    0.543654 0.138729 0.417809 0.165922
H17   H     H_    0.603786 0.735961 0.597033 0.139441
H18   H     H_    0.620813 0.263557 0.424630 0.145252
H19   H     H_    0.303733 0.064708 0.599651 0.180016
H20   H     H_    0.325145 0.935285 0.370094 0.178812
H21   H     H_    0.690052 0.572367 0.706953 0.142971
H22   H     H_    0.321190 0.423065 0.295626 0.130326
N1    N     N_R   0.500020 0.499980 0.689440 -0.110310
N2    N     N_R   0.499980 0.500020 0.310560 -0.103700
O1    O     O_R   0.500010 0.398180 0.560840 -0.616985
O2    O     O_R   0.499990 0.601820 0.439160 -0.621655
O3    O     O_R   0.499930 0.398180 0.439210 -0.611936
O4    O     O_R   0.500070 0.601820 0.560790 -0.614994
O5    O     O_R   0.271780 0.500000 0.546590 -0.616428
O6    O     O_R   0.728220 0.500000 0.453410 -0.614593
O7    O     O_R   0.271710 0.499990 0.424960 -0.631553
O8    O     O_R   0.728290 0.500010 0.575040 -0.624490
Zn1   Zn    Zn3+2 0.500050 0.500000 0.581210 0.938789
Zn2   Zn    Zn3+2 0.499950 0.500000 0.418790 0.933749
O9    O     O_3   0.283317 0.928541 0.615468 -0.620018
C41   C     C_3   0.128380 0.902399 0.613267 0.101224
H23   H     H_    0.096308 0.865315 0.567008 0.141962
H24   H     H_    0.042166 0.946914 0.607865 0.138078
C42   C     C_3   0.116933 0.861938 0.684203 -0.815460
H25   H     H_    0.145734 0.897586 0.731649 0.257621
H26   H     H_    0.995334 0.841227 0.683179 0.201759
H27   H     H_    0.200597 0.816678 0.690594 0.256003
O10   O     O_3   0.311474 0.071398 0.351080 -0.620721
C43   C     C_3   0.160388 0.099190 0.325306 0.093534
H28   H     H_    0.120077 0.135486 0.365694 0.140493
H29   H     H_    0.073135 0.055460 0.313294 0.139872
C44   C     C_3   0.166546 0.141484 0.254934 -0.799273
H30   H     H_    0.204003 0.106756 0.212766 0.257827
H31   H     H_    0.048111 0.163406 0.233890 0.203686
H32   H     H_    0.251546 0.186022 0.265640 0.259799
O11   O     O_3   0.719255 0.584866 0.850484 -0.630557
C45   C     C_3   0.655996 0.653617 0.852387 0.094429
H33   H     H_    0.541971 0.652393 0.874396 0.144620
H34   H     H_    0.637693 0.678623 0.796637 0.134326
C46   C     C_3   0.771040 0.699183 0.902463 -0.815081
H35   H     H_    0.885625 0.702368 0.881569 0.254685
H36   H     H_    0.722704 0.753519 0.904428 0.206061
H37   H     H_    0.790242 0.675852 0.958758 0.254833
O12   O     O_3   0.293381 0.409041 0.147556 -0.611384
C47   C     C_3   0.138713 0.407695 0.165186 0.067031
H38   H     H_    0.096875 0.461659 0.176850 0.122311
H39   H     H_    0.133383 0.371763 0.213091 0.150505
C48   C     C_3   0.026852 0.378697 0.100575 -0.810356
H40   H     H_    0.065406 0.325045 0.086940 0.267147
H41   H     H_    0.905857 0.374880 0.114713 0.208977
H42   H     H_    0.025025 0.414405 0.051999 0.242313

loop_
_geom_bond_atom_site_label_1
_geom_bond_atom_site_label_2
_ccdc_geom_bond_type
C38   C40   A    
C44   H30   S    
C23   O5    A    
C46   H35   S    
C41   C42   S    
C21   H9    S    
C46   H37   S    
C24   O6    A    
C9    H21   S    
C19   C21   A    
C41   H24   S    
C2    O4    A    
C19   H7    S    
C20   C25   A    
O2    Zn2   S    
O1    Zn1   S    
C32   H14   S    
C19   C26   A    
C45   H33   S    
C12   O12   S    
C30   H12   S    
C1    C40   S    
C1    O3    A    
C38   H18   S    
C2    C39   S    
O10   C43   S    
O6    Zn2   S    
C1    O1    A    
C43   C44   S    
O5    Zn1   S    
C23   C27   S    
C3    O9    S    
C16   H4    S    
C22   H10   S    
C10   H22   S    
C4    C7    A    
C18   H6    S    
C45   H34   S    
C41   H23   S    
C5    H19   S    
C35   H15   S    
C6    H20   S    
C43   H28   S    
C4    C6    A    
C3    C8    A    
O11   C45   S    
C42   H26   S    
C6    C8    A    
N1    Zn1   S    
C2    O2    A    
O4    Zn1   S    
C45   C46   S    
C32   C34   A    
O9    C41   S    
C36   H16   S    
C23   O7    A    
C42   H27   S    
C27   H1    S    
O12   C47   S    
C29   C39   A    
C31   C33   A    
C30   C40   A    
C48   H41   S    
O3    Zn2   S    
C31   H13   S    
C9    C11   A    
C20   H8    S    
C10   C12   A    
C16   C18   A    
C20   C22   A    
C13   C15   A    
C7    C34   S    
C14   C16   A    
C13   C26   S    
C48   H40   S    
C24   O8    A    
C5    C7    A    
C47   H39   S    
C29   H11   S    
C15   C17   A    
C21   C25   A    
C35   C37   A    
C9    N1    A    
C10   N2    A    
C24   C28   S    
C17   H5    S    
O8    Zn1   S    
C3    C5    A    
O7    Zn2   S    
C46   H36   S    
C36   C38   A    
C12   C14   A    
C15   H3    S    
C37   C39   A    
C17   N1    A    
C30   C32   A    
C11   C13   A    
C18   N2    A    
C4    O10   S    
C28   H2    S    
C47   H38   S    
C33   C35   A    
C48   H42   S    
C34   C36   A    
C8    C33   S    
C47   C48   S    
C14   C25   S    
C42   H25   S    
C11   O11   S    
C29   C31   A    
C22   C26   A    
C44   H32   S    
C27   C28   D    
C44   H31   S    
N2    Zn2   S    
C43   H29   S    
C37   H17   S    
