data_mof_unit_pretest_817.cif
_audit_creation_date              2012-12-10T19:03:39-0500
_audit_creation_method            fapswitch 2.2
_symmetry_space_group_name_H-M    P1
_symmetry_Int_Tables_number       1
_space_group_crystal_system       triclinic
_cell_length_a                    15.86239
_cell_length_b                    10.776779
_cell_length_c                    9.556882
_cell_angle_alpha                 89.986518
_cell_angle_beta                  89.47431
_cell_angle_gamma                 89.587721
_cell_volume                      1633.59462032

loop_
_atom_site_label
_atom_site_type_symbol
_atom_type_description
_atom_site_fract_x
_atom_site_fract_y
_atom_site_fract_z
_atom_type_partial_charge
C1    C     C_R   0.500751 0.262493 0.499831 0.793991
C2    C     C_3   0.947489 0.505031 0.655901 -0.459342
C3    C     C_3   0.916587 0.501378 0.502323 0.175476
C4    C     C_3   0.950045 0.617958 0.424790 -0.565841
C5    C     C_3   0.048100 0.615143 0.415268 0.323723
C6    C     C_1   0.824535 0.501294 0.500104 -0.025497
C7    C     C_1   0.174871 0.503606 0.503693 0.026273
C8    C     C_1   0.250478 0.502214 0.502365 -0.173871
C9    C     C_R   0.551839 0.062502 0.593700 0.022322
C10   C     C_R   0.504768 0.129269 0.496431 -0.055896
C11   C     C_R   0.467921 0.065057 0.384725 -0.215292
C12   C     C_R   0.340205 0.500576 0.500677 0.810958
C13   C     C_R   0.467771 0.935732 0.384410 -0.175981
C14   C     C_R   0.504711 0.870325 0.495583 -0.111370
C15   C     C_R   0.552244 0.935352 0.592196 -0.034417
C16   C     C_3   0.561542 0.927126 0.748393 0.318877
C17   C     C_3   0.560685 0.069310 0.749306 -0.510366
C18   C     C_R   0.564550 0.447105 0.072517 0.189213
C19   C     C_R   0.433650 0.548442 0.075239 -0.051794
C20   C     C_R   0.433715 0.548608 0.926620 -0.058221
C21   C     C_R   0.564022 0.445671 0.925202 0.184871
C22   C     C_3   0.654933 0.479104 0.916300 -0.542665
C23   C     C_R   0.500482 0.737404 0.499604 0.789496
C24   C     C_3   0.655619 0.482528 0.075107 0.250627
C25   C     C_R   0.659655 0.500270 0.499521 0.822411
C26   C     C_3   0.046075 0.505450 0.657134 0.356141
C27   C     C_3   0.050678 0.383812 0.433408 -0.636722
C28   C     C_3   0.952487 0.383348 0.427763 0.345693
C29   C     C_1   0.749093 0.500859 0.499154 -0.197907
C30   C     C_3   0.082515 0.504725 0.503979 0.120954
Cu1   Cu    Cu3+1 0.500000 0.499980 0.640670 0.954175
Cu2   Cu    Cu3+1 0.500000 0.500020 0.359330 0.972570
H1    H     H_    0.924456 0.421424 0.712626 0.182667
H2    H     H_    0.917696 0.584146 0.711720 0.161351
H3    H     H_    0.924377 0.621260 0.316925 0.136059
H4    H     H_    0.435427 0.114307 0.302114 0.154232
H5    H     H_    0.435080 0.887535 0.301763 0.155638
H6    H     H_    0.504971 0.887024 0.800424 0.120061
H7    H     H_    0.503884 0.109585 0.801622 0.176787
H8    H     H_    0.621474 0.111369 0.780507 0.202425
H9    H     H_    0.380823 0.589277 0.131206 0.132242
H10   H     H_    0.063531 0.413106 0.701066 0.112731
H11   H     H_    0.380986 0.589571 0.872072 0.140342
H12   H     H_    0.694124 0.402496 0.871972 0.154701
H13   H     H_    0.695183 0.409313 0.125248 0.052236
H14   H     H_    0.076707 0.375603 0.325180 0.154371
H15   H     H_    0.074113 0.301138 0.491631 0.207525
H16   H     H_    0.932901 0.389218 0.315746 0.047836
H17   H     H_    0.066692 0.595862 0.304085 0.068712
H18   H     H_    0.927243 0.703432 0.478744 0.196486
N1    N     N_R   0.500530 0.500930 0.147930 -0.162772
N2    N     N_R   0.500530 0.500890 0.852020 -0.167323
O1    O     O_R   0.500000 0.319640 0.618810 -0.575727
O2    O     O_R   0.500010 0.319680 0.381230 -0.594835
O3    O     O_R   0.379430 0.499990 0.618840 -0.578839
O4    O     O_R   0.379440 0.500030 0.381260 -0.592450
O5    O     O_R   0.499990 0.680320 0.618770 -0.579556
O6    O     O_R   0.500000 0.680360 0.381190 -0.555129
O7    O     O_R   0.620560 0.499970 0.618740 -0.577783
O8    O     O_R   0.620570 0.500010 0.381160 -0.545957
O9    O     O_3   0.086732 0.589913 0.749502 -0.580761
C31   C     C_3   0.051905 0.711002 0.758783 0.196963
H19   H     H_    0.003921 0.733941 0.679634 0.161269
H20   H     H_    0.103838 0.778215 0.742664 0.181551
C32   C     C_3   0.015221 0.732149 0.904938 -0.932747
H21   H     H_    0.065244 0.720360 0.984530 0.250775
H22   H     H_    0.989030 0.827756 0.912888 0.212437
H23   H     H_    0.964048 0.665093 0.927261 0.244179
O10   O     O_3   0.637772 0.874601 0.802175 -0.550606
C33   C     C_3   0.705061 0.868659 0.703710 0.130176
H24   H     H_    0.718454 0.961943 0.659468 0.136824
H25   H     H_    0.690130 0.802660 0.618002 0.136437
C34   C     C_3   0.784481 0.821950 0.775178 -0.827315
H26   H     H_    0.775272 0.725482 0.812303 0.239167
H27   H     H_    0.838180 0.822725 0.699755 0.194697
H28   H     H_    0.799785 0.882359 0.865444 0.251579
H29   H     H_    0.664998 0.571213 0.866685 0.247772
O11   O     O_3   0.665873 0.604178 0.127413 -0.505797
C35   C     C_3   0.752637 0.629846 0.139524 0.107426
H30   H     H_    0.784852 0.624589 0.035799 0.123561
H31   H     H_    0.783590 0.563407 0.212152 0.124257
C36   C     C_3   0.763127 0.760223 0.197482 -0.775554
H32   H     H_    0.734402 0.766531 0.303748 0.237810
H33   H     H_    0.831146 0.782900 0.204156 0.176916
H34   H     H_    0.731958 0.828668 0.127708 0.269592
O12   O     O_3   0.920360 0.275387 0.494262 -0.568536
C37   C     C_3   0.915928 0.175849 0.398418 0.072271
H35   H     H_    0.979033 0.154973 0.351884 0.141006
H36   H     H_    0.870576 0.197719 0.313482 0.131434
C38   C     C_3   0.884860 0.060699 0.474604 -0.807289
H37   H     H_    0.820559 0.077910 0.517434 0.242327
H38   H     H_    0.882724 0.981062 0.400989 0.194668
H39   H     H_    0.927790 0.037065 0.561939 0.245339
O13   O     O_3   0.083308 0.728648 0.460684 -0.581228
C39   C     C_3   0.081852 0.818065 0.352544 0.051020
H40   H     H_    0.016496 0.834361 0.314827 0.142230
H41   H     H_    0.122803 0.788134 0.263341 0.141585
C40   C     C_3   0.115634 0.939927 0.408393 -0.813453
H42   H     H_    0.181754 0.927256 0.443226 0.250215
H43   H     H_    0.113972 0.011584 0.324935 0.195482
H44   H     H_    0.076525 0.972061 0.498437 0.243699

loop_
_geom_bond_atom_site_label_1
_geom_bond_atom_site_label_2
_ccdc_geom_bond_type
C23   O6    A    
C37   H35   S    
C18   C21   A    
C34   H26   S    
C19   C20   A    
Cu2   O6    S    
Cu1   N2    S    
C3    C6    S    
C5    O13   S    
C39   C40   S    
C7    C8    T    
C26   H10   S    
C18   C24   S    
C24   H13   S    
C3    C28   S    
C26   O9    S    
O10   C33   S    
C27   H15   S    
C15   C16   S    
C40   H42   S    
C17   H7    S    
Cu1   O7    S    
C1    O1    A    
C31   H20   S    
C22   H12   S    
C39   H40   S    
C16   C17   S    
C32   H22   S    
C33   H24   S    
C25   O8    A    
C9    C10   A    
C13   H5    S    
C2    H2    S    
C4    H3    S    
C7    C30   S    
C21   C22   S    
C27   C30   S    
C34   H27   S    
C5    H17   S    
O9    C31   S    
Cu2   O2    S    
C18   N1    A    
C25   C29   S    
C1    C10   S    
C35   H31   S    
O12   C37   S    
C4    H18   S    
C17   H8    S    
C11   H4    S    
C14   C23   S    
C1    O2    A    
Cu2   N1    S    
C31   H19   S    
C38   H38   S    
Cu1   Cu2   S    
C8    C12   S    
C32   H23   S    
C33   C34   S    
C2    C26   S    
Cu1   O1    S    
C12   O4    A    
C2    H1    S    
C9    C17   S    
C36   H32   S    
C40   H43   S    
C37   H36   S    
C28   O12   S    
C34   H28   S    
C22   C24   S    
Cu2   O8    S    
C3    C4    S    
C40   H44   S    
C20   H11   S    
C27   H14   S    
C38   H39   S    
C5    C30   S    
C24   O11   S    
C23   O5    A    
C28   H16   S    
C31   C32   S    
O11   C35   S    
C16   O10   S    
C22   H29   S    
C4    C5    S    
C35   C36   S    
C39   H41   S    
C26   C30   S    
C36   H34   S    
C36   H33   S    
Cu1   O5    S    
C2    C3    S    
C9    C15   A    
C20   N2    A    
C11   C13   A    
C38   H37   S    
O13   C39   S    
C12   O3    A    
C10   C11   A    
C35   H30   S    
C19   N1    A    
C6    C29   T    
C32   H21   S    
C37   C38   S    
C27   C28   S    
C14   C15   A    
C33   H25   S    
C25   O7    A    
Cu1   O3    S    
C13   C14   A    
Cu2   O4    S    
C21   N2    A    
C19   H9    S    
C16   H6    S    
