data_mof_unit_pretest_468.cif
_audit_creation_date              2012-12-11T15:37:25-0500
_audit_creation_method            fapswitch 2.2
_symmetry_space_group_name_H-M    P1
_symmetry_Int_Tables_number       1
_space_group_crystal_system       triclinic
_cell_length_a                    17.6126
_cell_length_b                    24.400497
_cell_length_c                    14.843696
_cell_angle_alpha                 89.881646
_cell_angle_beta                  125.642254
_cell_angle_gamma                 90.228989
_cell_volume                      5184.12656048

loop_
_atom_site_label
_atom_site_type_symbol
_atom_type_description
_atom_site_fract_x
_atom_site_fract_y
_atom_site_fract_z
_atom_type_partial_charge
C1    C     C_R   0.849661 0.651907 0.909197 -0.131258
C2    C     C_3   0.588867 0.504062 0.571510 -0.222555
C3    C     C_3   0.032231 0.007428 0.453297 -0.044424
C4    C     C_3   0.785828 0.367660 0.681297 0.149820
C5    C     C_3   0.769198 0.343637 0.576168 -0.296375
C6    C     C_3   0.843254 0.301277 0.602802 -1.025606
C7    C     C_3   0.310378 0.629716 0.390467 0.235682
C8    C     C_3   0.263195 0.685847 0.361315 -0.330477
C9    C     C_3   0.331208 0.731780 0.383588 -1.002675
C10   C     C_3   0.202844 0.386104 0.363854 0.179880
C11   C     C_3   0.211893 0.420289 0.456969 -0.290573
C12   C     C_3   0.172267 0.390383 0.511622 -1.010276
C13   C     C_3   0.903972 0.003540 0.443900 -0.207230
C14   C     C_3   0.716409 0.596314 0.549336 0.260259
C15   C     C_3   0.731539 0.652733 0.517327 -0.299705
C16   C     C_3   0.694074 0.654742 0.395176 -1.003194
C17   C     C_3   0.271402 0.875386 0.645630 0.112700
C18   C     C_3   0.246932 0.890991 0.531555 -0.270357
C19   C     C_3   0.281239 0.847901 0.488755 -1.032550
C20   C     C_3   0.760736 0.101896 0.434015 0.267906
C21   C     C_3   0.724269 0.157536 0.439633 -0.303676
C22   C     C_3   0.724484 0.162114 0.542271 -1.002594
C23   C     C_3   0.706359 0.876039 0.343786 0.093929
C24   C     C_3   0.087095 0.001564 0.579689 -0.279910
C25   C     C_3   0.699459 0.894447 0.437674 -0.278356
C26   C     C_3   0.641801 0.854351 0.454274 -1.010933
C27   C     C_3   0.187329 0.128162 0.603967 0.248877
C28   C     C_3   0.219137 0.178090 0.571665 -0.329515
C29   C     C_3   0.154588 0.226861 0.541916 -1.008846
C30   C     C_3   0.508122 0.401859 0.690663 0.265881
C31   C     C_3   0.517499 0.404185 0.799712 -0.276326
C32   C     C_3   0.450324 0.364317 0.799407 -1.001100
C33   C     C_3   0.391270 0.534109 0.226106 0.188215
C34   C     C_3   0.424216 0.551972 0.155239 -0.245016
C35   C     C_R   0.680309 0.298555 0.896532 -0.179138
C36   C     C_3   0.367575 0.523886 0.042165 -0.964923
C37   C     C_3   0.502764 0.358184 0.444558 0.229770
C38   C     C_3   0.456908 0.339703 0.324967 -0.260790
C39   C     C_3   0.523138 0.305627 0.313121 -1.020945
C40   C     C_3   0.581300 0.619890 0.677319 0.258208
C41   C     C_3   0.532906 0.669403 0.686272 -0.338343
C42   C     C_3   0.579362 0.685799 0.806951 -0.967618
C43   C     C_3   0.986820 0.870772 0.614131 0.228855
C44   C     C_3   0.005841 0.851318 0.723545 -0.234565
C45   C     C_3   0.934647 0.808324 0.704609 -1.041802
C46   C     C_R   0.331698 0.691962 0.101058 -0.193066
C47   C     C_3   0.909880 0.100846 0.293734 0.258923
C48   C     C_3   0.963380 0.142764 0.273827 -0.324775
C49   C     C_3   0.928132 0.143607 0.152436 -0.951111
C50   C     C_3   0.974561 0.872081 0.384972 0.210756
C51   C     C_3   0.986034 0.850840 0.296853 -0.252598
C52   C     C_3   0.022992 0.792231 0.322306 -1.050298
C53   C     C_3   0.100955 0.076254 0.764429 0.189050
C54   C     C_3   0.077997 0.116275 0.824365 -0.236998
C55   C     C_3   0.139384 0.106333 0.949322 -0.986999
C56   C     C_R   0.268127 0.275461 0.081199 -0.176715
C57   C     C_R   0.808487 0.770788 0.924105 -0.188667
C58   C     C_R   0.287517 0.733965 0.901621 -0.166418
C59   C     C_R   0.705442 0.267201 0.092679 -0.162501
C60   C     C_R   0.776878 0.777645 0.087518 -0.183846
C61   C     C_R   0.188104 0.374544 0.091499 -0.168420
C62   C     C_R   0.310089 0.270892 0.926714 -0.178921
C63   C     C_R   0.238668 0.689100 0.900501 -0.150645
C64   C     C_R   0.758384 0.309858 0.094597 -0.160707
C65   C     C_R   0.829786 0.736020 0.091452 -0.152682
C66   C     C_R   0.258690 0.314621 0.923704 -0.172235
C67   C     C_R   0.627178 0.256902 0.894435 -0.171976
C68   C     C_R   0.380111 0.736741 0.102233 -0.161262
C69   C     C_R   0.320120 0.233101 0.085541 -0.182270
C70   C     C_R   0.755532 0.813644 0.920861 -0.154475
C71   C     C_R   0.254707 0.671290 0.999742 0.147841
C72   C     C_R   0.188421 0.625687 0.091368 -0.158128
C73   C     C_R   0.750364 0.322798 0.997723 0.133245
C74   C     C_R   0.843918 0.731763 0.008833 0.140050
C75   C     C_R   0.237869 0.316399 0.001133 0.149420
C76   C     C_R   0.645574 0.237772 0.993857 0.151016
C77   C     C_R   0.352138 0.761092 0.002133 0.139996
C78   C     C_R   0.339871 0.230329 0.007659 0.146640
C79   C     C_R   0.739322 0.816375 0.002312 0.132458
C80   C     C_R   0.888583 0.452435 0.459875 -0.134010
C81   C     C_R   0.899280 0.551833 0.374775 -0.155522
C82   C     C_R   0.892024 0.452692 0.369221 -0.148980
C83   C     C_R   0.810407 0.376560 0.909901 -0.183248
C84   C     C_R   0.895873 0.551632 0.465284 -0.178444
C85   C     C_R   0.411737 0.949944 0.473015 -0.163994
C86   C     C_R   0.390188 0.048393 0.365380 -0.161471
C87   C     C_R   0.401342 0.949476 0.373807 -0.150883
C88   C     C_R   0.396747 0.048754 0.463068 -0.127821
C89   C     C_R   0.909490 0.502115 0.335991 0.142187
C90   C     C_R   0.901502 0.501700 0.515658 0.149729
C91   C     C_R   0.403496 0.999087 0.328036 0.139380
C92   C     C_R   0.416330 0.999799 0.522508 0.149516
C93   C     C_R   0.911104 0.366419 0.092767 -0.125421
C94   C     C_R   0.348832 0.151576 0.909292 -0.148571
C95   C     C_R   0.094229 0.625597 0.905458 -0.117337
C96   C     C_R   0.091976 0.372611 0.904892 -0.114664
C97   C     C_R   0.944890 0.650250 0.094299 -0.144963
C98   C     C_R   0.443537 0.849066 0.093279 -0.151784
C99   C     C_R   0.555794 0.150177 0.905403 -0.111854
C100  C     C_R   0.591351 0.871374 0.905284 -0.123626
C101  C     C_R   0.443095 0.149756 0.094416 -0.150634
C102  C     C_R   0.983578 0.546979 0.251049 -0.070182
C103  C     C_R   0.953261 0.454855 0.695476 -0.165349
C104  C     C_R   0.951179 0.546355 0.695608 -0.132368
C105  C     C_R   0.687665 0.873858 0.091895 -0.151386
C106  C     C_R   0.987048 0.455231 0.257344 -0.143686
C107  C     C_R   0.479447 0.046035 0.246816 -0.133753
C108  C     C_R   0.460903 0.954425 0.700116 -0.180048
C109  C     C_R   0.458411 0.046365 0.698854 -0.048123
C110  C     C_R   0.476695 0.953932 0.243069 -0.131982
C111  C     C_R   0.739952 0.456411 0.696527 0.555833
C112  C     C_R   0.254708 0.545366 0.305784 0.416672
C113  C     C_R   0.254865 0.454711 0.303444 0.472045
C114  C     C_R   0.743936 0.546795 0.699687 0.409991
C115  C     C_R   0.239891 0.955656 0.700118 0.558728
C116  C     C_R   0.649800 0.152135 0.090722 -0.136767
C117  C     C_R   0.753037 0.046391 0.303498 0.420869
C118  C     C_R   0.754594 0.956780 0.307872 0.558587
C119  C     C_R   0.242998 0.046672 0.699021 0.386599
C120  C     C_R   0.880969 0.681164 0.003551 0.020483
C121  C     C_R   0.179542 0.357991 0.997500 0.031605
C122  C     C_R   0.183469 0.639636 0.997935 0.035303
C123  C     C_R   0.820208 0.356153 0.001981 0.059927
C124  C     C_R   0.378664 0.180363 0.003463 0.039671
C125  C     C_R   0.678790 0.856617 0.998128 0.048743
C126  C     C_R   0.618179 0.182281 0.996644 0.013697
C127  C     C_R   0.347538 0.848571 0.909243 -0.093209
C128  C     C_R   0.378904 0.817642 0.002036 0.031954
C129  C     C_R   0.954965 0.501464 0.279693 0.035995
C130  C     C_R   0.935922 0.500945 0.631748 0.048305
C131  C     C_R   0.445795 0.999857 0.268035 0.052072
C132  C     C_R   0.448405 0.000459 0.637879 0.034897
C133  C     C_R   0.689201 0.502627 0.642591 -0.098656
C134  C     C_R   0.304813 0.499035 0.365054 -0.045664
C135  C     C_R   0.188103 0.001148 0.645104 -0.047386
C136  C     C_R   0.803769 0.002439 0.367093 -0.138460
C137  C     C_3   0.528420 0.469393 0.594895 0.439962
C138  C     C_3   0.405912 0.497054 0.440975 -0.261348
C139  C     C_3   0.467343 0.531077 0.418337 0.403067
C140  C     C_3   0.473837 0.447822 0.475969 0.423461
C141  C     C_3   0.521936 0.552535 0.538274 0.416243
C142  C     C_3   0.021197 0.954883 0.567444 0.406544
C143  C     C_3   0.968797 0.049583 0.456208 0.432491
C144  C     C_3   0.967550 0.960688 0.440990 0.419809
C145  C     C_3   0.023911 0.043805 0.582673 0.420996
C146  C     C_3   0.460893 0.518077 0.560967 -0.066962
C147  C     C_3   0.534521 0.482346 0.452277 -0.070982
C148  C     C_3   0.958065 0.997907 0.570301 -0.064240
H1    H     H_    0.807351 0.666667 0.824827 0.138768
H2    H     H_    0.065845 0.632080 0.819380 0.093965
H3    H     H_    0.291249 0.189840 0.641838 0.199228
H4    H     H_    0.219952 0.167491 0.499415 0.211758
H5    H     H_    0.080904 0.215257 0.477638 0.278940
H6    H     H_    0.174456 0.260498 0.508997 0.265702
H7    H     H_    0.160805 0.241776 0.616642 0.272104
H8    H     H_    0.526220 0.360108 0.679314 0.106864
H9    H     H_    0.434070 0.409414 0.621708 0.126916
H10   H     H_    0.590276 0.394435 0.869801 0.212214
H11   H     H_    0.502430 0.446315 0.813157 0.235322
H12   H     H_    0.376963 0.376613 0.735545 0.276603
H13   H     H_    0.061915 0.362762 0.819386 0.095132
H14   H     H_    0.462544 0.364809 0.881724 0.281362
H15   H     H_    0.461109 0.321987 0.781791 0.263108
H16   H     H_    0.315783 0.542773 0.178694 0.094218
H17   H     H_    0.399150 0.488836 0.237893 0.113173
H18   H     H_    0.417121 0.596865 0.143122 0.204760
H19   H     H_    0.499143 0.542200 0.197953 0.234233
H20   H     H_    0.375189 0.478674 0.052262 0.273343
H21   H     H_    0.393192 0.537566 0.992874 0.279623
H22   H     H_    0.292510 0.534764 0.996251 0.263711
H23   H     H_    0.515220 0.321559 0.496032 0.096397
H24   H     H_    0.990447 0.664329 0.179203 0.104677
H25   H     H_    0.571926 0.376298 0.479050 0.172543
H26   H     H_    0.394370 0.314700 0.298395 0.199259
H27   H     H_    0.434004 0.376103 0.269883 0.219007
H28   H     H_    0.584238 0.330644 0.334295 0.290266
H29   H     H_    0.486568 0.291826 0.226024 0.285123
H30   H     H_    0.547344 0.269021 0.367747 0.257663
H31   H     H_    0.655307 0.631438 0.721082 0.153339
H32   H     H_    0.579778 0.584553 0.723733 0.111120
H33   H     H_    0.536288 0.704636 0.641153 0.208348
H34   H     H_    0.458728 0.659886 0.649157 0.222820
H35   H     H_    0.490745 0.834772 0.177417 0.082610
H36   H     H_    0.574275 0.651784 0.853062 0.281676
H37   H     H_    0.543969 0.722400 0.810630 0.268011
H38   H     H_    0.653973 0.696001 0.847238 0.269716
H39   H     H_    0.991083 0.834385 0.572734 0.087191
H40   H     H_    0.915143 0.887612 0.559857 0.134746
H41   H     H_    0.076979 0.833236 0.776214 0.208620
H42   H     H_    0.003494 0.886736 0.768693 0.229506
H43   H     H_    0.863200 0.825844 0.655184 0.281249
H44   H     H_    0.951496 0.794544 0.785713 0.277855
H45   H     H_    0.936482 0.772213 0.660453 0.261740
H46   H     H_    0.508828 0.163217 0.820156 0.084169
H47   H     H_    0.835782 0.113528 0.242101 0.142820
H48   H     H_    0.911864 0.059702 0.262972 0.112190
H49   H     H_    0.953862 0.184196 0.296715 0.202560
H50   H     H_    0.039070 0.133043 0.326510 0.228667
H51   H     H_    0.937946 0.102840 0.127487 0.285923
H52   H     H_    0.968017 0.174594 0.140722 0.267700
H53   H     H_    0.852871 0.154616 0.098505 0.263673
H54   H     H_    0.928505 0.843162 0.390294 0.122685
H55   H     H_    0.044386 0.872899 0.465765 0.131229
H56   H     H_    0.917695 0.852033 0.214453 0.221251
H57   H     H_    0.561087 0.860773 0.820070 0.092958
H58   H     H_    0.035002 0.877754 0.292911 0.223470
H59   H     H_    0.090144 0.789923 0.405731 0.271082
H60   H     H_    0.034097 0.778367 0.259596 0.283902
H61   H     H_    0.972193 0.764294 0.320435 0.263349
H62   H     H_    0.176235 0.080681 0.801312 0.087475
H63   H     H_    0.088800 0.033581 0.780087 0.136794
H64   H     H_    0.089380 0.158967 0.808134 0.204292
H65   H     H_    0.003344 0.111632 0.791999 0.221268
H66   H     H_    0.128236 0.064177 0.967982 0.280528
H67   H     H_    0.121134 0.136121 0.990290 0.271493
H68   H     H_    0.487326 0.163766 0.179429 0.094728
H69   H     H_    0.214301 0.111871 0.983566 0.266898
H70   H     H_    0.973479 0.589462 0.260651 0.085917
H71   H     H_    0.939954 0.413061 0.667545 0.099042
H72   H     H_    0.932649 0.588238 0.667992 0.089558
H73   H     H_    0.246229 0.367773 0.176292 0.157502
H74   H     H_    0.985624 0.414306 0.282072 0.094027
H75   H     H_    0.470630 0.088252 0.259891 0.095130
H76   H     H_    0.448484 0.912410 0.673490 0.100086
H77   H     H_    0.442319 0.088356 0.670815 0.094990
H78   H     H_    0.462919 0.911689 0.249216 0.106340
H79   H     H_    0.670993 0.307660 0.819473 0.113616
H80   H     H_    0.350718 0.677111 0.180176 0.131299
H81   H     H_    0.248582 0.274817 0.138182 0.117732
H82   H     H_    0.818693 0.766853 0.859163 0.125076
H83   H     H_    0.268285 0.749493 0.822759 0.108262
H84   H     H_    0.246127 0.630101 0.175975 0.109941
H85   H     H_    0.717490 0.254827 0.169982 0.112543
H86   H     H_    0.762295 0.777818 0.149025 0.116354
H87   H     H_    0.324593 0.267926 0.865280 0.123548
H88   H     H_    0.183284 0.671937 0.821398 0.111873
H89   H     H_    0.809720 0.329785 0.172582 0.107984
H90   H     H_    0.853768 0.704968 0.154872 0.113472
H91   H     H_    0.233930 0.346039 0.860858 0.125476
H92   H     H_    0.579748 0.236270 0.816247 0.104884
H93   H     H_    0.432905 0.754798 0.181567 0.115168
H94   H     H_    0.339955 0.200810 0.145695 0.122411
H95   H     H_    0.746994 0.378734 0.828210 0.168458
H96   H     H_    0.725642 0.843458 0.854449 0.126083
H97   H     H_    0.885462 0.413254 0.491570 0.114933
H98   H     H_    0.904674 0.590995 0.344799 0.105427
H99   H     H_    0.890945 0.413753 0.333875 0.102499
H100  H     H_    0.899261 0.590691 0.501556 0.110752
H101  H     H_    0.424926 0.911210 0.514297 0.124481
H102  H     H_    0.384887 0.087202 0.326805 0.107086
H103  H     H_    0.404970 0.910226 0.343067 0.112047
H104  H     H_    0.394340 0.087798 0.495505 0.106537
H105  H     H_    0.785719 0.332760 0.729236 0.122202
H106  H     H_    0.307618 0.166777 0.825605 0.107556
H107  H     H_    0.855610 0.386334 0.731257 0.104595
H108  H     H_    0.700233 0.322922 0.527434 0.211203
H109  H     H_    0.769444 0.377030 0.525452 0.225879
H110  H     H_    0.914109 0.319725 0.652287 0.258470
H111  H     H_    0.829039 0.285196 0.524416 0.276771
H112  H     H_    0.841611 0.266603 0.650202 0.279022
H113  H     H_    0.350053 0.626448 0.354157 0.141283
H114  H     H_    0.361285 0.627013 0.480992 0.163341
H115  H     H_    0.203478 0.686707 0.272241 0.210197
H116  H     H_    0.235270 0.693127 0.410823 0.212810
H117  H     H_    0.746122 0.867904 0.176877 0.168058
H118  H     H_    0.385924 0.735862 0.473951 0.270335
H119  H     H_    0.292700 0.770996 0.351583 0.280171
H120  H     H_    0.364741 0.723636 0.340710 0.269860
H121  H     H_    0.217361 0.342570 0.390731 0.138884
H122  H     H_    0.130737 0.386509 0.287187 0.082740
H123  H     H_    0.286104 0.429491 0.521582 0.233764
H124  H     H_    0.175754 0.460110 0.423557 0.213874
H125  H     H_    0.100484 0.375197 0.448850 0.259136
H126  H     H_    0.170485 0.418701 0.568826 0.287510
H127  H     H_    0.217461 0.355077 0.560385 0.264327
H128  H     H_    0.689931 0.166528 0.175245 0.146806
H129  H     H_    0.641456 0.585758 0.490874 0.186291
H130  H     H_    0.758467 0.565623 0.540880 0.099754
H131  H     H_    0.694910 0.684203 0.532837 0.222857
H132  H     H_    0.807377 0.662674 0.569376 0.183776
H133  H     H_    0.728909 0.623404 0.376950 0.275261
H134  H     H_    0.707821 0.695859 0.375226 0.260750
H135  H     H_    0.617460 0.647187 0.341779 0.285244
H136  H     H_    0.258820 0.830670 0.644874 0.139045
H137  H     H_    0.346565 0.881944 0.712218 0.082298
H138  H     H_    0.170551 0.894590 0.471472 0.234194
H139  H     H_    0.305164 0.834503 0.825371 0.117705
H140  H     H_    0.277541 0.931517 0.535989 0.212497
H141  H     H_    0.357051 0.840270 0.549871 0.256273
H142  H     H_    0.267629 0.862051 0.409457 0.286412
H143  H     H_    0.243885 0.808554 0.473664 0.277123
H144  H     H_    0.834248 0.097438 0.507583 0.178486
H145  H     H_    0.716378 0.069368 0.435001 0.093313
H146  H     H_    0.768725 0.190583 0.441416 0.216353
H147  H     H_    0.651724 0.163159 0.364452 0.190935
H148  H     H_    0.679383 0.129790 0.541249 0.273420
H149  H     H_    0.696848 0.202772 0.543223 0.267637
H150  H     H_    0.945134 0.348824 0.174230 0.079513
H151  H     H_    0.796731 0.157872 0.618643 0.279206
H152  H     H_    0.723765 0.831706 0.354647 0.139467
H153  H     H_    0.638330 0.879683 0.262448 0.107290
H154  H     H_    0.770057 0.896887 0.516386 0.232004
H155  H     H_    0.667992 0.935900 0.419443 0.202232
H156  H     H_    0.571541 0.848185 0.376063 0.254516
H157  H     H_    0.633627 0.870699 0.517927 0.278684
H158  H     H_    0.677638 0.814099 0.483064 0.266387
H159  H     H_    0.176998 0.140908 0.667827 0.126643
H160  H     H_    0.120647 0.113541 0.529113 0.170978
I1    I     I_    0.394479 0.538147 0.640809 -0.481083
I2    I     I_    0.607561 0.463223 0.379296 -0.537088
I3    I     I_    0.891995 0.994430 0.654635 -0.528465
I4    I     I_    0.097587 0.010280 0.367926 -0.464397
N1    N     N_R   0.892620 0.603790 0.941800 -0.033680
N2    N     N_R   0.047790 0.602400 0.942090 -0.037060
N3    N     N_R   0.047790 0.397600 0.942090 -0.045705
N4    N     N_R   0.952210 0.602400 0.057910 -0.038179
N5    N     N_R   0.452210 0.897600 0.057910 -0.041400
N6    N     N_R   0.547790 0.102400 0.942090 -0.037873
N7    N     N_R   0.547790 0.897600 0.942090 -0.042773
N8    N     N_R   0.452210 0.102400 0.057910 -0.033767
N9    N     N_R   0.026300 0.529110 0.206760 -0.031323
N10   N     N_R   0.973700 0.470890 0.793240 -0.050599
N11   N     N_R   0.973700 0.529110 0.793240 -0.037715
N12   N     N_R   0.107380 0.396210 0.058200 -0.039639
N13   N     N_R   0.026300 0.470890 0.206760 -0.057923
N14   N     N_R   0.526300 0.029110 0.206760 -0.048511
N15   N     N_R   0.473700 0.970890 0.793240 -0.047293
N16   N     N_R   0.473700 0.029110 0.793240 -0.036929
N17   N     N_R   0.526300 0.970890 0.206760 -0.062920
N18   N     N_R   0.818530 0.472270 0.792960 -0.146851
N19   N     N_R   0.181470 0.527730 0.207040 -0.123273
N20   N     N_R   0.181470 0.472270 0.207040 -0.143779
N21   N     N_R   0.818530 0.527730 0.792960 -0.113042
N22   N     N_R   0.318530 0.972270 0.792960 -0.142410
N23   N     N_R   0.107380 0.603790 0.058200 -0.037874
N24   N     N_R   0.681470 0.027730 0.207040 -0.122313
N25   N     N_R   0.681470 0.972270 0.207040 -0.140371
N26   N     N_R   0.318530 0.027730 0.792960 -0.118273
N27   N     N_R   0.892620 0.396210 0.941800 -0.050911
N28   N     N_R   0.392620 0.103790 0.941800 -0.040860
N29   N     N_R   0.607380 0.896210 0.058200 -0.047613
N30   N     N_R   0.607380 0.103790 0.058200 -0.033716
N31   N     N_R   0.392620 0.896210 0.941800 -0.043150
N32   N     N_R   0.952210 0.397600 0.057910 -0.038330
Ni1   Ni    Ni4+2 0.934150 0.565840 0.869060 0.232529
Ni2   Ni    Ni4+2 0.065850 0.434160 0.130940 0.203533
Ni3   Ni    Ni4+2 0.065850 0.565840 0.130940 0.242944
Ni4   Ni    Ni4+2 0.934150 0.434160 0.869060 0.195030
Ni5   Ni    Ni4+2 0.434150 0.065840 0.869060 0.233572
Ni6   Ni    Ni4+2 0.565850 0.934160 0.130940 0.193706
Ni7   Ni    Ni4+2 0.565850 0.065840 0.130940 0.220407
Ni8   Ni    Ni4+2 0.434150 0.934160 0.869060 0.202229
O1    O     O_3   0.711956 0.403609 0.653159 -0.673444
O2    O     O_3   0.438961 0.564830 0.326019 -0.661757
O3    O     O_3   0.441283 0.393139 0.448448 -0.623850
O4    O     O_3   0.543666 0.608919 0.564502 -0.641791
O5    O     O_3   0.057245 0.908240 0.637024 -0.611799
O6    O     O_3   0.943075 0.102243 0.406627 -0.622587
O7    O     O_3   0.930055 0.923409 0.351619 -0.622929
O8    O     O_3   0.048208 0.090479 0.650781 -0.651147
O9    O     O_3   0.242202 0.588582 0.356029 -0.641028
O10   O     O_3   0.268450 0.401553 0.342614 -0.624180
O11   O     O_3   0.743105 0.598457 0.659457 -0.682325
O12   O     O_3   0.212832 0.901876 0.667761 -0.624894
O13   O     O_3   0.757649 0.099988 0.336920 -0.663621
O14   O     O_3   0.778972 0.903663 0.348019 -0.667299
O15   O     O_3   0.255318 0.087070 0.643041 -0.656119
O16   O     O_3   0.571078 0.439669 0.695066 -0.653198

loop_
_geom_bond_atom_site_label_1
_geom_bond_atom_site_label_2
_ccdc_geom_bond_type
C60   C79   A    
C87   C91   A    
C11   H124  S    
C71   C122  S    
C22   H151  S    
C39   H30   S    
C55   H66   S    
C51   H58   S    
N27   Ni4   S    
C98   N5    A    
C35   H79   S    
C4    H105  S    
C111  N18   A    
C47   H47   S    
C15   H132  S    
C104  N11   A    
C94   H106  S    
C143  O6    S    
C5    C6    S    
C108  H76   S    
C86   C88   A    
C69   H94   S    
C91   C131  S    
C32   H15   S    
C67   H92   S    
C36   H20   S    
C89   C129  S    
C12   H127  S    
C7    H114  S    
C98   H35   S    
C116  H128  S    
C44   H42   S    
C40   H32   S    
C45   H43   S    
C8    H116  S    
C29   H7    S    
C14   H130  S    
C30   H8    S    
C21   C22   S    
C20   H145  S    
C118  N25   A    
C50   H54   S    
C137  C140  S    
C51   C52   S    
C127  H139  S    
C137  C146  S    
C3    C143  S    
N24   N25   A    
C140  O3    S    
C100  C125  A    
C6    H111  S    
C1    C120  A    
C43   C44   S    
C37   C38   S    
C23   H153  S    
C43   H39   S    
N31   Ni8   S    
C118  O14   S    
C109  C132  A    
C110  C131  A    
C96   N3    A    
C138  C140  S    
C95   C122  A    
C63   C71   A    
C60   C65   A    
C142  C144  S    
C41   H34   S    
C22   H149  S    
C34   H19   S    
C145  C148  S    
C118  C136  A    
C51   H56   S    
C5    H108  S    
C33   O2    S    
C68   C77   A    
C115  O12   S    
C70   C79   A    
C93   C123  A    
N8    Ni7   S    
C112  C134  A    
C4    C5    S    
C12   H125  S    
C7    O9    S    
C18   H138  S    
C74   C120  S    
C36   H22   S    
C105  C125  A    
C2    C147  S    
C57   H82   S    
N7    Ni8   S    
C147  I2    S    
C56   H81   S    
N3    Ni4   S    
C103  C130  A    
C18   H140  S    
C20   C21   S    
C23   H152  S    
N20   Ni2   S    
C43   O5    S    
C85   H101  S    
C114  O11   S    
C3    I4    S    
C114  N21   A    
C7    C8    S    
C53   C54   S    
C87   H103  S    
C9    H119  S    
C82   C89   A    
C96   C121  A    
C92   C132  S    
C24   C145  S    
C55   H67   S    
C38   C39   S    
C38   H26   S    
C105  H117  S    
C111  O1    S    
N11   Ni1   S    
C27   H160  S    
C116  N30   A    
C13   C144  S    
N18   Ni4   S    
N8    N28   A    
C109  N16   A    
C58   C77   A    
C63   H88   S    
C17   H136  S    
C53   H62   S    
C73   C123  S    
C19   H142  S    
C32   H14   S    
C64   C73   A    
C101  N8    A    
C54   H64   S    
N27   N32   A    
C79   C125  S    
C56   C75   A    
N7    N29   A    
C61   N12   A    
C3    C24   S    
C59   H85   S    
C84   C90   A    
C110  N17   A    
C140  C147  S    
C85   C92   A    
C99   C126  A    
C49   H53   S    
C101  C124  A    
C62   C66   A    
C20   H144  S    
C80   C82   A    
C110  H78   S    
N22   Ni8   S    
C119  N26   A    
C42   H36   S    
C25   C26   S    
C25   H154  S    
C65   C74   A    
C48   H50   S    
C46   C68   A    
N3    N12   A    
N29   Ni6   S    
C31   C32   S    
C35   C67   A    
C68   H93   S    
C137  O16   S    
C5    H109  S    
C17   C18   S    
C95   H2    S    
C127  N31   A    
C42   H37   S    
C26   H158  S    
C10   H122  S    
C65   H90   S    
N13   Ni2   S    
C49   H51   S    
N4    Ni3   S    
N9    Ni3   S    
C54   C55   S    
C62   H87   S    
C72   H84   S    
C11   H123  S    
C81   H98   S    
C62   C78   A    
C83   N27   A    
C95   N2    A    
C37   H23   S    
C100  H57   S    
C94   N28   A    
C88   H104  S    
C84   H100  S    
C15   H131  S    
N14   Ni7   S    
C50   O7    S    
C139  C141  S    
C115  C135  A    
C138  C146  S    
C7    H113  S    
C34   C36   S    
C108  C132  A    
C100  N7    A    
C10   C11   S    
C102  H70   S    
C28   H3    S    
C56   C69   A    
N6    Ni5   S    
C14   C15   S    
C19   H143  S    
C59   C76   A    
C29   H6    S    
C30   H9    S    
C103  N10   A    
C54   H65   S    
C52   H59   S    
C76   C126  S    
C41   C42   S    
C21   H147  S    
C22   H148  S    
C55   H69   S    
C50   H55   S    
N6    N30   A    
N21   Ni1   S    
C97   H24   S    
C28   C29   S    
C86   C91   A    
C30   C31   S    
C83   H95   S    
C37   O3    S    
C6    H112  S    
C18   C19   S    
C16   H133  S    
C112  N19   A    
C24   C142  S    
N18   N21   A    
C97   N4    A    
N12   Ni2   S    
C1    H1    S    
C57   C70   A    
N23   Ni3   S    
C81   C89   A    
C98   C128  A    
N10   N11   A    
C104  C130  A    
C41   H33   S    
C75   C121  S    
C39   H29   S    
C145  O8    S    
C45   H45   S    
C33   H17   S    
C2    C133  S    
C20   O13   S    
C47   H48   S    
C60   H86   S    
C113  N20   A    
C12   H126  S    
N5    Ni6   S    
N10   Ni4   S    
C146  I1    S    
C119  C135  A    
C107  N14   A    
N19   N20   A    
C44   H41   S    
C40   H31   S    
N22   N26   A    
C45   H44   S    
C50   C51   S    
C36   H21   S    
C117  O13   S    
C8    H115  S    
C119  O15   S    
C46   C71   A    
N2    N23   A    
C148  I3    S    
C14   H129  S    
C48   C49   S    
C72   N23   A    
C113  C134  A    
C52   H61   S    
C93   H150  S    
C105  N29   A    
C53   O8    S    
C127  C128  A    
C44   C45   S    
C142  O5    S    
C2    C137  S    
C3    C144  S    
C9    H118  S    
C144  O7    S    
C6    H110  S    
C16   H135  S    
C27   O15   S    
N15   N16   A    
N25   Ni6   S    
C38   H27   S    
C43   H40   S    
C66   C75   A    
C27   H159  S    
N28   Ni5   S    
C13   C143  S    
N2    Ni1   S    
C61   H73   S    
C31   H10   S    
C138  C139  S    
C90   C130  S    
C19   H141  S    
C46   H80   S    
C83   C123  A    
C34   H18   S    
C117  C136  A    
C103  H71   S    
C86   H102  S    
C106  C129  A    
C1    N1    A    
C66   H91   S    
C102  C129  A    
C141  O4    S    
C99   H46   S    
C139  C147  S    
C59   C64   A    
N1    Ni1   S    
C82   H99   S    
C61   C121  A    
C14   O11   S    
C10   O10   S    
C101  H68   S    
C15   C16   S    
C96   H13   S    
C23   O14   S    
C104  H72   S    
C58   H83   S    
N5    N31   A    
C70   H96   S    
C88   C92   A    
C8    C9    S    
C40   O4    S    
C78   C124  S    
N19   Ni3   S    
C117  N24   A    
C42   H38   S    
N26   Ni5   S    
C116  C126  A    
C16   H134  S    
C69   C78   A    
N17   Ni6   S    
N14   N17   A    
C139  O2    S    
C107  H75   S    
C85   C87   A    
C9    H120  S    
C112  O9    S    
C102  N9    A    
C142  C148  S    
C33   H16   S    
C107  C131  A    
C109  H77   S    
C111  C133  A    
N1    N4    A    
N15   Ni8   S    
C10   H121  S    
N30   Ni7   S    
N24   Ni7   S    
C57   C74   A    
C99   N6    A    
C17   H137  S    
C47   C48   S    
C53   H63   S    
C108  N15   A    
C33   C34   S    
C64   H89   S    
C93   N32   A    
C77   C128  S    
N16   Ni5   S    
C141  C146  S    
C24   C135  S    
C40   C41   S    
N32   Ni2   S    
C28   H4    S    
C113  O10   S    
C13   C136  S    
C26   H157  S    
C81   C84   A    
C29   H5    S    
C115  N22   A    
C58   C63   A    
C143  C145  S    
C35   C73   A    
C72   C122  A    
C52   H60   S    
C21   H146  S    
C39   H28   S    
C134  C138  S    
C11   C12   S    
C25   H155  S    
C13   C148  S    
C26   H156  S    
C48   H49   S    
C97   C120  A    
C47   O6    S    
C4    O1    S    
C106  H74   S    
C106  N13   A    
N9    N13   A    
C114  C133  A    
C23   C25   S    
C80   C90   A    
C37   H25   S    
C17   O12   S    
C27   C28   S    
C2    C141  S    
C80   H97   S    
C67   C76   A    
C4    H107  S    
C31   H11   S    
C30   O16   S    
C32   H12   S    
C49   H52   S    
C94   C124  A    
