data_mof_unit_pretest_495.cif
_audit_creation_date              2012-12-10T18:31:12-0500
_audit_creation_method            fapswitch 2.2
_symmetry_space_group_name_H-M    P1
_symmetry_Int_Tables_number       1
_space_group_crystal_system       triclinic
_cell_length_a                    13.643948
_cell_length_b                    15.096504
_cell_length_c                    15.355298
_cell_angle_alpha                 98.577717
_cell_angle_beta                  90.435538
_cell_angle_gamma                 98.122378
_cell_volume                      3094.74229471

loop_
_atom_site_label
_atom_site_type_symbol
_atom_type_description
_atom_site_fract_x
_atom_site_fract_y
_atom_site_fract_z
_atom_type_partial_charge
C1    C     C_R   0.517657 0.556807 0.662079 0.817906
C2    C     C_R   0.357049 0.446663 0.934529 -0.297523
C3    C     C_R   0.580051 0.665531 0.030338 -0.026991
C4    C     C_R   0.315547 0.386725 0.989938 -0.017482
C5    C     C_R   0.356556 0.171209 0.641374 -0.089797
C6    C     C_R   0.654959 0.831593 0.368191 -0.134185
C7    C     C_R   0.370060 0.254433 0.608455 0.021381
C8    C     C_R   0.632582 0.745279 0.394110 0.054244
C9    C     C_R   0.495961 0.205667 0.514150 0.089626
C10   C     C_R   0.506656 0.795219 0.488090 0.106853
C11   C     C_R   0.471727 0.116982 0.534289 -0.109541
C12   C     C_R   0.477710 0.443743 0.338409 0.884397
C13   C     C_R   0.536821 0.884929 0.473158 0.055996
C14   C     C_R   0.418589 0.106244 0.610815 0.059139
C15   C     C_R   0.594025 0.897048 0.398580 -0.132589
C16   C     C_R   0.318912 0.513985 0.498163 0.854404
C17   C     C_R   0.681105 0.485841 0.501467 0.917720
C18   C     C_R   0.503936 0.040203 0.484953 -0.161322
C19   C     C_R   0.506193 0.961794 0.524719 0.010528
C20   C     C_R   0.487010 0.965223 0.616194 0.432978
C21   C     C_R   0.527566 0.037008 0.394848 0.466864
C22   C     C_R   0.438191 0.036701 0.658367 -0.077578
C23   C     C_R   0.488500 0.570227 0.904694 0.079829
C24   C     C_R   0.582256 0.970893 0.354470 -0.159199
C25   C     C_1   0.781006 0.474807 0.493428 -0.161290
C26   C     C_1   0.218687 0.523979 0.503435 -0.119373
C27   C     C_2   0.969334 0.463259 0.477042 0.419121
C28   C     C_2   0.030213 0.537006 0.514288 0.400777
C29   C     C_1   0.133686 0.531992 0.508900 -0.053016
C30   C     C_1   0.865799 0.466660 0.485188 -0.068677
C31   C     C_R   0.534100 0.591998 0.755649 -0.140165
C32   C     C_R   0.438730 0.413293 0.248029 -0.140194
C33   C     C_R   0.623918 0.687431 0.879525 -0.125240
C34   C     C_R   0.438201 0.460434 0.103844 0.072013
C35   C     C_R   0.308982 0.344659 0.139550 -0.104645
C36   C     C_R   0.612363 0.660829 0.788275 -0.074194
C37   C     C_R   0.346345 0.357362 0.226869 -0.069077
C38   C     C_R   0.472750 0.549435 0.813423 -0.240301
C39   C     C_R   0.485336 0.459278 0.184519 -0.205962
C40   C     C_3   0.063297 0.687074 0.590538 0.122641
C41   C     C_3   0.102087 0.677271 0.682239 -0.364662
C42   C     C_3   0.185044 0.753829 0.716057 -0.903326
C43   C     C_3   0.941358 0.324808 0.379450 0.132457
C44   C     C_3   0.887591 0.250584 0.427144 -0.382813
C45   C     C_R   0.563249 0.643184 0.938449 0.089959
C46   C     C_3   0.822763 0.178390 0.363101 -0.836133
C47   C     C_2   0.275101 0.151514 0.702851 0.517920
C48   C     C_2   0.747993 0.859027 0.321933 0.345449
C49   C     C_3   0.483504 0.862338 0.718125 0.021101
C50   C     C_3   0.522956 0.883504 0.813887 -0.277085
C51   C     C_3   0.451612 0.837058 0.874827 -0.916626
C52   C     C_3   0.393787 0.059966 0.315824 0.096292
C53   C     C_3   0.370427 0.098490 0.232847 -0.291460
C54   C     C_3   0.262885 0.068250 0.201510 -0.853766
C55   C     C_2   0.641344 0.749952 0.073817 0.369984
C56   C     C_R   0.354555 0.395056 0.076808 0.094102
C57   C     C_2   0.234467 0.314853 0.951538 0.384615
C58   C     C_2   0.283448 0.317566 0.294373 0.371568
C59   C     C_2   0.687550 0.700285 0.729686 0.404499
C60   C     C_2   0.427933 0.050830 0.755207 0.456631
C61   C     C_2   0.610006 0.971291 0.260909 0.440384
C62   C     C_2   0.413303 0.771735 0.532921 0.388271
C63   C     C_2   0.588536 0.228886 0.468006 0.572904
C64   C     C_2   0.693665 0.674679 0.364000 0.621484
C65   C     C_2   0.304066 0.322355 0.636132 0.400178
C66   C     C_R   0.438115 0.514896 0.962346 0.090325
C67   C     C_R   0.473228 0.525853 0.050270 0.071149
C68   C     C_R   0.537893 0.605086 0.084393 -0.297273
H1    H     H_    0.557340 0.498376 0.201058 0.204904
H2    H     H_    0.130798 0.611780 0.680258 0.219302
H3    H     H_    0.249065 0.751439 0.672044 0.267007
H4    H     H_    0.209987 0.746141 0.783179 0.261154
H5    H     H_    0.158687 0.820528 0.719113 0.292578
H6    H     H_    0.985747 0.292262 0.326815 0.208616
H7    H     H_    0.888184 0.358336 0.344903 0.130919
H8    H     H_    0.943111 0.218039 0.459574 0.261020
H9    H     H_    0.840445 0.280585 0.478866 0.222065
H10   H     H_    0.765948 0.209135 0.330422 0.305410
H11   H     H_    0.784633 0.125767 0.399463 0.253098
H12   H     H_    0.416787 0.495599 0.784437 0.139921
H13   H     H_    0.868760 0.145402 0.312138 0.271718
H14   H     H_    0.252338 0.205598 0.749533 0.083180
H15   H     H_    0.777121 0.930297 0.326055 0.100679
H16   H     H_    0.492852 0.790896 0.695692 0.157981
H17   H     H_    0.402670 0.865749 0.713305 0.124480
H18   H     H_    0.595934 0.859768 0.818113 0.269842
H19   H     H_    0.535178 0.957341 0.837335 0.249126
H20   H     H_    0.380234 0.864570 0.876063 0.259855
H21   H     H_    0.484155 0.849343 0.942768 0.306916
H22   H     H_    0.437254 0.762930 0.852066 0.264894
H23   H     H_    0.686043 0.737832 0.904052 0.229117
H24   H     H_    0.342746 0.081213 0.368591 0.160883
H25   H     H_    0.381390 0.984486 0.299455 0.127647
H26   H     H_    0.385057 0.173477 0.246552 0.246764
H27   H     H_    0.419899 0.075389 0.179590 0.252745
H28   H     H_    0.248563 0.993460 0.183290 0.256488
H29   H     H_    0.247833 0.099661 0.142754 0.294926
H30   H     H_    0.211920 0.089505 0.254120 0.290233
H31   H     H_    0.676186 0.751275 0.137764 0.143408
H32   H     H_    0.185569 0.327921 0.900287 0.077582
H33   H     H_    0.306678 0.326993 0.362770 0.134222
H34   H     H_    0.239379 0.301221 0.123449 0.223868
H35   H     H_    0.693979 0.668504 0.662361 0.102539
H36   H     H_    0.382756 0.001018 0.787262 0.084610
H37   H     H_    0.614994 0.908161 0.218219 0.085580
H38   H     H_    0.406726 0.720523 0.575336 0.096810
H39   H     H_    0.656002 0.206918 0.489104 -0.006618
H40   H     H_    0.758931 0.669219 0.402517 0.061635
H41   H     H_    0.333730 0.390287 0.665539 0.091580
H42   H     H_    0.552560 0.623396 0.154512 0.187054
H43   H     H_    0.322582 0.439080 0.869977 0.125626
H44   H     H_    0.026715 0.748887 0.597355 0.190176
H45   H     H_    0.124467 0.699029 0.544179 0.166373
H46   H     H_    0.040268 0.678160 0.728944 0.246927
N1    N     N_R   0.445040 0.272490 0.551770 -0.160372
N2    N     N_R   0.554960 0.727510 0.448230 -0.187545
O1    O     O_R   0.527700 0.614770 0.606110 -0.660544
O2    O     O_3   0.008515 0.386336 0.437953 -0.641750
O3    O     O_2   0.230686 0.074936 0.699879 -0.566329
O4    O     O_2   0.793367 0.803956 0.279499 -0.560681
O5    O     O_3   0.541879 0.916752 0.664632 -0.632363
O6    O     O_3   0.492387 0.094678 0.343964 -0.585024
O7    O     O_2   0.648781 0.819877 0.041878 -0.570468
O8    O     O_2   0.225324 0.239040 0.971886 -0.549814
O9    O     O_2   0.202101 0.273731 0.274211 -0.576737
O10   O     O_2   0.745361 0.768460 0.756683 -0.552407
O11   O     O_2   0.468151 0.120412 0.799868 -0.556511
O12   O     O_R   0.472300 0.385230 0.393890 -0.578731
O13   O     O_2   0.628072 0.042027 0.230708 -0.500905
O14   O     O_2   0.341667 0.809599 0.522304 -0.612240
O15   O     O_2   0.589315 0.266253 0.402914 -0.512193
O16   O     O_2   0.675130 0.625841 0.293478 -0.605608
O17   O     O_2   0.214400 0.302470 0.625806 -0.570057
O18   O     O_R   0.492440 0.468680 0.639380 -0.625924
O19   O     O_R   0.507560 0.531320 0.360620 -0.578373
O20   O     O_R   0.379820 0.583550 0.480950 -0.629922
O21   O     O_R   0.620180 0.416450 0.519050 -0.591847
O22   O     O_R   0.344560 0.437460 0.514220 -0.620884
O23   O     O_R   0.655440 0.562540 0.485780 -0.644278
O24   O     O_3   0.990958 0.612561 0.557057 -0.670973
Zn1   Zn    Zn3+2 0.523550 0.597550 0.477790 0.940529
Zn2   Zn    Zn3+2 0.476450 0.402450 0.522210 0.972908

loop_
_geom_bond_atom_site_label_1
_geom_bond_atom_site_label_2
_ccdc_geom_bond_type
O21   Zn2   S    
C11   C18   A    
C34   C56   A    
C24   C61   S    
C23   C45   A    
C53   H27   S    
C18   C21   A    
C33   C45   A    
C41   C42   S    
C62   O14   D    
O1    Zn1   S    
C3    C68   A    
C28   O24   S    
C41   H46   S    
C36   C59   S    
C20   O5    S    
C4    C56   A    
C48   O4    D    
C53   C54   S    
C59   O10   D    
C5    C47   S    
C28   C29   S    
C6    C48   S    
C49   H16   S    
C44   H9    S    
C35   C37   A    
C33   H23   S    
C51   H22   S    
C22   C60   S    
C46   H11   S    
C11   C14   A    
C47   H14   S    
C7    C65   S    
C1    C31   S    
C33   C36   A    
C18   C19   A    
C32   C39   A    
C7    N1    A    
C21   O6    S    
C44   H8    S    
C6    C15   A    
C52   O6    S    
C64   O16   D    
C12   O19   A    
C4    C57   S    
C54   H29   S    
C26   C29   T    
C63   O15   D    
C61   H37   S    
C54   H28   S    
C37   C58   S    
C61   O13   D    
C35   H34   S    
C43   H6    S    
C47   O3    D    
C66   C67   A    
C53   H26   S    
N1    Zn2   S    
C12   C32   S    
C27   C30   S    
C16   C26   S    
C10   C62   S    
C3    C55   S    
C44   C46   S    
C64   H40   S    
C43   H7    S    
C55   O7    D    
C2    H43   S    
C13   C19   A    
C67   C68   A    
C9    N1    A    
C49   H17   S    
C40   H44   S    
O22   Zn2   S    
C5    C7    A    
C8    N2    A    
C6    C8    A    
C57   H32   S    
C3    C45   A    
C34   C39   A    
C51   H20   S    
C2    C4    A    
C43   C44   S    
O20   Zn1   S    
O18   Zn2   S    
C46   H13   S    
C40   H45   S    
C49   O5    S    
C42   H4    S    
C50   C51   S    
C39   H1    S    
C52   H25   S    
C17   O23   A    
C58   H33   S    
C68   H42   S    
C32   C37   A    
C9    C11   A    
C65   H41   S    
C5    C14   A    
C50   H19   S    
C8    C64   S    
C62   H38   S    
C15   C24   A    
C20   C22   A    
C13   C15   A    
C52   H24   S    
C63   H39   S    
C1    O18   A    
C16   O20   A    
C10   N2    A    
C52   C53   S    
C23   C66   A    
C46   H10   S    
C27   O2    S    
C25   C30   T    
C40   C41   S    
C42   H5    S    
C35   C56   A    
C9    C63   S    
C60   O11   D    
C16   O22   A    
C2    C66   A    
C10   C13   A    
C34   C67   A    
C48   H15   S    
C12   O12   A    
C23   C38   A    
C31   C38   A    
C17   C25   S    
C14   C22   A    
C19   C20   A    
C59   H35   S    
C60   H36   S    
C51   H21   S    
C57   O8    D    
O23   Zn1   S    
C38   H12   S    
C40   O24   S    
C42   H3    S    
C50   H18   S    
C43   O2    S    
N2    Zn1   S    
O19   Zn1   S    
C58   O9    D    
C49   C50   S    
C21   C24   A    
C55   H31   S    
C27   C28   D    
C31   C36   A    
C54   H30   S    
C17   O21   A    
C1    O1    A    
O12   Zn2   S    
C65   O17   D    
C41   H2    S    
