data_mof_unit_pretest_1281.cif
_audit_creation_date              2012-12-10T17:02:27-0500
_audit_creation_method            fapswitch 2.2
_symmetry_space_group_name_H-M    P1
_symmetry_Int_Tables_number       1
_space_group_crystal_system       triclinic
_cell_length_a                    10.744673
_cell_length_b                    11.061202
_cell_length_c                    9.893937
_cell_angle_alpha                 109.688916
_cell_angle_beta                  101.212373
_cell_angle_gamma                 89.736186
_cell_volume                      1083.64141031

loop_
_atom_site_label
_atom_site_type_symbol
_atom_type_description
_atom_site_fract_x
_atom_site_fract_y
_atom_site_fract_z
_atom_type_partial_charge
C1    C     C_R   0.483681 0.256570 0.443159 0.886591
C2    C     C_R   0.505182 0.745118 0.556117 0.850216
C3    C     C_2   0.440523 0.127289 0.419040 0.214691
C4    C     C_2   0.506657 0.882493 0.578827 0.219945
C5    C     C_2   0.517217 0.052970 0.475847 0.255118
C6    C     C_2   0.472019 0.924908 0.464187 0.276779
C7    C     C_2   0.523055 0.504950 0.087116 0.287517
C8    C     C_2   0.534204 0.468707 0.924522 0.174011
C9    C     C_R   0.261890 0.514220 0.499162 0.853052
C10   C     C_R   0.738953 0.489420 0.501891 0.864539
C11   C     C_R   0.146097 0.712682 0.727259 0.247283
C12   C     C_R   0.857635 0.302524 0.266577 0.273882
C13   C     C_R   0.110069 0.765180 0.862731 0.371515
C14   C     C_R   0.900371 0.254065 0.133981 0.341582
C15   C     C_R   0.014411 0.701182 0.895236 0.263243
C16   C     C_R   0.995252 0.323887 0.107399 0.277163
C17   C     C_R   0.944868 0.592734 0.785939 0.054197
C18   C     C_R   0.056388 0.434576 0.219021 0.044758
C19   C     C_R   0.965654 0.554553 0.639540 -0.005325
C20   C     C_R   0.035386 0.462463 0.363528 -0.044028
C21   C     C_R   0.081225 0.599353 0.620517 -0.121024
C22   C     C_R   0.921057 0.413863 0.380270 -0.113015
C23   C     C_R   0.877615 0.475145 0.511652 0.001036
C24   C     C_R   0.124272 0.535369 0.491033 -0.042300
Cu1   Cu    Cu3+1 0.521920 0.521810 0.644910 1.077685
Cu2   Cu    Cu3+1 0.478080 0.478190 0.355090 1.051035
N1    N     N_2   0.445130 0.445420 0.137360 -0.138100
N2    N     N_2   0.554870 0.554580 0.862640 -0.148335
O1    O     O_R   0.511700 0.332340 0.577400 -0.562576
O2    O     O_R   0.488300 0.667660 0.422600 -0.568703
O3    O     O_R   0.474680 0.295500 0.332650 -0.526073
O4    O     O_R   0.525320 0.704500 0.667350 -0.488948
O5    O     O_R   0.338170 0.518410 0.622370 -0.547110
O6    O     O_R   0.661830 0.481590 0.377630 -0.546692
O7    O     O_R   0.301150 0.481570 0.377630 -0.607395
O8    O     O_R   0.698850 0.518430 0.622370 -0.561780
Cl1   Cl    Cl    0.041111 0.270058 0.935938 -0.482953
Cl2   Cl    Cl    0.979063 0.758498 0.072312 -0.452033
Cl3   Cl    Cl    0.251831 0.805693 0.680702 -0.484769
Cl4   Cl    Cl    0.741816 0.207978 0.296528 -0.445532
Cl5   Cl    Cl    0.186319 0.910419 0.992555 -0.283203
Cl6   Cl    Cl    0.833956 0.106829 0.999546 -0.308495
N3    N     N_3   0.870003 0.510762 0.829303 -0.480303
H1    H     H_    0.929695 0.481621 0.907384 0.278645
H2    H     H_    0.802929 0.565499 0.882383 0.254346
N4    N     N_3   0.117237 0.529305 0.178741 -0.499608
H3    H     H_    0.198172 0.493553 0.140276 0.260555
H4    H     H_    0.143921 0.614371 0.268127 0.297346
Cl7   Cl    Cl    0.382930 0.827362 0.289105 -0.522714
Cl8   Cl    Cl    0.680894 0.099994 0.551611 -0.446090
Cl9   Cl    Cl    0.556191 0.990335 0.760342 -0.403537
Cl10  Cl    Cl    0.274062 0.095207 0.359409 -0.405220
N5    N     N_3   0.546678 0.335457 0.845573 -0.466620
H5    H     H_    0.552206 0.281716 0.915068 0.279040
H6    H     H_    0.636426 0.329587 0.818503 0.270750
N6    N     N_3   0.616421 0.599256 0.193104 -0.509262
H7    H     H_    0.585619 0.691286 0.208075 0.248870
H8    H     H_    0.702531 0.591514 0.157405 0.203499
N7    N     N_3   0.539716 0.683453 0.938441 -0.382172
H9    H     H_    0.624015 0.724573 0.013038 0.244921
H10   H     H_    0.459587 0.693273 0.985947 0.253259
N8    N     N_3   0.373062 0.336105 0.038603 -0.424750
H11   H     H_    0.318487 0.303022 0.097107 0.297161
H12   H     H_    0.309120 0.364289 0.962276 0.244433

loop_
_geom_bond_atom_site_label_1
_geom_bond_atom_site_label_2
_ccdc_geom_bond_type
C8    N5    S    
C12   Cl4   S    
C19   C23   A    
C3    Cl10  S    
C17   N3    S    
C15   Cl2   S    
C15   C17   A    
N8    H11   S    
N1    N8    S    
C10   C23   S    
N3    H2    S    
C2    C4    S    
C13   C15   A    
C2    O2    A    
C16   Cl1   S    
C14   Cl6   S    
C1    O3    A    
C3    C5    D    
Cu1   O4    S    
C13   Cl5   S    
Cu2   O3    S    
C10   O6    A    
C16   C18   A    
N5    H5    S    
Cu2   O6    S    
Cu1   N2    S    
C9    O5    A    
C11   C13   A    
Cu2   N1    S    
C7    N6    S    
C8    N2    D    
C18   N4    S    
C1    O1    A    
C19   C21   A    
C12   C14   A    
Cu2   O2    S    
C18   C20   A    
N5    H6    S    
N3    H1    S    
Cu1   O1    S    
C5    C6    S    
C11   Cl3   S    
C14   C16   A    
C5    Cl8   S    
N7    H10   S    
C4    C6    D    
C7    C8    S    
C21   C24   A    
Cu1   O8    S    
N4    H4    S    
C12   C22   A    
Cu2   O7    S    
N7    H9    S    
C7    N1    D    
N6    H7    S    
C2    O4    A    
N2    N7    S    
Cu1   O5    S    
C1    C3    S    
C9    O7    A    
N4    H3    S    
N8    H12   S    
C4    Cl9   S    
C17   C19   A    
Cu1   Cu2   S    
C22   C23   A    
N6    H8    S    
C11   C21   A    
C9    C24   S    
C6    Cl7   S    
C20   C24   A    
C20   C22   A    
C10   O8    A    
