data_mof_unit_pretest_388.cif
_audit_creation_date              2012-12-11T15:41:22-0500
_audit_creation_method            fapswitch 2.2
_symmetry_space_group_name_H-M    P1
_symmetry_Int_Tables_number       1
_space_group_crystal_system       triclinic
_cell_length_a                    19.11465
_cell_length_b                    11.011234
_cell_length_c                    18.709046
_cell_angle_alpha                 90.945818
_cell_angle_beta                  91.002949
_cell_angle_gamma                 90.244757
_cell_volume                      3936.62230503

loop_
_atom_site_label
_atom_site_type_symbol
_atom_type_description
_atom_site_fract_x
_atom_site_fract_y
_atom_site_fract_z
_atom_type_partial_charge
C1    C     C_R   0.709808 0.000752 0.861416 0.533995
C2    C     C_R   0.299413 0.470274 0.040936 0.061698
C3    C     C_R   0.762158 0.861576 0.354448 0.563022
C4    C     C_2   0.548475 0.175779 0.935612 0.293124
C5    C     C_2   0.454597 0.173246 0.064770 0.289927
C6    C     C_2   0.048474 0.675779 0.935612 0.293124
C7    C     C_2   0.954597 0.673246 0.064770 0.289928
C8    C     C_2   0.491248 0.078903 0.037391 -0.128891
C9    C     C_2   0.515446 0.078672 0.963003 -0.126962
C10   C     C_2   0.991247 0.578904 0.037391 -0.128892
C11   C     C_2   0.015445 0.578672 0.963003 -0.126963
C12   C     C_R   0.784238 0.494515 0.061217 -0.009388
C13   C     C_R   0.220252 0.028014 0.949362 0.060821
C14   C     C_R   0.222707 0.475320 0.936461 -0.005665
C15   C     C_R   0.284238 0.994515 0.061217 -0.009388
C16   C     C_R   0.722707 0.975319 0.936461 -0.005666
C17   C     C_3   0.627626 0.620412 0.416896 0.034276
C18   C     C_3   0.572977 0.654206 0.471949 -0.420621
C19   C     C_3   0.397760 0.486663 0.625930 0.014620
C20   C     C_3   0.465652 0.527292 0.593295 -0.411721
C21   C     C_3   0.127628 0.120422 0.416890 0.034267
C22   C     C_3   0.072970 0.154129 0.471949 -0.420680
C23   C     C_3   0.897779 0.986612 0.625908 0.014593
C24   C     C_R   0.799412 0.970274 0.040936 0.061698
C25   C     C_3   0.965633 0.027237 0.593202 -0.411716
C26   C     C_3   0.379368 0.232047 0.974460 -0.020892
C27   C     C_3   0.383378 0.301028 0.904703 -0.332002
C28   C     C_3   0.634362 0.243370 0.014628 -0.030606
C29   C     C_3   0.627177 0.243613 0.095696 -0.334575
C30   C     C_3   0.879368 0.732048 0.974460 -0.020893
C31   C     C_3   0.883378 0.801029 0.904703 -0.332000
C32   C     C_3   0.134362 0.743372 0.014627 -0.030607
C33   C     C_3   0.127177 0.743616 0.095695 -0.334576
C34   C     C_3   0.550484 0.663826 0.915074 -0.126879
C35   C     C_R   0.826544 0.413775 0.948390 -0.192534
C36   C     C_3   0.363532 0.664174 0.165498 -0.088457
C37   C     C_3   0.050486 0.163823 0.915062 -0.126888
C38   C     C_3   0.863529 0.164175 0.165499 -0.088456
C39   C     C_R   0.178926 0.406251 0.049389 -0.166548
C40   C     C_R   0.326544 0.913774 0.948391 -0.192534
C41   C     C_R   0.678926 0.906248 0.049388 -0.166546
C42   C     C_R   0.836074 0.435077 0.021764 -0.167794
C43   C     C_R   0.169062 0.424691 0.976705 -0.137940
C44   C     C_R   0.336074 0.935076 0.021764 -0.167794
C45   C     C_R   0.291797 0.003799 0.139494 0.561780
C46   C     C_R   0.669062 0.924689 0.976704 -0.137940
C47   C     C_3   0.654562 0.571438 0.033459 -0.220095
C48   C     C_3   0.327438 0.614920 0.977033 -0.215861
C49   C     C_3   0.154562 0.071442 0.033459 -0.220095
C50   C     C_3   0.827436 0.114922 0.977033 -0.215861
C51   C     C_3   0.643215 0.547722 0.953128 0.149884
C52   C     C_3   0.345742 0.578628 0.053093 0.149291
C53   C     C_3   0.143215 0.047725 0.953128 0.149881
C54   C     C_3   0.845741 0.078630 0.053094 0.149292
C55   C     C_R   0.762419 0.443088 0.914059 -0.018891
C56   C     C_R   0.209808 0.500752 0.861416 0.533997
C57   C     C_R   0.244884 0.426574 0.082223 0.043415
C58   C     C_R   0.262420 0.943087 0.914059 -0.018890
C59   C     C_R   0.744884 0.926573 0.082223 0.043415
C60   C     C_R   0.449248 0.174351 0.436558 0.014906
C61   C     C_R   0.494600 0.169461 0.577833 0.052403
C62   C     C_R   0.949259 0.674343 0.436554 0.014922
C63   C     C_R   0.994609 0.669453 0.577830 0.052427
C64   C     C_R   0.487675 0.268305 0.466430 0.023827
C65   C     C_R   0.510546 0.265208 0.534194 0.072866
C66   C     C_R   0.987712 0.768268 0.466417 0.023790
C67   C     C_R   0.791797 0.503799 0.139494 0.561781
C68   C     C_R   0.010580 0.765171 0.534182 0.072751
C69   C     C_R   0.449363 0.076842 0.552321 -0.152337
C70   C     C_R   0.426339 0.079462 0.480402 -0.151132
C71   C     C_R   0.949354 0.576858 0.552323 -0.152288
C72   C     C_R   0.926331 0.579479 0.480404 -0.151117
C73   C     C_R   0.562032 0.182792 0.858231 0.533887
C74   C     C_R   0.439167 0.181034 0.141589 0.552160
C75   C     C_R   0.062032 0.682792 0.858231 0.533886
C76   C     C_R   0.939167 0.681034 0.141589 0.552160
C77   C     C_3   0.551983 0.327842 0.440733 -0.275135
C78   C     C_R   0.730819 0.552192 0.021847 -0.040095
C79   C     C_3   0.579152 0.322072 0.516556 -0.273396
C80   C     C_3   0.052038 0.827744 0.440717 -0.275114
C81   C     C_3   0.079198 0.821983 0.516544 -0.273406
C82   C     C_R   0.750770 0.430895 0.424546 0.006936
C83   C     C_R   0.243807 0.411889 0.577221 0.024659
C84   C     C_R   0.250769 0.930902 0.424546 0.006956
C85   C     C_R   0.743801 0.911908 0.577216 0.024695
C86   C     C_R   0.769298 0.320397 0.452363 -0.046588
C87   C     C_R   0.185720 0.404922 0.530601 0.012143
C88   C     C_R   0.269294 0.820405 0.452362 -0.046577
C89   C     C_R   0.286906 0.499836 0.970324 -0.045959
C90   C     C_R   0.685715 0.904983 0.530593 0.012106
C91   C     C_R   0.766341 0.301775 0.524178 -0.004509
C92   C     C_R   0.192528 0.402187 0.458054 0.055112
C93   C     C_R   0.266339 0.801784 0.524177 -0.004511
C94   C     C_R   0.692527 0.902237 0.458047 0.055058
C95   C     C_R   0.718403 0.499987 0.544599 -0.139725
C96   C     C_R   0.317691 0.396894 0.473916 -0.129748
C97   C     C_R   0.218410 1.000000 0.544600 -0.139736
C98   C     C_R   0.817689 0.896868 0.473918 -0.129733
C99   C     C_R   0.718429 0.518974 0.470468 0.243114
C100  C     C_R   0.230819 0.052191 0.021847 -0.040097
C101  C     C_R   0.311827 0.402488 0.548951 0.222188
C102  C     C_R   0.218428 0.018983 0.470468 0.243126
C103  C     C_R   0.811821 0.902473 0.548952 0.222203
C104  C     C_3   0.832453 0.243478 0.442914 -0.273913
C105  C     C_3   0.124220 0.487559 0.526075 -0.255628
C106  C     C_3   0.332439 0.743466 0.442906 -0.273915
C107  C     C_3   0.624240 0.987667 0.526066 -0.255651
C108  C     C_3   0.828605 0.221721 0.522174 -0.261815
C109  C     C_3   0.133380 0.487620 0.445968 -0.297384
C110  C     C_3   0.328590 0.721704 0.522165 -0.261827
C111  C     C_R   0.786906 0.999837 0.970324 -0.045960
C112  C     C_3   0.633403 0.987721 0.445959 -0.297402
C113  C     C_R   0.746667 0.393266 0.572199 -0.026520
C114  C     C_R   0.257741 0.402293 0.428154 -0.014689
C115  C     C_R   0.246670 0.893275 0.572200 -0.026516
C116  C     C_R   0.757743 0.902298 0.428152 -0.014659
C117  C     C_R   0.740331 0.368966 0.851050 0.529898
C118  C     C_R   0.260391 0.366840 0.149135 0.543458
C119  C     C_R   0.240330 0.868966 0.851050 0.529899
C120  C     C_R   0.760391 0.866840 0.149135 0.543459
C121  C     C_R   0.728660 0.951323 0.649316 0.563584
C122  C     C_R   0.720252 0.528014 0.949362 0.060821
C123  C     C_R   0.273311 0.961437 0.353847 0.559288
C124  C     C_R   0.228662 0.451320 0.649318 0.563548
C125  C     C_R   0.773310 0.461435 0.353846 0.559288
C126  C     C_R   0.527751 0.175398 0.646548 0.555543
C127  C     C_R   0.434660 0.181095 0.361517 0.572298
C128  C     C_R   0.027750 0.675396 0.646549 0.555550
C129  C     C_R   0.934662 0.681094 0.361516 0.572297
C130  C     C_R   0.739196 0.360718 0.646213 0.552895
C131  C     C_R   0.262158 0.361576 0.354448 0.563014
C132  C     C_R   0.239197 0.860721 0.646214 0.552894
Cr1   Cr    Cr6+3 0.769260 0.163750 0.750730 0.974229
Cr2   Cr    Cr6+3 0.385810 0.322400 0.252290 0.975134
Cr3   Cr    Cr6+3 0.114190 0.822400 0.747710 1.006179
Cr4   Cr    Cr6+3 0.885810 0.822400 0.252290 0.975134
Cr5   Cr    Cr6+3 0.230740 0.163750 0.249270 0.986947
Cr6   Cr    Cr6+3 0.269260 0.663750 0.750730 0.974213
Cr7   Cr    Cr6+3 0.730740 0.663750 0.249270 0.986947
Cr8   Cr    Cr6+3 0.612640 0.009910 0.748780 1.003146
Cr9   Cr    Cr6+3 0.387360 0.009910 0.251220 0.966708
Cr10  Cr    Cr6+3 0.112640 0.509910 0.748780 1.003143
Cr11  Cr    Cr6+3 0.887360 0.509910 0.251220 0.966707
Cr12  Cr    Cr6+3 0.614190 0.322400 0.747710 1.006172
H1    H     H_    0.503611 0.000335 0.069472 0.080823
H2    H     H_    0.587191 0.411786 0.542055 0.142601
H3    H     H_    0.409797 0.722159 0.154794 0.113489
H4    H     H_    0.381504 0.573076 0.182361 0.122755
H5    H     H_    0.334840 0.704134 0.211145 0.170372
H6    H     H_    0.029539 0.168746 0.970172 0.096564
H7    H     H_    0.025612 0.087310 0.884280 0.126578
H8    H     H_    0.035985 0.249202 0.887965 0.134831
H9    H     H_    0.909795 0.222160 0.154796 0.113492
H10   H     H_    0.881502 0.073078 0.182362 0.122754
H11   H     H_    0.834837 0.204135 0.211146 0.170373
H12   H     H_    0.081833 0.770924 0.402216 0.151939
H13   H     H_    0.087247 0.911697 0.542038 0.142616
H14   H     H_    0.697606 0.568891 0.580245 0.137879
H15   H     H_    0.368863 0.386573 0.451409 0.143208
H16   H     H_    0.197617 0.068906 0.580247 0.137879
H17   H     H_    0.868860 0.886508 0.451416 0.143186
H18   H     H_    0.880304 0.294590 0.428694 0.152597
H19   H     H_    0.135736 0.575365 0.553197 0.139417
H20   H     H_    0.380295 0.794563 0.428685 0.152594
H21   H     H_    0.503229 0.998903 0.930192 0.079920
H22   H     H_    0.635777 0.075467 0.553188 0.139399
H23   H     H_    0.821259 0.160869 0.409619 0.136414
H24   H     H_    0.075324 0.442278 0.542876 0.149062
H25   H     H_    0.321233 0.660865 0.409608 0.136412
H26   H     H_    0.575333 0.942415 0.542863 0.149084
H27   H     H_    0.811784 0.128643 0.532103 0.140108
H28   H     H_    0.088966 0.444537 0.415813 0.146889
H29   H     H_    0.311751 0.628636 0.532087 0.140097
H30   H     H_    0.588978 0.944675 0.415803 0.146910
H31   H     H_    0.874124 0.258055 0.553717 0.137888
H32   H     H_    0.003611 0.500335 0.069472 0.080824
H33   H     H_    0.150900 0.576801 0.425519 0.129621
H34   H     H_    0.374117 0.758011 0.553708 0.137889
H35   H     H_    0.650946 0.076889 0.425512 0.129639
H36   H     H_    0.865781 0.359999 0.921527 0.139402
H37   H     H_    0.135436 0.371179 0.079229 0.125271
H38   H     H_    0.365781 0.859999 0.921527 0.139401
H39   H     H_    0.635437 0.871175 0.079228 0.125270
H40   H     H_    0.882194 0.398583 0.047887 0.147031
H41   H     H_    0.118509 0.403857 0.952708 0.152685
H42   H     H_    0.382194 0.898583 0.047887 0.147031
H43   H     H_    0.003229 0.498904 0.930192 0.079921
H44   H     H_    0.618509 0.903854 0.952707 0.152684
H45   H     H_    0.142836 0.165560 0.050736 0.160329
H46   H     H_    0.791712 0.193499 0.973847 0.163579
H47   H     H_    0.642833 0.665554 0.050738 0.160323
H48   H     H_    0.291713 0.693498 0.973846 0.163580
H49   H     H_    0.631000 0.500977 0.067160 0.119856
H50   H     H_    0.373209 0.616777 0.941251 0.090943
H51   H     H_    0.130999 0.000986 0.067160 0.119855
H52   H     H_    0.873208 0.116780 0.941251 0.090945
H53   H     H_    0.612556 0.465379 0.937800 0.177647
H54   H     H_    0.036970 0.918886 0.422908 0.137790
H55   H     H_    0.402172 0.553667 0.059145 0.119003
H56   H     H_    0.112555 0.965383 0.937801 0.177645
H57   H     H_    0.902171 0.053670 0.059146 0.119002
H58   H     H_    0.434651 0.002354 0.586090 0.117450
H59   H     H_    0.393814 0.006918 0.458778 0.130131
H60   H     H_    0.934623 0.502392 0.586100 0.117444
H61   H     H_    0.893789 0.506956 0.458786 0.130121
H62   H     H_    0.617749 0.531256 0.390450 0.108467
H63   H     H_    0.620396 0.685154 0.373066 0.177467
H64   H     H_    0.573396 0.753126 0.482187 0.151046
H65   H     H_    0.124270 0.760622 0.522237 0.128739
H66   H     H_    0.520103 0.629380 0.450987 0.084164
H67   H     H_    0.583640 0.609295 0.523236 0.147293
H68   H     H_    0.407151 0.467667 0.683433 0.160572
H69   H     H_    0.364059 0.566334 0.623671 0.152520
H70   H     H_    0.463819 0.509674 0.534827 0.162201
H71   H     H_    0.473932 0.626171 0.603134 0.085102
H72   H     H_    0.509961 0.480390 0.619127 0.174206
H73   H     H_    0.117766 0.031291 0.390408 0.108496
H74   H     H_    0.120390 0.185216 0.373089 0.177460
H75   H     H_    0.073368 0.253038 0.482218 0.151017
H76   H     H_    0.536885 0.418981 0.422938 0.137772
H77   H     H_    0.020103 0.129285 0.450976 0.084198
H78   H     H_    0.083643 0.109182 0.523221 0.147302
H79   H     H_    0.907229 0.967611 0.683399 0.160579
H80   H     H_    0.864075 0.066283 0.623695 0.152512
H81   H     H_    0.963771 0.009525 0.534749 0.162252
H82   H     H_    0.973887 0.126128 0.602975 0.085104
H83   H     H_    0.009975 0.980419 0.619029 0.174102
H84   H     H_    0.328413 0.248744 0.999986 0.138897
H85   H     H_    0.380536 0.134555 0.959344 0.133257
H86   H     H_    0.418853 0.253695 0.867498 0.165441
H87   H     H_    0.624236 0.260731 0.522238 0.128740
H88   H     H_    0.330876 0.303675 0.878458 0.137381
H89   H     H_    0.403089 0.394911 0.914247 0.174667
H90   H     H_    0.673256 0.312961 0.001132 0.130517
H91   H     H_    0.657835 0.156515 0.997554 0.113806
H92   H     H_    0.605390 0.155790 0.113292 0.144247
H93   H     H_    0.679501 0.255917 0.121622 0.159750
H94   H     H_    0.592511 0.318222 0.113658 0.182758
H95   H     H_    0.828412 0.748745 0.999986 0.138897
H96   H     H_    0.880536 0.634556 0.959344 0.133257
H97   H     H_    0.918854 0.753697 0.867498 0.165442
H98   H     H_    0.581793 0.271059 0.402223 0.151956
H99   H     H_    0.830876 0.803676 0.878458 0.137384
H100  H     H_    0.903089 0.894912 0.914248 0.174668
H101  H     H_    0.173255 0.812962 0.001131 0.130518
H102  H     H_    0.157834 0.656516 0.997554 0.113806
H103  H     H_    0.105389 0.655795 0.113292 0.144248
H104  H     H_    0.179502 0.755919 0.121621 0.159748
H105  H     H_    0.092512 0.818226 0.113656 0.182758
H106  H     H_    0.529544 0.668776 0.970192 0.096557
H107  H     H_    0.525600 0.587295 0.884303 0.126568
H108  H     H_    0.535984 0.749200 0.887964 0.134840
O1    O     O_R   0.784290 0.290360 0.830540 -0.536536
O2    O     O_R   0.456020 0.282110 0.333230 -0.527631
O3    O     O_R   0.043980 0.782110 0.666770 -0.518874
O4    O     O_R   0.956020 0.782110 0.333230 -0.527629
O5    O     O_R   0.679070 0.374030 0.674430 -0.504807
O6    O     O_R   0.320930 0.374030 0.325570 -0.538295
O7    O     O_R   0.179070 0.874030 0.674430 -0.504802
O8    O     O_R   0.820930 0.874030 0.325570 -0.538299
O9    O     O_3   0.665360 0.165350 0.749070 -0.283695
O10   O     O_3   0.334640 0.165350 0.250930 -0.304515
O11   O     O_3   0.165360 0.665350 0.749070 -0.283689
O12   O     O_R   0.215710 0.290360 0.169460 -0.543571
O13   O     O_3   0.834640 0.665350 0.250930 -0.304517
O14   O     O_R   0.762610 0.041070 0.825230 -0.501809
O15   O     O_R   0.237390 0.041070 0.174770 -0.502724
O16   O     O_R   0.262610 0.541070 0.825230 -0.501817
O17   O     O_R   0.737390 0.541070 0.174770 -0.502725
O18   O     O_R   0.667390 0.924160 0.829970 -0.488334
O19   O     O_R   0.332610 0.924160 0.170030 -0.517475
O20   O     O_R   0.167390 0.424160 0.829970 -0.488332
O21   O     O_R   0.832610 0.424160 0.170030 -0.517476
O22   O     O_R   0.553980 0.081420 0.821780 -0.546969
O23   O     O_R   0.284290 0.790360 0.830540 -0.536537
O24   O     O_R   0.446020 0.081420 0.178220 -0.543995
O25   O     O_R   0.053980 0.581420 0.821780 -0.546969
O26   O     O_R   0.946020 0.581420 0.178220 -0.543996
O27   O     O_R   0.543210 0.283170 0.826740 -0.507665
O28   O     O_R   0.456790 0.283170 0.173260 -0.492841
O29   O     O_R   0.043210 0.783170 0.826740 -0.507668
O30   O     O_R   0.956790 0.783170 0.173260 -0.492840
O31   O     O_R   0.678350 0.375000 0.822720 -0.500216
O32   O     O_R   0.321650 0.375000 0.177280 -0.515354
O33   O     O_R   0.178350 0.875000 0.822720 -0.500218
O34   O     O_R   0.715710 0.790360 0.169460 -0.543572
O35   O     O_R   0.821650 0.875000 0.177280 -0.515354
O36   O     O_R   0.785060 0.289300 0.670580 -0.523143
O37   O     O_R   0.214940 0.289300 0.329420 -0.496683
O38   O     O_R   0.285060 0.789300 0.670580 -0.523146
O39   O     O_R   0.714940 0.789300 0.329420 -0.496677
O40   O     O_R   0.763330 0.040090 0.676940 -0.522709
O41   O     O_R   0.236670 0.040090 0.323060 -0.478894
O42   O     O_R   0.263330 0.540090 0.676940 -0.522728
O43   O     O_R   0.736670 0.540090 0.323060 -0.478887
O44   O     O_R   0.668160 0.923110 0.670000 -0.508119
O45   O     O_R   0.554690 0.080440 0.673480 -0.512806
O46   O     O_R   0.331840 0.923110 0.330000 -0.546322
O47   O     O_R   0.168160 0.423110 0.670000 -0.508119
O48   O     O_R   0.831840 0.423110 0.330000 -0.546320
O49   O     O_3   0.696420 0.630844 0.445940 -0.531017
O50   O     O_3   0.370566 0.379854 0.591759 -0.556024
O51   O     O_3   0.196419 0.130853 0.445940 -0.531022
O52   O     O_3   0.870548 0.879807 0.591768 -0.556022
O53   O     O_3   0.434273 0.269558 0.022019 -0.530896
O54   O     O_3   0.569748 0.271530 0.980164 -0.549657
O55   O     O_3   0.934272 0.769558 0.022019 -0.530895
O56   O     O_R   0.445310 0.080440 0.326520 -0.499926
O57   O     O_3   0.069748 0.771530 0.980164 -0.549654
O58   O     O_3   0.624021 0.653479 0.916042 -0.540899
O59   O     O_3   0.318486 0.659689 0.104868 -0.568489
O60   O     O_3   0.124023 0.153482 0.916042 -0.540904
O61   O     O_3   0.818483 0.159690 0.104869 -0.568490
O62   O     O_R   0.054690 0.580440 0.673480 -0.512814
O63   O     O_R   0.945310 0.580440 0.326520 -0.499926
O64   O     O_R   0.543980 0.282110 0.666770 -0.518898

loop_
_geom_bond_atom_site_label_1
_geom_bond_atom_site_label_2
_ccdc_geom_bond_type
C120  O35   A    
C81   H65   S    
C127  O2    A    
C107  C112  S    
C19   C20   S    
Cr6   O42   S    
C126  O64   A    
C6    C75   S    
Cr7   O17   S    
C75   O25   A    
C68   C81   S    
C76   O30   A    
C17   H62   S    
C18   H66   S    
C15   C44   A    
C104  H18   S    
C95   C99   A    
C92   C109  S    
C110  H34   S    
C24   C54   S    
C95   H14   S    
C128  O3    A    
C114  C131  S    
C5    C74   S    
C35   C42   A    
C12   C42   A    
C51   H53   S    
C36   H4    S    
C8    H1    S    
Cr4   O8    S    
C85   C121  S    
Cr3   O33   S    
C97   C115  A    
Cr4   O30   S    
C85   C103  A    
C109  H28   S    
C93   C110  S    
Cr3   O3    S    
Cr5   O10   S    
C21   C22   S    
C121  O40   A    
C96   C114  A    
Cr12  O9    S    
Cr10  O25   S    
Cr7   O39   S    
C125  O43   A    
Cr11  O48   S    
C77   C79   S    
C22   H77   S    
C40   C58   A    
C19   H68   S    
C20   H71   S    
C31   H100  S    
C130  O36   A    
Cr1   O1    S    
C6    C11   D    
C131  O37   A    
C49   H51   S    
C21   O51   S    
C54   O61   S    
C82   C125  S    
C129  O4    A    
Cr2   O6    S    
C34   H106  S    
Cr2   O2    S    
C124  O47   A    
C2    C52   S    
C63   C71   A    
Cr10  O11   S    
C56   O20   A    
C55   C117  S    
C28   O54   S    
C47   H49   S    
C84   C88   A    
C30   H96   S    
C90   C107  S    
C5    C8    D    
C85   C90   A    
C1    O18   A    
C60   C64   A    
C32   C33   S    
C49   C53   S    
C127  O56   A    
C25   H81   S    
C58   C119  S    
C69   C70   A    
Cr5   O12   S    
C61   C65   A    
C45   O15   A    
C16   C111  A    
C4    O54   S    
C14   C43   A    
C112  H30   S    
C22   H75   S    
C67   O21   A    
C59   C120  S    
C65   C79   S    
C84   C102  A    
C37   H6    S    
C86   C104  S    
C2    C57   A    
C73   O27   A    
Cr1   O9    S    
C74   O28   A    
C3    C116  S    
C43   H41   S    
C6    O57   S    
C108  H31   S    
C33   H104  S    
C117  O1    A    
Cr10  O47   S    
C83   C124  S    
C51   O58   S    
Cr7   O13   S    
C7    O55   S    
C69   H58   S    
C21   H73   S    
C38   H11   S    
C124  O42   A    
C79   H2    S    
C115  C132  S    
C71   H60   S    
C113  C130  S    
C62   C66   A    
Cr12  O64   S    
C125  O48   A    
C42   H40   S    
C25   H83   S    
Cr2   O32   S    
Cr7   O34   S    
C19   H69   S    
C20   H70   S    
C131  O6    A    
C87   C105  S    
C48   C52   S    
C73   O22   A    
Cr1   O36   S    
Cr12  O31   S    
C17   C18   S    
C4    C73   S    
C19   O50   S    
Cr12  O5    S    
C101  O50   S    
C34   H107  S    
C103  O52   S    
C23   H79   S    
C37   H8    S    
C123  O41   A    
C29   H94   S    
C105  C109  S    
C63   C68   A    
C83   C101  A    
C63   C128  S    
C99   O49   S    
C7    C76   S    
C54   H57   S    
C66   C80   S    
Cr3   O7    S    
C105  H24   S    
C32   H101  S    
Cr8   O9    S    
Cr2   O28   S    
C18   H67   S    
C71   C72   A    
C104  H23   S    
C24   C59   A    
C94   C112  S    
C50   C111  S    
Cr12  O27   S    
C56   O16   A    
C10   C11   S    
C27   H88   S    
C40   C44   A    
C96   H15   S    
C28   H90   S    
C15   C45   S    
C57   C118  S    
C38   H9    S    
C4    C9    D    
C96   C101  A    
Cr4   O35   S    
C7    C10   D    
C83   C87   A    
C82   C99   A    
C14   C56   S    
C15   C100  A    
C126  O45   A    
C84   C123  S    
C22   H78   S    
C26   C27   S    
C50   C54   S    
C20   H72   S    
C31   H99   S    
C28   C29   S    
C34   O58   S    
C86   C91   A    
C30   C31   S    
C98   C103  A    
C23   O52   S    
C102  O51   S    
C50   H52   S    
C1    O14   A    
C26   H84   S    
C105  H19   S    
C61   C126  S    
C106  H20   S    
C13   C53   S    
C97   C102  A    
C119  O33   A    
C36   O59   S    
C87   C92   A    
C90   C94   A    
C40   H38   S    
C129  O63   A    
C26   H85   S    
C81   H13   S    
C97   H16   S    
C17   H63   S    
C16   C46   A    
C94   C116  A    
C47   C51   S    
C82   C86   A    
Cr11  O26   S    
C2    C89   A    
C120  O34   A    
C30   O55   S    
C14   C89   A    
C36   H3    S    
C80   H54   S    
C1    C16   S    
C33   H105  S    
Cr8   O45   S    
C17   O49   S    
Cr10  O62   S    
C132  O38   A    
Cr9   O56   S    
C104  C108  S    
C98   H17   S    
C70   H59   S    
C48   H50   S    
C37   O60   S    
C91   C108  S    
C31   H97   S    
C60   C127  S    
C72   H61   S    
Cr6   O23   S    
C64   C65   A    
C9    H21   S    
Cr6   O38   S    
Cr7   O43   S    
C5    O53   S    
Cr6   O16   S    
C128  O62   A    
Cr8   O18   S    
C33   H103  S    
Cr9   O19   S    
C47   H47   S    
C50   H46   S    
C48   H48   S    
C119  O23   A    
C67   O17   A    
C109  H33   S    
C118  O12   A    
Cr11  O21   S    
C51   C122  S    
C41   H39   S    
Cr11  O13   S    
Cr11  O63   S    
C48   C89   S    
C44   H42   S    
C107  H26   S    
C66   C68   A    
Cr3   O11   S    
C38   O61   S    
Cr9   O10   S    
C25   H82   S    
Cr3   O29   S    
C3    O39   A    
C30   H95   S    
Cr1   O14   S    
C11   H43   S    
C36   H5    S    
C49   H45   S    
C3    O8    A    
C39   C57   A    
C32   O57   S    
C18   H64   S    
C93   C115  A    
C53   O60   S    
Cr8   O22   S    
C27   H86   S    
C8    C9    S    
C12   C78   A    
C41   C46   A    
C107  H22   S    
Cr2   O10   S    
C62   C129  S    
C24   C111  A    
C37   H7    S    
C29   H93   S    
C80   H12   S    
C132  O7    A    
C10   H32   S    
C12   C67   S    
C35   C55   A    
C77   H98   S    
Cr1   O40   S    
C41   C59   A    
C39   C43   A    
C13   C58   A    
C91   C113  A    
C32   H102  S    
Cr4   O13   S    
C117  O31   A    
Cr5   O37   S    
C29   H92   S    
C118  O32   A    
C88   C106  S    
C98   C116  A    
C60   C70   A    
C79   H87   S    
C62   C72   A    
C52   H55   S    
C23   H80   S    
C39   H37   S    
C112  H35   S    
Cr9   O46   S    
C21   H74   S    
C106  H25   S    
C108  H27   S    
C123  O46   A    
C38   H10   S    
C130  O5    A    
C106  C110  S    
C110  H29   S    
C61   C69   A    
C35   H36   S    
C45   O19   A    
C88   C93   A    
C53   H56   S    
Cr4   O4    S    
C80   C81   S    
Cr8   O44   S    
C77   H76   S    
C75   O29   A    
C47   C78   S    
C52   O59   S    
C76   O26   A    
C13   C100  A    
Cr5   O41   S    
C49   C100  S    
Cr5   O15   S    
C95   C113  A    
C74   O24   A    
C23   C25   S    
C78   C122  A    
Cr10  O20   S    
C55   C122  A    
C27   H89   S    
C28   H91   S    
Cr6   O11   S    
C64   C77   S    
C26   O53   S    
C121  O44   A    
C34   H108  S    
Cr9   O24   S    
C46   H44   S    
C92   C114  A    
