data_mof_unit_pretest_1376.cif
_audit_creation_date              2012-12-10T17:20:58-0500
_audit_creation_method            fapswitch 2.2
_symmetry_space_group_name_H-M    P1
_symmetry_Int_Tables_number       1
_space_group_crystal_system       triclinic
_cell_length_a                    18.402366
_cell_length_b                    25.765868
_cell_length_c                    18.232955
_cell_angle_alpha                 89.539048
_cell_angle_beta                  90.010398
_cell_angle_gamma                 90.019868
_cell_volume                      8644.92866192

loop_
_atom_site_label
_atom_site_type_symbol
_atom_type_description
_atom_site_fract_x
_atom_site_fract_y
_atom_site_fract_z
_atom_type_partial_charge
C1    C     C_R   0.389661 0.249990 0.139918 0.782837
C2    C     C_R   0.595449 0.174506 0.897777 -0.138189
C3    C     C_R   0.131888 0.155399 0.331572 -0.206405
C4    C     C_R   0.406876 0.670487 0.393070 -0.189355
C5    C     C_R   0.406158 0.327932 0.605808 -0.188073
C6    C     C_R   0.657446 0.302751 0.142757 -0.198263
C7    C     C_R   0.657898 0.698125 0.857501 -0.192856
C8    C     C_R   0.959812 0.209047 0.887120 -0.139396
C9    C     C_R   0.959584 0.790192 0.112562 -0.138225
C10   C     C_R   0.122719 0.815390 0.732773 -0.178065
C11   C     C_R   0.124273 0.186459 0.269139 -0.173368
C12   C     C_R   0.459799 0.708953 0.387153 -0.147729
C13   C     C_R   0.342423 0.197837 0.357418 -0.127849
C14   C     C_R   0.459457 0.289807 0.612312 -0.146873
C15   C     C_R   0.641537 0.285317 0.213435 -0.177506
C16   C     C_R   0.641792 0.715265 0.786722 -0.171233
C17   C     C_R   0.289003 0.053436 0.129708 -0.142790
C18   C     C_R   0.289635 0.945395 0.129716 -0.139387
C19   C     C_R   0.790102 0.553445 0.629520 -0.139605
C20   C     C_R   0.790277 0.445401 0.629645 -0.137363
C21   C     C_R   0.308195 0.026098 0.193041 -0.132745
C22   C     C_R   0.308572 0.972171 0.193025 -0.127881
C23   C     C_R   0.809756 0.526100 0.692701 -0.135529
C24   C     C_R   0.342072 0.801545 0.642473 -0.123991
C25   C     C_R   0.809839 0.472174 0.692765 -0.130403
C26   C     C_R   0.270293 0.972439 0.064543 0.068043
C27   C     C_R   0.270093 0.026971 0.064510 0.071781
C28   C     C_R   0.770658 0.472445 0.564559 0.067399
C29   C     C_R   0.770583 0.526981 0.564492 0.071151
C30   C     C_R   0.250014 0.946203 0.000001 -0.143611
C31   C     C_R   0.249853 0.053792 0.999871 -0.143443
C32   C     C_R   0.750149 0.446209 0.500085 -0.144062
C33   C     C_R   0.749990 0.553798 0.499957 -0.144193
C34   C     C_R   0.229371 0.973019 0.935476 0.071830
C35   C     C_R   0.095261 0.325354 0.602181 -0.137156
C36   C     C_R   0.229285 0.027555 0.935412 0.068316
C37   C     C_R   0.729819 0.473032 0.435473 0.072287
C38   C     C_R   0.729614 0.527564 0.435442 0.067971
C39   C     C_R   0.209771 0.946554 0.870470 -0.144005
C40   C     C_R   0.209558 0.054599 0.870357 -0.142284
C41   C     C_R   0.710785 0.446568 0.370309 -0.141598
C42   C     C_R   0.710136 0.554610 0.370311 -0.137682
C43   C     C_R   0.189989 0.973900 0.807326 -0.126931
C44   C     C_R   0.189882 0.027826 0.807271 -0.124093
C45   C     C_R   0.691430 0.473909 0.307027 -0.136332
C46   C     C_R   0.096007 0.675921 0.398705 -0.136968
C47   C     C_R   0.691042 0.527835 0.307049 -0.127783
C48   C     C_R   0.249980 0.109452 0.999799 0.792214
C49   C     C_R   0.250022 0.890547 0.000071 0.792588
C50   C     C_R   0.749999 0.609453 0.499894 0.792202
C51   C     C_R   0.750041 0.390549 0.500161 0.791943
C52   C     C_R   0.249995 0.391415 0.999910 0.749666
C53   C     C_R   0.250005 0.608606 0.000295 0.749410
C54   C     C_R   0.750126 0.891394 0.499705 0.755875
C55   C     C_R   0.750123 0.108585 0.500090 0.755608
C56   C     C_3   0.250550 0.469788 0.080179 -0.377641
C57   C     C_R   0.870240 0.652725 0.828909 -0.144618
C58   C     C_3   0.181206 0.530254 0.961396 -0.392605
C59   C     C_3   0.250604 0.529334 0.080480 -0.371255
C60   C     C_3   0.181267 0.470281 0.960986 -0.398514
C61   C     C_3   0.681606 0.969721 0.538840 -0.391264
C62   C     C_3   0.750518 0.030212 0.419819 -0.376669
C63   C     C_3   0.681669 0.029679 0.539251 -0.397571
C64   C     C_3   0.750560 0.970665 0.419517 -0.371216
C65   C     C_3   0.318293 0.470312 0.960115 -0.388574
C66   C     C_3   0.318336 0.530287 0.960478 -0.387995
C67   C     C_3   0.818756 0.969736 0.539272 -0.385201
C68   C     C_R   0.868244 0.344789 0.168629 -0.131858
C69   C     C_3   0.818712 0.029728 0.539641 -0.388943
C70   C     C_3   0.250029 0.449145 0.000195 0.185685
C71   C     C_3   0.250037 0.550915 0.000736 0.179622
C72   C     C_3   0.750274 0.949084 0.499262 0.173908
C73   C     C_3   0.750269 0.050855 0.499804 0.181110
C74   C     C_R   0.107418 0.327381 0.733591 -0.127479
C75   C     C_R   0.108316 0.673333 0.267343 -0.126219
C76   C     C_R   0.984527 0.684761 0.874983 -0.160966
C77   C     C_R   0.982989 0.313242 0.123207 -0.163326
C78   C     C_R   0.606526 0.828392 0.234958 -0.127095
C79   C     C_R   0.540799 0.789478 0.110052 -0.089221
C80   C     C_R   0.607794 0.172596 0.766425 -0.125101
C81   C     C_R   0.465994 0.214777 0.393769 -0.163107
C82   C     C_R   0.465665 0.784739 0.606074 -0.162453
C83   C     C_R   0.125784 0.346878 0.664522 -0.139302
C84   C     C_R   0.126904 0.654329 0.336622 -0.140316
C85   C     C_R   0.923808 0.652819 0.882673 -0.119283
C86   C     C_R   0.921694 0.344487 0.114776 -0.121130
C87   C     C_R   0.624780 0.848477 0.166209 -0.136674
C88   C     C_R   0.626311 0.153206 0.835499 -0.137062
C89   C     C_R   0.396103 0.197871 0.410944 -0.139993
C90   C     C_R   0.541184 0.211795 0.890622 -0.088290
C91   C     C_R   0.395689 0.801474 0.588890 -0.139967
C92   C     C_2   0.825246 0.104511 0.835648 0.891314
C93   C     C_2   0.824457 0.894521 0.163108 0.894215
C94   C     C_2   0.082963 0.882069 0.551302 0.896376
C95   C     C_2   0.086891 0.122835 0.453300 0.898788
C96   C     C_2   0.325526 0.604371 0.335099 0.889068
C97   C     C_2   0.324494 0.394222 0.662792 0.890143
C98   C     C_2   0.620145 0.323318 0.013614 0.891707
C99   C     C_2   0.620882 0.678029 0.986870 0.892775
C100  C     C_R   0.358334 0.214728 0.286441 -0.154922
C101  C     C_R   0.389721 0.749970 0.860132 0.785161
C102  C     C_R   0.358139 0.784814 0.713489 -0.148492
C103  C     C_R   0.041386 0.287729 0.609256 -0.109379
C104  C     C_R   0.041641 0.713118 0.391190 -0.109498
C105  C     C_R   0.876976 0.684685 0.767261 -0.157169
C106  C     C_R   0.875542 0.313585 0.230984 -0.154491
C107  C     C_R   0.517081 0.771803 0.179886 0.073549
C108  C     C_R   0.517362 0.228802 0.820497 0.075126
C109  C     C_R   0.428736 0.232968 0.267849 0.072630
C110  C     C_R   0.428636 0.766774 0.732109 0.072263
C111  C     C_R   0.017456 0.270866 0.679362 0.074394
C112  C     C_R   0.393426 0.746030 0.136638 0.822378
C113  C     C_R   0.017641 0.729533 0.320895 0.076051
C114  C     C_R   0.938144 0.717527 0.758238 0.079772
C115  C     C_R   0.937357 0.281522 0.240827 0.076990
C116  C     C_R   0.057938 0.285430 0.741476 0.070762
C117  C     C_R   0.058344 0.714930 0.258960 0.072230
C118  C     C_R   0.992706 0.717494 0.812753 0.071622
C119  C     C_R   0.991906 0.281466 0.186316 0.072396
C120  C     C_R   0.557443 0.786149 0.242190 0.067596
C121  C     C_R   0.558037 0.214364 0.758456 0.068451
C122  C     C_R   0.483345 0.232937 0.322261 0.078179
C123  C     C_R   0.393379 0.253969 0.863311 0.824762
C124  C     C_R   0.483190 0.766805 0.677659 0.077833
C125  C     C_R   0.454762 0.740145 0.188781 -0.185632
C126  C     C_R   0.454631 0.259923 0.811096 -0.185787
C127  C     C_R   0.445820 0.250231 0.196036 -0.142432
C128  C     C_R   0.445873 0.749764 0.804013 -0.142224
C129  C     C_R   0.954769 0.239748 0.688632 -0.193256
C130  C     C_R   0.954687 0.760289 0.311294 -0.194307
C131  C     C_R   0.945836 0.750105 0.696005 -0.136784
C132  C     C_R   0.945858 0.249984 0.304015 -0.136128
C133  C     C_R   0.444594 0.712112 0.255304 0.047051
C134  C     C_R   0.889701 0.750012 0.639857 0.784579
C135  C     C_R   0.444162 0.287448 0.744183 0.048203
C136  C     C_R   0.516564 0.267629 0.177766 0.055377
C137  C     C_R   0.516752 0.732680 0.822361 0.055072
C138  C     C_R   0.944459 0.211959 0.755306 0.052881
C139  C     C_R   0.944194 0.787761 0.244383 0.054521
C140  C     C_R   0.007213 0.782623 0.687287 0.048596
C141  C     C_R   0.008163 0.218574 0.313814 0.049261
C142  C     C_R   0.984309 0.226557 0.817612 0.078201
C143  C     C_R   0.984180 0.773079 0.182232 0.079971
C144  C     C_R   0.061715 0.782548 0.741744 0.091344
C145  C     C_R   0.889663 0.250052 0.360095 0.786158
C146  C     C_R   0.062576 0.218471 0.259285 0.087694
C147  C     C_R   0.484276 0.726658 0.317735 0.078944
C148  C     C_R   0.484062 0.272745 0.681995 0.080714
C149  C     C_R   0.571210 0.267248 0.232033 0.083461
C150  C     C_R   0.571342 0.733058 0.768055 0.083068
C151  C     C_R   0.046667 0.258394 0.808936 -0.209058
C152  C     C_R   0.046808 0.741588 0.191216 -0.208564
C153  C     C_R   0.054107 0.749928 0.803984 -0.141695
C154  C     C_R   0.054114 0.249999 0.196037 -0.141092
C155  C     C_R   0.546462 0.758652 0.309284 -0.210557
C156  C     C_R   0.893409 0.245960 0.636607 0.819175
C157  C     C_R   0.546665 0.241289 0.690928 -0.209619
C158  C     C_R   0.554181 0.249956 0.303879 -0.147588
C159  C     C_R   0.554144 0.750053 0.696097 -0.147395
C160  C     C_R   0.396649 0.669239 0.261432 -0.176386
C161  C     C_R   0.395808 0.330021 0.737415 -0.174648
C162  C     C_R   0.533535 0.286552 0.106523 -0.227083
C163  C     C_R   0.533927 0.714076 0.893727 -0.226739
C164  C     C_R   0.896309 0.169223 0.761652 -0.175441
C165  C     C_R   0.895777 0.830293 0.237647 -0.173710
C166  C     C_R   0.015190 0.815454 0.625118 -0.220141
C167  C     C_R   0.893377 0.754036 0.363358 0.820909
C168  C     C_R   0.017144 0.187016 0.377143 -0.221598
C169  C     C_R   0.377336 0.648411 0.329941 0.007851
C170  C     C_R   0.376421 0.350317 0.668603 0.007780
C171  C     C_R   0.603623 0.303793 0.088646 0.021427
C172  C     C_R   0.604147 0.697148 0.911679 0.021620
C173  C     C_R   0.877081 0.148521 0.830253 0.006631
C174  C     C_R   0.876437 0.850640 0.168869 0.006789
C175  C     C_R   0.075916 0.847872 0.616853 0.030391
C176  C     C_R   0.078647 0.155527 0.386376 0.026805
C177  C     C_R   0.106903 0.253536 0.862661 0.801230
C178  C     C_R   0.594410 0.827331 0.103556 -0.138088
C179  C     C_R   0.106947 0.746474 0.137392 0.804356
C180  C     C_R   0.110225 0.749951 0.860180 0.781487
C181  C     C_R   0.110271 0.249979 0.139881 0.783119
C182  C     C_R   0.606849 0.753608 0.362775 0.801838
C183  C     C_R   0.606914 0.246400 0.637300 0.804711
C184  C     C_R   0.610313 0.250036 0.360066 0.778059
C185  C     C_R   0.610263 0.749996 0.639898 0.780566
C186  C     C_R   0.906785 0.170666 0.893250 -0.182727
C187  C     C_R   0.906273 0.828326 0.106076 -0.181569
C188  C     C_R   0.129507 0.847515 0.671334 -0.222224
H1    H     H_    0.299538 0.455356 0.109826 0.188339
H2    H     H_    0.375255 0.349247 0.785551 0.205481
H3    H     H_    0.045094 0.099530 0.550539 0.348470
H4    H     H_    0.260683 0.553771 0.281976 0.339692
H5    H     H_    0.260296 0.445557 0.715190 0.339800
H6    H     H_    0.582728 0.341363 0.912429 0.349269
H7    H     H_    0.583693 0.660233 0.088217 0.346742
H8    H     H_    0.492328 0.288427 0.064319 0.169335
H9    H     H_    0.492786 0.712219 0.935983 0.169526
H10   H     H_    0.875753 0.150230 0.713306 0.205235
H11   H     H_    0.875130 0.849445 0.285807 0.205346
H12   H     H_    0.974110 0.816140 0.582651 0.162756
H13   H     H_    0.976249 0.186599 0.419778 0.163375
H14   H     H_    0.980126 0.225582 0.937446 0.166399
H15   H     H_    0.980106 0.773562 0.062397 0.165522
H16   H     H_    0.165791 0.816717 0.773157 0.117227
H17   H     H_    0.179281 0.545032 0.903898 0.187857
H18   H     H_    0.167204 0.184913 0.228639 0.119977
H19   H     H_    0.480029 0.725417 0.437561 0.162074
H20   H     H_    0.480011 0.273158 0.562170 0.160730
H21   H     H_    0.685067 0.286617 0.253239 0.136430
H22   H     H_    0.685278 0.713930 0.746894 0.137874
H23   H     H_    0.174824 0.049026 0.758073 0.148328
H24   H     H_    0.175006 0.953158 0.758188 0.146513
H25   H     H_    0.676272 0.549036 0.257763 0.144467
H26   H     H_    0.677007 0.453148 0.257724 0.139719
H27   H     H_    0.288728 0.095361 0.132702 0.120705
H28   H     H_    0.299657 0.543360 0.110117 0.204371
H29   H     H_    0.289906 0.903441 0.132691 0.130557
H30   H     H_    0.790067 0.595372 0.632473 0.120078
H31   H     H_    0.790406 0.403448 0.632663 0.131481
H32   H     H_    0.322498 0.046859 0.242379 0.140730
H33   H     H_    0.323213 0.950972 0.242351 0.141405
H34   H     H_    0.824651 0.546845 0.741863 0.135061
H35   H     H_    0.824789 0.450974 0.741996 0.141380
H36   H     H_    0.201905 0.455380 0.110429 0.182202
H37   H     H_    0.131515 0.544443 0.989665 0.151851
H38   H     H_    0.202035 0.543368 0.110862 0.180994
H39   H     H_    0.179552 0.456467 0.903320 0.186411
H40   H     H_    0.131569 0.455505 0.988992 0.152379
H41   H     H_    0.631806 0.955511 0.510745 0.153767
H42   H     H_    0.701777 0.044598 0.389716 0.181584
H43   H     H_    0.631861 0.044426 0.511425 0.154315
H44   H     H_    0.701878 0.956613 0.389294 0.179989
H45   H     H_    0.209813 0.904628 0.867515 0.120935
H46   H     H_    0.209405 0.096553 0.867346 0.131696
H47   H     H_    0.711058 0.404644 0.367312 0.120725
H48   H     H_    0.709850 0.596564 0.367341 0.131733
H49   H     H_    0.368341 0.455581 0.987512 0.164992
H50   H     H_    0.679903 0.954950 0.596348 0.188479
H51   H     H_    0.319463 0.545035 0.902945 0.193189
H52   H     H_    0.368404 0.544527 0.988056 0.165679
H53   H     H_    0.319300 0.456480 0.902438 0.204939
H54   H     H_    0.820116 0.954979 0.596796 0.193885
H55   H     H_    0.868659 0.044493 0.512069 0.177413
H56   H     H_    0.819942 0.043562 0.597311 0.205557
H57   H     H_    0.868723 0.955515 0.511516 0.180088
H58   H     H_    0.890537 0.157433 0.947344 0.186081
H59   H     H_    0.889978 0.841287 0.051865 0.186015
H60   H     H_    0.176956 0.872190 0.666584 0.163273
H61   H     H_    0.799413 0.044667 0.390028 0.190995
H62   H     H_    0.179695 0.131158 0.336839 0.166486
H63   H     H_    0.390570 0.657153 0.447098 0.186139
H64   H     H_    0.389824 0.340844 0.551585 0.186174
H65   H     H_    0.711988 0.316002 0.130700 0.171767
H66   H     H_    0.712538 0.685027 0.869551 0.173494
H67   H     H_    0.130124 0.347294 0.780128 0.173508
H68   H     H_    0.131251 0.653262 0.221085 0.174013
H69   H     H_    0.024858 0.683450 0.918172 0.110853
H70   H     H_    0.023254 0.314426 0.079964 0.111467
H71   H     H_    0.629045 0.848027 0.281833 0.171562
H72   H     H_    0.680174 0.043486 0.596927 0.187188
H73   H     H_    0.630630 0.152717 0.719944 0.173598
H74   H     H_    0.506072 0.213029 0.437096 0.121369
H75   H     H_    0.505683 0.786474 0.562702 0.121280
H76   H     H_    0.164322 0.378384 0.659362 0.173606
H77   H     H_    0.165886 0.623139 0.342132 0.173621
H78   H     H_    0.918368 0.627982 0.930526 0.138894
H79   H     H_    0.915771 0.368688 0.066336 0.139560
H80   H     H_    0.663090 0.880162 0.161539 0.172973
H81   H     H_    0.665162 0.121910 0.840700 0.173583
H82   H     H_    0.383719 0.184378 0.465923 0.141645
H83   H     H_    0.799503 0.956658 0.389717 0.205886
H84   H     H_    0.383202 0.814833 0.533868 0.140263
H85   H     H_    0.610839 0.841287 0.049907 0.158524
H86   H     H_    0.611996 0.161074 0.951654 0.157788
H87   H     H_    0.288317 0.184389 0.370865 0.144940
H88   H     H_    0.287896 0.814937 0.629093 0.145743
H89   H     H_    0.111808 0.338834 0.548334 0.157792
H90   H     H_    0.112653 0.662810 0.452702 0.156921
H91   H     H_    0.823256 0.627769 0.834963 0.131749
H92   H     H_    0.820979 0.369395 0.162147 0.134816
H93   H     H_    0.519286 0.773600 0.059831 0.179440
H94   H     H_    0.376277 0.650267 0.212993 0.204615
H95   H     H_    0.519211 0.227775 0.940563 0.178546
H96   H     H_    0.314914 0.212999 0.246555 0.125745
H97   H     H_    0.314764 0.786571 0.753402 0.126998
H98   H     H_    0.019680 0.271364 0.559385 0.163588
H99   H     H_    0.019615 0.729534 0.440870 0.161813
H100  H     H_    0.833894 0.683291 0.726899 0.106584
H101  H     H_    0.832495 0.315074 0.271358 0.108971
H102  H     H_    0.760718 0.053582 0.782792 0.340053
H103  H     H_    0.760505 0.945974 0.215616 0.338960
H104  H     H_    0.039818 0.907105 0.455515 0.350672
O1    O     O_3   0.249990 0.250010 0.000000 -0.484560
O2    O     O_R   0.835430 0.219350 0.353840 -0.632604
O3    O     O_R   0.835430 0.219350 0.646160 -0.640641
O4    O     O_R   0.835430 0.780650 0.353840 -0.641176
O5    O     O_R   0.164550 0.280640 0.853840 -0.647020
O6    O     O_R   0.164550 0.719360 0.146160 -0.648007
O7    O     O_R   0.164550 0.719360 0.853840 -0.637791
O8    O     O_R   0.164550 0.280640 0.146160 -0.638151
O9    O     O_R   0.664550 0.780640 0.353840 -0.645658
O10   O     O_R   0.664550 0.219360 0.646160 -0.646953
O11   O     O_R   0.664550 0.219360 0.353840 -0.638560
O12   O     O_3   0.249990 0.749990 0.000000 -0.484620
O13   O     O_R   0.664550 0.780640 0.646160 -0.638973
O14   O     O_R   0.396160 0.219380 0.914560 -0.644709
O15   O     O_R   0.396160 0.780620 0.085440 -0.648040
O16   O     O_R   0.396160 0.780620 0.914560 -0.644677
O17   O     O_R   0.396160 0.219380 0.085440 -0.647041
O18   O     O_R   0.896160 0.719380 0.414560 -0.641240
O19   O     O_R   0.896160 0.280620 0.585440 -0.644601
O20   O     O_R   0.896160 0.280620 0.414560 -0.642850
O21   O     O_R   0.896160 0.719380 0.585440 -0.644857
O22   O     O_R   0.103840 0.219370 0.085450 -0.640077
O23   O     O_3   0.749990 0.750010 0.500000 -0.485452
O24   O     O_R   0.103840 0.780630 0.914550 -0.642531
O25   O     O_R   0.103840 0.780630 0.085450 -0.637426
O26   O     O_R   0.103840 0.219370 0.914550 -0.641044
O27   O     O_R   0.603840 0.719370 0.585450 -0.642689
O28   O     O_R   0.603840 0.280630 0.414550 -0.645122
O29   O     O_R   0.603840 0.280630 0.585450 -0.637729
O30   O     O_R   0.603840 0.719370 0.414550 -0.641500
O31   O     O_R   0.310730 0.133160 0.000000 -0.636203
O32   O     O_R   0.310730 0.866840 0.000000 -0.637848
O33   O     O_R   0.810730 0.633160 0.500000 -0.635965
O34   O     O_3   0.749990 0.249990 0.500000 -0.485436
O35   O     O_R   0.810730 0.366840 0.500000 -0.637862
O36   O     O_R   0.249970 0.366860 0.060720 -0.645328
O37   O     O_R   0.249970 0.633140 0.939280 -0.641988
O38   O     O_R   0.249970 0.633140 0.060720 -0.649239
O39   O     O_R   0.249970 0.366860 0.939280 -0.645637
O40   O     O_R   0.749970 0.866860 0.560720 -0.641158
O41   O     O_R   0.749970 0.133140 0.439280 -0.644620
O42   O     O_R   0.749970 0.133140 0.560720 -0.645386
O43   O     O_R   0.749970 0.866860 0.439280 -0.649648
O44   O     O_R   0.189290 0.133150 0.000000 -0.632634
O45   O     O_R   0.335430 0.280650 0.146160 -0.634328
O46   O     O_R   0.189290 0.866850 0.000000 -0.630981
O47   O     O_R   0.689290 0.633150 0.500000 -0.632287
O48   O     O_R   0.689290 0.366850 0.500000 -0.630450
O49   O     O_2   0.808575 0.086540 0.895634 -0.621537
O50   O     O_R   0.795238 0.083355 0.772010 -0.833065
O51   O     O_2   0.807213 0.911910 0.102950 -0.621708
O52   O     O_R   0.795031 0.916257 0.226610 -0.835949
O53   O     O_2   0.135999 0.910300 0.544150 -0.624327
O54   O     O_R   0.028863 0.882162 0.497366 -0.839828
O55   O     O_2   0.140560 0.095351 0.461248 -0.623706
O56   O     O_R   0.335430 0.719350 0.853840 -0.634923
O57   O     O_R   0.033260 0.123379 0.507680 -0.840379
O58   O     O_2   0.309123 0.586079 0.394968 -0.622217
O59   O     O_R   0.295194 0.583581 0.271370 -0.836657
O60   O     O_2   0.307469 0.411704 0.602623 -0.622811
O61   O     O_R   0.294844 0.415864 0.726249 -0.832947
O62   O     O_2   0.682333 0.335410 0.996973 -0.632839
O63   O     O_R   0.564558 0.328137 0.961635 -0.848179
O64   O     O_2   0.683184 0.666365 0.003616 -0.632432
O65   O     O_R   0.565378 0.673141 0.038896 -0.848643
O66   O     O_R   0.335430 0.719350 0.146160 -0.642369
O67   O     O_R   0.335430 0.280650 0.853840 -0.643320
O68   O     O_R   0.835430 0.780650 0.646160 -0.632357
Zn1   Zn    Zn3+2 0.249990 0.293780 0.913250 0.966884
Zn2   Zn    Zn3+2 0.336760 0.793760 0.000000 0.965510
Zn3   Zn    Zn3+2 0.836760 0.706240 0.500000 0.968975
Zn4   Zn    Zn3+2 0.836760 0.293760 0.500000 0.967501
Zn5   Zn    Zn3+2 0.163250 0.206230 0.000000 0.964758
Zn6   Zn    Zn3+2 0.163250 0.793770 0.000000 0.966355
Zn7   Zn    Zn3+2 0.663250 0.706230 0.500000 0.963159
Zn8   Zn    Zn3+2 0.663250 0.293770 0.500000 0.964392
Zn9   Zn    Zn3+2 0.249990 0.706220 0.086750 0.965829
Zn10  Zn    Zn3+2 0.249990 0.706220 0.913250 0.959993
Zn11  Zn    Zn3+2 0.249990 0.293780 0.086750 0.958893
Zn12  Zn    Zn3+2 0.749990 0.793780 0.413250 0.968667
Zn13  Zn    Zn3+2 0.749990 0.206220 0.586750 0.970130
Zn14  Zn    Zn3+2 0.749990 0.206220 0.413250 0.961308
Zn15  Zn    Zn3+2 0.749990 0.793780 0.586750 0.962881
Zn16  Zn    Zn3+2 0.336760 0.206240 0.000000 0.966385

loop_
_geom_bond_atom_site_label_1
_geom_bond_atom_site_label_2
_ccdc_geom_bond_type
C181  O22   A    
C14   H20   S    
C75   C117  A    
C3    H62   S    
C74   C83   A    
C65   H49   S    
C9    C143  A    
C155  C182  S    
H5    O61   S    
C101  O16   A    
C136  C162  A    
C188  H60   S    
C160  H94   S    
O46   Zn6   S    
C102  H97   S    
O7    Zn10  S    
C58   C60   S    
C29   C33   A    
C101  C128  S    
C118  C153  A    
C61   C63   S    
C62   C64   S    
C131  C140  A    
C175  C188  A    
C130  C167  S    
C109  C127  A    
C162  C171  A    
O23   Zn12  S    
C21   H32   S    
C78   H71   S    
C11   H18   S    
C4    C12   A    
C147  C155  A    
C87   H80   S    
C153  C180  S    
C100  C109  A    
C21   C22   A    
C82   C124  A    
C80   C121  A    
C45   C47   A    
C22   H33   S    
O17   Zn16  S    
C105  H100  S    
C150  C159  A    
C27   C31   A    
O40   Zn15  S    
C28   C32   A    
C127  C136  A    
C106  H101  S    
C39   H45   S    
C123  C126  S    
C180  O24   A    
C58   H17   S    
C33   C50   S    
C51   O48   A    
C120  C155  A    
C76   C118  A    
C82   C91   A    
C89   H82   S    
C142  C151  A    
C19   C23   A    
C43   C44   A    
C92   O50   S    
C37   C38   A    
C49   O32   A    
C134  O68   A    
C2    H86   S    
C146  C154  A    
C23   H34   S    
C100  H96   S    
C122  C158  A    
C164  C173  A    
C163  C172  A    
C112  C125  S    
C46   C84   A    
O21   Zn3   S    
C50   O33   A    
C75   H68   S    
C31   C48   S    
O41   Zn14  S    
C53   C71   S    
O24   Zn6   S    
C107  C120  A    
C15   C149  A    
C123  O67   A    
C141  C168  A    
O23   Zn15  S    
C66   H52   S    
C129  C156  S    
C69   H56   S    
C68   H92   S    
C79   H93   S    
O19   Zn4   S    
C33   C38   A    
C56   C59   S    
C106  C115  A    
C133  C160  A    
C96   O59   S    
C183  O10   A    
C80   C88   A    
O66   Zn9   S    
O4    Zn12  S    
O1    Zn16  S    
C57   C85   A    
C3    C11   A    
O37   Zn10  S    
C88   H81   S    
O10   Zn13  S    
C41   C45   A    
C31   C36   A    
C177  O26   A    
C108  C126  A    
C76   C85   A    
C110  C128  A    
C78   C87   A    
C95   O55   D    
C182  O30   A    
O22   Zn5   S    
C95   O57   S    
C101  O56   A    
O5    Zn1   S    
O18   Zn3   S    
C132  C145  S    
C75   C84   A    
C151  C177  S    
C65   C70   S    
C2    C90   A    
C67   C72   S    
H102  O50   S    
C139  C165  A    
C59   H38   S    
C187  H59   S    
C139  C143  A    
C53   O37   A    
O8    Zn11  S    
C7    C172  A    
C62   H42   S    
C10   C188  A    
C5    C170  A    
C62   C73   S    
C133  C147  A    
C93   O51   D    
C149  C158  A    
O1    Zn5   S    
C94   C175  S    
O16   Zn2   S    
O35   Zn4   S    
C185  O13   A    
C135  C161  A    
C5    H64   S    
O32   Zn2   S    
C67   H54   S    
C115  C132  A    
C167  O18   A    
C113  C130  A    
C30   C34   A    
C34   C39   A    
C17   C27   A    
C12   H19   S    
O42   Zn13  S    
C112  O66   A    
C107  C125  A    
C91   H84   S    
C137  C163  A    
C13   H87   S    
C99   C172  S    
C41   H47   S    
C8    C186  A    
C165  C174  A    
C65   H53   S    
C97   C170  S    
C6    H65   S    
C60   H40   S    
C184  O28   A    
C174  C187  A    
H103  O52   S    
C3    C176  A    
O6    Zn9   S    
C61   H41   S    
C52   O39   A    
C10   C144  A    
C32   C37   A    
C113  C117  A    
C178  H85   S    
C185  O27   A    
C115  C119  A    
C96   C169  S    
C7    H66   S    
C55   O41   A    
C20   H31   S    
C137  C150  A    
C161  C170  A    
C186  H58   S    
C63   H43   S    
C24   H88   S    
C167  O4    A    
C168  C176  A    
C156  O3    A    
C90   H95   S    
C18   C22   A    
C85   H78   S    
C161  H2    S    
C98   O62   D    
C11   C146  A    
C26   C30   A    
C76   H69   S    
C44   H23   S    
C159  C185  S    
C90   C108  A    
C67   H57   S    
C145  O20   A    
C51   O35   A    
O15   Zn2   S    
C180  O7    A    
C50   O47   A    
C34   C36   A    
C148  C157  A    
O27   Zn7   S    
C104  C113  A    
C55   C73   S    
C40   C44   A    
C163  H9    S    
C16   C150  A    
O43   Zn12  S    
O56   Zn10  S    
C116  C151  A    
O12   Zn6   S    
C52   O36   A    
C114  C131  A    
H3    O57   S    
C99   O64   D    
C18   C26   A    
C97   O60   D    
C108  C121  A    
C131  C134  S    
C136  C149  A    
O36   Zn11  S    
C26   C27   A    
O48   Zn8   S    
C123  O14   A    
C54   O40   A    
C61   H50   S    
C12   C147  A    
O12   Zn10  S    
C28   C29   A    
C35   C103  A    
C145  O2    A    
C58   C71   S    
C20   C25   A    
O34   Zn13  S    
H104  O54   S    
C154  C181  S    
C132  C141  A    
C103  C111  A    
O20   Zn4   S    
C110  C124  A    
C111  C129  A    
C94   O53   D    
O23   Zn7   S    
C160  C169  A    
C69   C73   S    
C111  C116  A    
O31   Zn16  S    
C74   H67   S    
O68   Zn15  S    
C81   C89   A    
C48   O44   A    
C177  O5    A    
C86   H79   S    
C130  C139  A    
C164  H10   S    
C140  C166  A    
C40   H46   S    
C138  C142  A    
C64   H44   S    
C35   C83   A    
C59   H28   S    
C69   H55   S    
C63   C73   S    
C9    C187  A    
C46   C104  A    
C95   C176  S    
C32   C51   S    
O1    Zn1   S    
C66   C71   S    
C45   H26   S    
C79   C107  A    
C19   H30   S    
C43   H24   S    
C134  O21   A    
C5    C14   A    
C58   H37   S    
O34   Zn8   S    
C141  C146  A    
C61   C72   S    
C143  C152  A    
C156  O19   A    
C126  C135  A    
O39   Zn1   S    
C119  C154  A    
C102  C110  A    
C19   C29   A    
C1    O17   A    
C140  C144  A    
C4    H63   S    
C20   C28   A    
C81   C122  A    
C152  C179  S    
C16   H22   S    
C92   O49   D    
C87   C178  A    
O13   Zn15  S    
O26   Zn5   S    
C112  O15   A    
C47   H25   S    
C46   H90   S    
C24   C102  A    
C17   C21   A    
O28   Zn8   S    
C184  O11   A    
C162  H8    S    
C8    C142  A    
C157  C183  S    
C158  C184  S    
C49   O46   A    
C57   C105  A    
C66   H51   S    
C68   C86   A    
C78   C120  A    
O33   Zn3   S    
O29   Zn8   S    
O14   Zn16  S    
C182  O9    A    
C99   O65   S    
C38   C42   A    
C165  H11   S    
C109  C122  A    
C124  C159  A    
C14   C148  A    
C93   C174  S    
C168  H13   S    
C54   O43   A    
C144  C153  A    
C9    H15   S    
C6    C15   A    
C42   H48   S    
C62   H61   S    
O12   Zn2   S    
C129  C138  A    
O44   Zn5   S    
C2    C88   A    
O30   Zn7   S    
C96   O58   D    
C179  O25   A    
C23   C25   A    
C81   H74   S    
C121  C157  A    
C37   C41   A    
O45   Zn11  S    
C83   H76   S    
C68   C106  A    
O25   Zn6   S    
C6    C171  A    
O11   Zn14  S    
C48   O31   A    
C173  C186  A    
C4    C169  A    
C105  C114  A    
C36   C40   A    
C98   O63   S    
C56   H36   S    
C39   C43   A    
O3    Zn13  S    
O38   Zn9   S    
O23   Zn3   S    
C67   C69   S    
C128  C137  A    
C103  H98   S    
C166  C175  A    
C64   H83   S    
C97   O61   S    
C53   O38   A    
C60   C70   S    
C74   C116  A    
C79   C178  A    
O67   Zn1   S    
C93   O52   S    
H7    O65   S    
C114  C118  A    
C98   C171  S    
C57   H91   S    
C183  O29   A    
C77   C86   A    
C135  C148  A    
C56   C70   S    
C77   H70   S    
O47   Zn7   S    
C1    O45   A    
C24   C91   A    
C125  C133  A    
C56   H1    S    
C7    C16   A    
C35   H89   S    
C181  O8    A    
C13   C89   A    
C30   C49   S    
C179  O6    A    
C80   H73   S    
C1    C127  S    
C77   C119  A    
H6    O63   S    
O1    Zn11  S    
C92   C173  S    
C60   H39   S    
C13   C100  A    
C8    H14   S    
C15   H21   S    
O34   Zn4   S    
C63   H72   S    
O9    Zn12  S    
O34   Zn14  S    
C84   H77   S    
C25   H35   S    
C117  C152  A    
C42   C47   A    
C64   C72   S    
C166  H12   S    
C52   C70   S    
C104  H99   S    
O2    Zn14  S    
C94   O54   S    
C54   C72   S    
C65   C66   S    
C82   H75   S    
C55   O42   A    
C138  C164  A    
C17   H27   S    
C18   H29   S    
C10   H16   S    
H4    O59   S    
C59   C71   S    
O12   Zn9   S    
