data_mof_unit_pretest_886.cif
_audit_creation_date              2012-12-10T19:48:35-0500
_audit_creation_method            fapswitch 2.2
_symmetry_space_group_name_H-M    P1
_symmetry_Int_Tables_number       1
_space_group_crystal_system       triclinic
_cell_length_a                    13.138475
_cell_length_b                    14.160128
_cell_length_c                    14.921351
_cell_angle_alpha                 90.596177
_cell_angle_beta                  91.360685
_cell_angle_gamma                 70.163559
_cell_volume                      2610.54690094

loop_
_atom_site_label
_atom_site_type_symbol
_atom_type_description
_atom_site_fract_x
_atom_site_fract_y
_atom_site_fract_z
_atom_type_partial_charge
C1    C     C_R   0.502947 0.499461 0.672498 0.850739
C2    C     C_R   0.981993 0.458334 0.525980 0.075919
C3    C     C_R   0.872965 0.480928 0.546484 -0.024589
C4    C     C_R   0.024774 0.537522 0.526220 0.021285
C5    C     C_R   0.964054 0.634903 0.559570 0.002795
C6    C     C_R   0.862115 0.649139 0.597693 0.148156
C7    C     C_R   0.818465 0.572132 0.590349 -0.167187
C8    C     C_R   0.127187 0.521504 0.492929 -0.251501
C9    C     C_R   0.119657 0.687825 0.535368 -0.297206
C10   C     C_R   0.821950 0.409964 0.525945 -0.294064
C11   C     C_R   0.599183 0.396150 0.898907 -0.178381
C12   C     C_R   0.704143 0.444773 0.508911 0.889929
C13   C     C_R   0.577486 0.401380 0.807675 -0.204690
C14   C     C_R   0.521650 0.494346 0.767988 -0.020341
C15   C     C_R   0.490149 0.582386 0.819043 -0.203663
C16   C     C_R   0.510313 0.576964 0.910515 -0.169349
C17   C     C_R   0.563525 0.483631 0.950820 0.161496
C18   C     C_R   0.594628 0.549169 0.098379 -0.186201
C19   C     C_R   0.578418 0.556155 0.190345 0.145949
C20   C     C_R   0.534919 0.488278 0.231850 -0.184553
C21   C     C_R   0.523221 0.407390 0.181228 0.446130
C22   C     C_R   0.536558 0.404574 0.089399 -0.260498
C23   C     C_R   0.508473 0.497078 0.327367 0.914114
C24   C     C_R   0.568972 0.476899 0.047805 -0.012933
C25   C     C_R   0.429493 0.917040 0.558365 0.138166
C26   C     C_R   0.426175 0.818429 0.549849 -0.013011
C27   C     C_R   0.580688 0.770309 0.459380 0.005933
C28   C     C_R   0.586985 0.867376 0.465117 -0.351959
C29   C     C_R   0.511091 0.942562 0.514628 0.127862
C30   C     C_R   0.444030 0.114685 0.441710 0.138219
C31   C     C_R   0.438172 0.217340 0.440530 0.286297
C32   C     C_R   0.560484 0.189547 0.564731 -0.023441
C33   C     C_R   0.565172 0.088780 0.570252 -0.369562
C34   C     C_R   0.295484 0.555723 0.499087 0.914207
C35   C     C_R   0.507757 0.049740 0.508338 0.099460
C36   C     C_R   0.010366 0.712428 0.555679 0.510664
C37   C     C_R   0.178424 0.591102 0.506512 -0.139542
C38   C     C_R   0.886015 0.308117 0.515075 0.469154
C39   C     C_R   0.997881 0.281944 0.504924 0.152473
C40   C     C_R   0.044709 0.356950 0.507938 -0.275094
H1    H     H_    0.157890 0.744450 0.541843 0.170025
H2    H     H_    0.604956 0.333073 0.768175 0.137091
H3    H     H_    0.447855 0.654661 0.788593 0.150659
H4    H     H_    0.480515 0.644977 0.950135 0.134353
H5    H     H_    0.624135 0.602251 0.065132 0.144776
H6    H     H_    0.516958 0.347889 0.050363 0.154197
H7    H     H_    0.364950 0.797768 0.583807 0.126810
H8    H     H_    0.641222 0.712942 0.422648 0.145714
H9    H     H_    0.649659 0.884286 0.429633 0.148509
H10   H     H_    0.604284 0.218112 0.613771 0.143648
H11   H     H_    0.613545 0.041326 0.623008 0.171828
H12   H     H_    0.171053 0.453112 0.458585 0.162413
H13   H     H_    0.131344 0.332808 0.502117 0.159454
H14   H     H_    0.742211 0.582569 0.622190 0.173652
H15   H     H_    0.641421 0.323831 0.929267 0.128743
N1    N     N_R   0.500000 0.747530 0.500020 -0.106853
N2    N     N_R   0.499940 0.252470 0.500020 -0.105981
O1    O     O_R   0.499990 0.420530 0.630930 -0.626193
O2    O     O_R   0.499990 0.579480 0.630940 -0.627984
O3    O     O_R   0.653620 0.381060 0.499970 -0.578700
O4    O     O_R   0.653620 0.540010 0.499980 -0.629607
O5    O     O_R   0.500010 0.420520 0.369060 -0.597919
O6    O     O_R   0.500010 0.579470 0.369070 -0.613559
O7    O     O_R   0.346380 0.459990 0.500020 -0.620802
O8    O     O_R   0.346380 0.618940 0.500030 -0.619564
Zn1   Zn    Zn3+2 0.500000 0.393860 0.499990 0.947772
Zn2   Zn    Zn3+2 0.500000 0.606140 0.500010 0.923412
C41   C     C_3   0.611270 0.634560 0.240952 -0.862630
H16   H     H_    0.667340 0.598677 0.297268 0.240759
H17   H     H_    0.654735 0.671309 0.197962 0.218976
H18   H     H_    0.538679 0.694676 0.265855 0.257422
O9    O     O_3   0.492500 0.333345 0.219885 -0.649823
C42   C     C_3   0.584613 0.246214 0.234640 0.113837
H19   H     H_    0.587962 0.226837 0.306819 0.188709
H20   H     H_    0.663904 0.255380 0.220141 0.115613
C43   C     C_3   0.573156 0.158943 0.178931 -0.364681
H21   H     H_    0.491159 0.154425 0.187114 0.228977
H22   H     H_    0.583130 0.172111 0.106918 0.211077
C44   C     C_3   0.657492 0.059274 0.207374 -0.973479
H23   H     H_    0.740350 0.061658 0.198906 0.271627
H24   H     H_    0.647883 0.997714 0.165130 0.267893
H25   H     H_    0.646781 0.043154 0.278604 0.268253
C45   C     C_3   0.345994 0.993714 0.612973 -0.939462
H26   H     H_    0.386644 0.021026 0.668449 0.252171
H27   H     H_    0.299769 0.058112 0.570031 0.256918
H28   H     H_    0.287871 0.961843 0.642411 0.233797
C46   C     C_3   0.799891 0.741755 0.650272 -0.830618
H29   H     H_    0.732502 0.730800 0.687462 0.216823
H30   H     H_    0.854005 0.759853 0.700738 0.260976
H31   H     H_    0.763100 0.806075 0.604668 0.247443
C47   C     C_3   0.382114 0.075951 0.371349 -0.940047
H32   H     H_    0.412188 0.083032 0.303842 0.244354
H33   H     H_    0.390444 0.996076 0.379402 0.256846
H34   H     H_    0.294438 0.119453 0.373559 0.243522
C48   C     C_3   0.357794 0.286366 0.375536 -0.804794
H35   H     H_    0.357864 0.363129 0.374432 0.292319
H36   H     H_    0.373358 0.257293 0.306241 0.251617
H37   H     H_    0.274841 0.290345 0.392768 0.190560
O10   O     O_3   0.951991 0.811799 0.573613 -0.654854
C49   C     C_3   0.895727 0.857871 0.494556 0.057386
H38   H     H_    0.823328 0.920803 0.515564 0.166814
H39   H     H_    0.864217 0.807075 0.453336 0.121358
C50   C     C_3   0.966188 0.899729 0.437435 -0.359828
H40   H     H_    0.007388 0.940652 0.480618 0.231229
H41   H     H_    0.029289 0.836837 0.404322 0.214947
C51   C     C_3   0.898523 0.970790 0.365394 -0.949685
H42   H     H_    0.857780 0.930745 0.320723 0.263594
H43   H     H_    0.951759 0.998803 0.324486 0.267259
H44   H     H_    0.836513 0.036176 0.396590 0.279725
O11   O     O_3   0.841394 0.232907 0.519068 -0.626677
C52   C     C_3   0.836912 0.208216 0.610393 0.076336
H45   H     H_    0.760061 0.258747 0.638779 0.142808
H46   H     H_    0.905267 0.215838 0.652541 0.121357
C53   C     C_3   0.842344 0.099137 0.616720 -0.319303
H47   H     H_    0.782557 0.085995 0.569091 0.229295
H48   H     H_    0.924187 0.049347 0.597628 0.231143
C54   C     C_3   0.820275 0.072316 0.711356 -0.972653
H49   H     H_    0.881734 0.082211 0.759445 0.267911
H50   H     H_    0.824471 0.992676 0.712893 0.284671
H51   H     H_    0.738417 0.120521 0.732272 0.248509
C55   C     C_3   0.066874 0.174059 0.490196 -0.871251
H52   H     H_    0.064475 0.128583 0.549704 0.238578
H53   H     H_    0.036349 0.143711 0.430413 0.257955
H54   H     H_    0.152418 0.166353 0.479014 0.221344

loop_
_geom_bond_atom_site_label_1
_geom_bond_atom_site_label_2
_ccdc_geom_bond_type
C27   H8    S    
C46   H29   S    
C34   C37   S    
C42   H19   S    
C52   H45   S    
C43   C44   S    
N2    Zn1   S    
C4    C8    A    
C53   H47   S    
C48   H37   S    
C54   H49   S    
C30   C35   A    
C18   C24   A    
C28   C29   A    
C43   H22   S    
C3    C7    A    
C1    O2    A    
C30   C31   A    
C51   H42   S    
C15   C16   A    
C5    C36   A    
C18   C19   A    
O11   C52   S    
C55   H54   S    
C50   H40   S    
O2    Zn2   S    
C41   H16   S    
O1    Zn1   S    
C23   O5    A    
C19   C20   A    
C16   C17   A    
O8    Zn2   S    
C9    C36   A    
C38   O11   S    
C16   H4    S    
C23   O6    A    
O3    Zn1   S    
C13   C14   A    
C42   H20   S    
C52   C53   S    
C32   N2    A    
C34   O8    A    
C34   O7    A    
C13   H2    S    
C25   C29   A    
C38   C39   A    
O6    Zn2   S    
C17   C24   S    
O5    Zn1   S    
C21   O9    S    
C43   H21   S    
C52   H46   S    
C54   H51   S    
C47   H32   S    
C44   H24   S    
C27   N1    A    
O9    C42   S    
C36   O10   S    
C25   C26   A    
C49   C50   S    
C6    C46   S    
O7    Zn1   S    
C2    C4    A    
C47   H33   S    
C28   H9    S    
O4    Zn2   S    
C45   H26   S    
C20   C23   S    
C49   H39   S    
C19   C41   S    
C50   H41   S    
C32   H10   S    
C55   H52   S    
C10   C12   S    
C26   H7    S    
C22   H6    S    
C46   H30   S    
C42   C43   S    
C22   C24   A    
C8    C37   A    
C18   H5    S    
C39   C40   A    
C11   H15   S    
C9    C37   A    
C8    H12   S    
C11   C17   A    
C45   H27   S    
C30   C47   S    
C26   N1    A    
C44   H25   S    
C53   H48   S    
C48   H36   S    
C6    C7    A    
C33   H11   S    
N1    Zn2   S    
C29   C35   S    
C9    H1    S    
C39   C55   S    
O10   C49   S    
C10   C38   A    
C32   C33   A    
C31   N2    A    
C54   H50   S    
C2    C3    A    
C15   H3    S    
C3    C10   A    
C1    O1    A    
C47   H34   S    
C12   O4    A    
C11   C13   A    
C5    C6    A    
C51   H43   S    
C41   H18   S    
C31   C48   S    
C49   H38   S    
C33   C35   A    
C50   C51   S    
C55   H53   S    
C53   C54   S    
C44   H23   S    
C12   O3    A    
C2    C40   A    
C4    C5    A    
C45   H28   S    
C20   C21   A    
C41   H17   S    
C40   H13   S    
C46   H31   S    
C48   H35   S    
C25   C45   S    
C14   C15   A    
C1    C14   S    
C7    H14   S    
C21   C22   A    
C27   C28   A    
C51   H44   S    
