data_mof_unit_pretest_1422.cif
_audit_creation_date              2012-10-26T20:00:56-0400
_audit_creation_method            fapswitch 2.2
_symmetry_space_group_name_H-M    P1
_symmetry_Int_Tables_number       1
_space_group_crystal_system       triclinic
_cell_length_a                    11.666529
_cell_length_b                    13.003779
_cell_length_c                    13.447761
_cell_angle_alpha                 91.994636
_cell_angle_beta                  76.488471
_cell_angle_gamma                 99.814005
_cell_volume                      1954.62516291

loop_
_atom_site_label
_atom_site_type_symbol
_atom_type_description
_atom_site_fract_x
_atom_site_fract_y
_atom_site_fract_z
_atom_type_partial_charge
C1    C     C_R   0.520821 0.700862 0.501590 0.545827
C2    C     C_R   0.397214 0.494917 0.808469 -0.002194
C3    C     C_R   0.467093 0.185726 0.497762 0.000288
C4    C     C_R   0.436549 0.499322 0.696119 0.536490
C5    C     C_R   0.532759 0.814249 0.502719 0.000355
C6    C     C_R   0.651814 0.984586 0.511575 -0.138422
C7    C     C_R   0.641013 0.876500 0.510788 -0.138277
C8    C     C_R   0.435183 0.860784 0.495665 -0.129832
C9    C     C_R   0.445292 0.968795 0.496390 0.048207
C10   C     C_R   0.554480 0.031172 0.504352 0.048329
C11   C     C_R   0.564627 0.139190 0.504955 -0.130030
C12   C     C_R   0.447090 0.501388 0.976103 0.036135
C13   C     C_R   0.358780 0.123459 0.489874 -0.136880
C14   C     C_R   0.347943 0.015374 0.489203 -0.138530
C15   C     C_R   0.947573 0.601300 0.590760 -0.175225
C16   C     C_R   0.479128 0.299132 0.498571 0.551644
C17   C     C_R   0.828463 0.591404 0.582194 0.049514
C18   C     C_R   0.856156 0.455370 0.461591 0.044652
C19   C     C_R   0.976982 0.463004 0.467127 0.008040
C20   C     C_R   0.023000 0.536799 0.532936 0.008141
C21   C     C_R   0.143651 0.544222 0.538783 0.044662
C22   C     C_R   0.172181 0.409558 0.416652 0.043410
C23   C     C_R   0.476389 0.533103 0.872035 0.029529
C24   C     C_R   0.052786 0.399151 0.408592 -0.178154
C25   C     C_R   0.563811 0.505764 0.304182 0.547758
C26   C     C_R   0.734694 0.614533 0.047337 -0.131873
C27   C     C_R   0.600991 0.522485 0.193585 -0.001495
C28   C     C_R   0.282846 0.440680 0.852233 -0.132634
C29   C     C_R   0.249202 0.418877 0.956222 -0.141744
C30   C     C_R   0.330489 0.446586 0.017424 -0.118588
C31   C     C_R   0.535260 0.526656 0.034603 0.032133
C32   C     C_R   0.646701 0.589515 0.990811 0.052437
C33   C     C_R   0.667901 0.629309 0.892197 -0.140320
C34   C     C_R   0.583155 0.603188 0.834450 -0.121847
C35   C     C_R   0.516296 0.491555 0.135519 -0.128010
C36   C     C_R   0.711722 0.581592 0.148567 -0.136965
Cu1   Cu    Cu3+1 0.386470 0.492430 0.492410 0.930825
Cu2   Cu    Cu3+1 0.613530 0.507570 0.507590 0.932083
H1    H     H_    0.777938 0.606513 0.192880 0.129183
H2    H     H_    0.020164 0.341689 0.357072 0.082638
H3    H     H_    0.771685 0.642502 0.625814 0.111693
H4    H     H_    0.750271 0.681308 0.859559 0.097874
H5    H     H_    0.819721 0.399057 0.411104 0.113943
H6    H     H_    0.819823 0.662455 0.014214 0.106258
H7    H     H_    0.435040 0.441581 0.172279 0.109949
H8    H     H_    0.220286 0.412062 0.805405 0.133155
H9    H     H_    0.298048 0.425573 0.097007 0.099031
H10   H     H_    0.160562 0.377052 0.989178 0.115879
H11   H     H_    0.601131 0.640807 0.760846 0.126134
H12   H     H_    0.282466 0.158154 0.484192 0.127724
H13   H     H_    0.648585 0.186778 0.511041 0.120526
H14   H     H_    0.735974 0.031596 0.517773 0.102680
H15   H     H_    0.263766 0.968358 0.483060 0.102463
H16   H     H_    0.717322 0.841794 0.516464 0.126290
H17   H     H_    0.351244 0.813201 0.489518 0.120305
H18   H     H_    0.179956 0.600296 0.589538 0.113440
H19   H     H_    0.230015 0.359999 0.371380 0.119067
H20   H     H_    0.980439 0.659281 0.641728 0.081210
N1    N     N_R   0.215880 0.481050 0.481000 -0.228402
N2    N     N_R   0.784100 0.518950 0.519000 -0.227904
O1    O     O_R   0.419710 0.645650 0.494620 -0.508633
O2    O     O_R   0.611450 0.658430 0.507430 -0.515163
O3    O     O_R   0.357340 0.490460 0.641450 -0.505437
O4    O     O_R   0.549080 0.503250 0.654260 -0.499816
O5    O     O_R   0.388550 0.341570 0.492570 -0.509218
O6    O     O_R   0.580290 0.354350 0.505380 -0.506892
O7    O     O_R   0.450920 0.496750 0.345740 -0.503608
O8    O     O_R   0.642660 0.509540 0.358550 -0.503810

loop_
_geom_bond_atom_site_label_1
_geom_bond_atom_site_label_2
_ccdc_geom_bond_type
C6    C10   A    
C21   H18   S    
Cu1   O1    S    
C9    C14   A    
C26   C32   A    
C6    C7    A    
C27   C36   A    
C25   C27   S    
C29   C30   A    
C2    C28   A    
C9    C10   A    
C4    O4    A    
C2    C4    S    
C19   C20   A    
C3    C13   A    
C3    C11   A    
C23   C34   A    
C27   C35   A    
C32   C33   A    
C2    C23   A    
C22   H19   S    
C19   C24   A    
C26   H6    S    
C18   H5    S    
C1    O2    A    
C4    O3    A    
C28   H8    S    
Cu1   N1    S    
C25   O8    A    
Cu2   N2    S    
C33   H4    S    
Cu1   O7    S    
C8    H17   S    
C26   C36   A    
C28   C29   A    
Cu1   O3    S    
Cu1   Cu2   S    
Cu2   O8    S    
C21   N1    A    
C22   C24   A    
C12   C31   A    
C15   C20   A    
C15   H20   S    
C31   C35   A    
C17   H3    S    
C11   H13   S    
C10   C11   A    
C17   N2    A    
C13   H12   S    
C35   H7    S    
Cu2   O6    S    
C30   H9    S    
C1    C5    S    
C14   H15   S    
C33   C34   A    
C20   C21   A    
C25   O7    A    
C5    C7    A    
C18   C19   A    
C18   N2    A    
C22   N1    A    
C15   C17   A    
Cu2   O4    S    
C5    C8    A    
C24   H2    S    
C16   O6    A    
C12   C23   A    
C16   O5    A    
C29   H10   S    
C7    H16   S    
C6    H14   S    
C13   C14   A    
Cu2   O2    S    
C12   C30   A    
C36   H1    S    
C3    C16   S    
C31   C32   A    
Cu1   O5    S    
C8    C9    A    
C34   H11   S    
C1    O1    A    
