data_mof_unit_pretest_410.cif
_audit_creation_date              2012-12-11T17:08:00-0500
_audit_creation_method            fapswitch 2.2
_symmetry_space_group_name_H-M    P1
_symmetry_Int_Tables_number       1
_space_group_crystal_system       triclinic
_cell_length_a                    17.44841
_cell_length_b                    17.387264
_cell_length_c                    17.550378
_cell_angle_alpha                 89.518419
_cell_angle_beta                  90.76217
_cell_angle_gamma                 90.154853
_cell_volume                      5323.75861286

loop_
_atom_site_label
_atom_site_type_symbol
_atom_type_description
_atom_site_fract_x
_atom_site_fract_y
_atom_site_fract_z
_atom_type_partial_charge
C1    C     C_R   0.422533 0.333761 0.855413 0.478992
C2    C     C_R   0.694241 0.399191 0.891299 0.494571
C3    C     C_R   0.602128 0.694163 0.889563 0.504729
C4    C     C_R   0.302695 0.607810 0.900725 0.486548
C5    C     C_R   0.406153 0.686831 0.124495 0.527321
C6    C     C_R   0.679572 0.590349 0.135198 0.507383
C7    C     C_R   0.587789 0.321647 0.136075 0.497783
C8    C     C_R   0.302803 0.390499 0.093693 0.471670
C9    C     C_R   0.889426 0.802225 0.405393 0.533308
C10   C     C_R   0.176622 0.915607 0.363634 0.461063
C11   C     C_R   0.079747 0.171473 0.358363 0.438299
C12   C     C_R   0.807016 0.104272 0.386496 0.447573
C13   C     C_R   0.912736 0.178049 0.635030 0.526954
C14   C     C_R   0.195094 0.102958 0.608231 0.517297
C15   C     C_R   0.106679 0.802194 0.598705 0.624369
C16   C     C_R   0.828845 0.917926 0.641104 0.503442
C17   C     C_3   0.741197 0.309466 0.641262 -0.391727
C18   C     C_3   0.729448 0.731579 0.643404 -0.417438
C19   C     C_3   0.309593 0.683009 0.636359 -0.420172
C20   C     C_3   0.201403 0.174090 0.800059 -0.411699
C21   C     C_3   0.748979 0.632315 0.410955 -0.518236
C22   C     C_3   0.639700 0.224462 0.400846 -0.374882
C23   C     C_3   0.126897 0.322149 0.261854 -0.356968
C24   C     C_3   0.276558 0.737065 0.379501 -0.450073
C25   C     C_3   0.326699 0.684301 0.333061 -0.434656
C26   C     C_3   0.173835 0.364933 0.204611 -0.415783
C27   C     C_3   0.589622 0.277664 0.354139 -0.458552
C28   C     C_3   0.704130 0.587521 0.353185 -0.406464
C29   C     C_3   0.249317 0.223897 0.853207 -0.398462
C30   C     C_3   0.347617 0.649946 0.707704 -0.451722
C31   C     C_3   0.679856 0.685163 0.697642 -0.442192
C32   C     C_3   0.697500 0.353746 0.700893 -0.443788
C33   C     C_R   0.392334 0.697682 0.899876 0.251549
C34   C     C_R   0.326203 0.417505 0.858095 0.199004
C35   C     C_R   0.610181 0.304102 0.897928 0.325129
C36   C     C_R   0.696643 0.609059 0.899593 0.275103
C37   C     C_R   0.392452 0.301113 0.095234 0.426800
C38   C     C_R   0.312066 0.598922 0.122451 0.278377
C39   C     C_R   0.595457 0.686911 0.125087 0.401764
C40   C     C_R   0.686312 0.404192 0.126160 0.414839
C41   C     C_R   0.890315 0.197529 0.404044 0.301114
C42   C     C_R   0.800876 0.892439 0.408173 0.268373
C43   C     C_R   0.087489 0.823238 0.362061 0.182846
C44   C     C_R   0.181045 0.094058 0.367829 0.292971
C45   C     C_R   0.915998 0.824246 0.640094 0.223771
C46   C     C_R   0.812373 0.098851 0.622555 0.331078
C47   C     C_R   0.109547 0.196761 0.601482 0.323382
C48   C     C_R   0.196522 0.891595 0.603180 0.277938
C49   C     C_R   0.361526 0.362722 0.814286 -0.087007
C50   C     C_R   0.682904 0.323973 0.876271 -0.128092
C51   C     C_R   0.677788 0.682167 0.876259 -0.116035
C52   C     C_R   0.317272 0.683288 0.882649 -0.044034
C53   C     C_R   0.336452 0.667104 0.153882 -0.148013
C54   C     C_R   0.653588 0.656608 0.170767 -0.218856
C55   C     C_R   0.654898 0.346647 0.171912 -0.224327
C56   C     C_R   0.318264 0.315320 0.115831 -0.217641
C57   C     C_R   0.812819 0.817872 0.388765 -0.171862
C58   C     C_R   0.148931 0.854654 0.323534 0.011491
C59   C     C_R   0.143360 0.147366 0.320580 -0.050320
C60   C     C_R   0.820230 0.180698 0.373430 -0.032385
C61   C     C_R   0.843356 0.157742 0.664396 -0.127822
C62   C     C_R   0.183225 0.178579 0.622846 -0.134862
C63   C     C_R   0.180611 0.816420 0.620718 -0.195354
C64   C     C_R   0.858390 0.856849 0.681655 -0.059562
C65   C     C_R   0.747477 0.314077 0.758389 0.068829
C66   C     C_R   0.702052 0.742206 0.757220 0.064596
C67   C     C_R   0.317445 0.718078 0.749012 0.074095
C68   C     C_R   0.294807 0.246105 0.784820 0.116676
C69   C     C_R   0.726016 0.646163 0.294191 0.094493
C70   C     C_R   0.645192 0.270846 0.289964 0.031677
C71   C     C_R   0.191460 0.288957 0.169012 0.005464
C72   C     C_R   0.309455 0.736020 0.266780 0.049093
C73   C     C_R   0.264280 0.782808 0.307825 0.182035
C74   C     C_R   0.147393 0.249888 0.220993 0.167564
C75   C     C_R   0.691754 0.223351 0.334492 0.206987
C76   C     C_R   0.766666 0.688873 0.349087 0.146899
C77   C     C_R   0.252584 0.201269 0.737792 0.048413
C78   C     C_R   0.283533 0.747823 0.684741 0.169205
C79   C     C_R   0.746623 0.783018 0.709314 0.122832
C80   C     C_R   0.786218 0.274201 0.705785 0.099372
C81   C     C_R   0.731592 0.281465 0.828798 -0.084739
C82   C     C_R   0.723800 0.732797 0.832763 -0.087137
C83   C     C_R   0.281245 0.721781 0.819175 -0.116762
C84   C     C_R   0.322263 0.316644 0.759527 -0.067280
C85   C     C_R   0.671898 0.683527 0.247823 -0.068987
C86   C     C_R   0.678427 0.332324 0.250773 -0.035830
C87   C     C_R   0.263041 0.260555 0.147972 -0.049076
C88   C     C_R   0.289393 0.719240 0.192450 -0.081524
C89   C     C_R   0.197616 0.812894 0.275385 -0.036525
C90   C     C_R   0.170376 0.177827 0.248461 -0.037947
C91   C     C_R   0.770519 0.236335 0.337409 -0.100637
C92   C     C_R   0.753933 0.768162 0.354681 -0.077302
C93   C     C_R   0.236190 0.225319 0.664108 -0.073993
C94   C     C_R   0.212406 0.782282 0.688656 -0.090979
C95   C     C_R   0.814185 0.816046 0.735766 -0.090450
C96   C     C_R   0.806171 0.198747 0.721556 -0.082097
C97   C     C_R   0.182172 0.806865 0.197048 0.366029
C98   C     C_R   0.229072 0.139616 0.210748 0.317925
C99   C     C_R   0.801889 0.302454 0.302539 0.379048
C100  C     C_R   0.690735 0.801192 0.314353 0.386849
C101  C     C_R   0.275438 0.288478 0.631926 0.403758
C102  C     C_R   0.179650 0.797444 0.760390 0.353737
C103  C     C_R   0.829391 0.821591 0.814387 0.363904
C104  C     C_R   0.802968 0.168432 0.796076 0.357176
C105  C     C_R   0.768304 0.213595 0.852686 0.388222
C106  C     C_R   0.783418 0.777339 0.864714 0.389995
C107  C     C_R   0.213507 0.764104 0.826864 0.388902
C108  C     C_R   0.320773 0.335248 0.681386 0.346718
C109  C     C_R   0.641665 0.752931 0.273046 0.351736
C110  C     C_R   0.751607 0.357491 0.272594 0.333985
C111  C     C_R   0.283874 0.185319 0.173115 0.381294
C112  C     C_R   0.231985 0.761263 0.153442 0.382043
H1    H     H_    0.777285 0.347085 0.604815 0.219654
H2    H     H_    0.695833 0.761458 0.597834 0.212499
H3    H     H_    0.261309 0.647284 0.614405 0.195975
H4    H     H_    0.141377 0.194477 0.792552 0.209852
H5    H     H_    0.800692 0.600942 0.431747 0.229354
H6    H     H_    0.613036 0.167328 0.411584 0.251671
H7    H     H_    0.065160 0.337129 0.256127 0.247995
H8    H     H_    0.309171 0.769952 0.423304 0.218735
H9    H     H_    0.302327 0.625592 0.325832 0.204533
H10   H     H_    0.224776 0.393616 0.230615 0.200156
H11   H     H_    0.586854 0.336913 0.377423 0.194301
H12   H     H_    0.641512 0.586359 0.364465 0.186545
H13   H     H_    0.283673 0.189792 0.895063 0.220870
H14   H     H_    0.411256 0.650217 0.705385 0.201118
H15   H     H_    0.702539 0.626606 0.710139 0.200797
H16   H     H_    0.636289 0.336383 0.705138 0.201949
H17   H     H_    0.704848 0.267773 0.609727 0.205774
H18   H     H_    0.780058 0.699440 0.623299 0.206358
H19   H     H_    0.351246 0.702251 0.592725 0.206893
H20   H     H_    0.207826 0.111476 0.811678 0.209354
H21   H     H_    0.712972 0.656805 0.456605 0.199464
H22   H     H_    0.665886 0.252227 0.451844 0.183676
H23   H     H_    0.151421 0.324760 0.320633 0.200066
H24   H     H_    0.223516 0.708798 0.400250 0.214257
H25   H     H_    0.388205 0.686440 0.350278 0.205739
H26   H     H_    0.137948 0.401933 0.166667 0.251110
H27   H     H_    0.532901 0.252146 0.339370 0.234818
H28   H     H_    0.729004 0.530284 0.342687 0.238903
H29   H     H_    0.216829 0.272358 0.877732 0.210418
H30   H     H_    0.321612 0.594805 0.727140 0.215665
H31   H     H_    0.617729 0.687803 0.683017 0.198875
H32   H     H_    0.708294 0.416762 0.698728 0.203210
N1    N     N_R   0.425360 0.368540 0.922560 -0.103295
N2    N     N_R   0.631460 0.425360 0.922560 -0.114688
N3    N     N_R   0.574640 0.631460 0.922560 -0.112400
N4    N     N_R   0.368540 0.574640 0.922560 -0.110154
N5    N     N_R   0.425360 0.631460 0.077440 -0.116059
N6    N     N_R   0.631460 0.574640 0.077440 -0.114538
N7    N     N_R   0.574640 0.368540 0.077440 -0.113814
N8    N     N_R   0.368540 0.425360 0.077440 -0.109817
N9    N     N_R   0.925360 0.868540 0.422560 -0.100344
N10   N     N_R   0.131460 0.925360 0.422560 -0.146995
N11   N     N_R   0.074640 0.131460 0.422560 -0.121577
N12   N     N_R   0.868540 0.074640 0.422560 -0.126175
N13   N     N_R   0.925360 0.131460 0.577440 -0.109011
N14   N     N_R   0.131460 0.074640 0.577440 -0.104854
N15   N     N_R   0.074640 0.868540 0.577440 -0.092395
N16   N     N_R   0.868540 0.925360 0.577440 -0.105265
N17   N     N_R   0.425340 0.631500 0.922560 -0.125300
N18   N     N_R   0.368500 0.425340 0.922560 -0.097354
N19   N     N_R   0.574660 0.368500 0.922560 -0.124518
N20   N     N_R   0.631500 0.574660 0.922560 -0.123997
N21   N     N_R   0.425340 0.368500 0.077440 -0.135474
N22   N     N_R   0.368500 0.574660 0.077440 -0.110685
N23   N     N_R   0.574660 0.631500 0.077440 -0.142187
N24   N     N_R   0.631500 0.425340 0.077440 -0.138736
N25   N     N_R   0.925340 0.131500 0.422560 -0.111958
N26   N     N_R   0.868500 0.925340 0.422560 -0.133070
N27   N     N_R   0.074660 0.868500 0.422560 -0.098173
N28   N     N_R   0.131500 0.074660 0.422560 -0.127280
N29   N     N_R   0.925340 0.868500 0.577440 -0.111499
N30   N     N_R   0.868500 0.074660 0.577440 -0.121530
N31   N     N_R   0.074660 0.131500 0.577440 -0.115108
N32   N     N_R   0.131500 0.925340 0.577440 -0.106006
Ni1   Ni    Ni4+2 0.500000 0.369720 0.000000 0.268969
Ni2   Ni    Ni4+2 0.630280 0.500000 0.000000 0.274241
Ni3   Ni    Ni4+2 0.500000 0.630280 0.000000 0.282173
Ni4   Ni    Ni4+2 0.369720 0.500000 0.000000 0.296772
Ni5   Ni    Ni4+2 1.000000 0.869720 0.500000 0.304259
Ni6   Ni    Ni4+2 0.130280 0.000000 0.500000 0.250805
Ni7   Ni    Ni4+2 1.000000 0.130280 0.500000 0.249833
Ni8   Ni    Ni4+2 0.869720 0.000000 0.500000 0.266115
O1    O     O_3   0.466217 0.271705 0.836213 -0.731491
H33   H     H_    0.457601 0.260790 0.781437 0.322464
O2    O     O_3   0.761544 0.439430 0.886257 -0.713798
H34   H     H_    0.803089 0.403752 0.872205 0.340137
O3    O     O_3   0.562581 0.761636 0.880676 -0.712171
H35   H     H_    0.597959 0.801930 0.861833 0.337425
O4    O     O_3   0.233881 0.584173 0.930127 -0.650822
H36   H     H_    0.193865 0.621251 0.913528 0.367514
O5    O     O_3   0.441890 0.757205 0.127429 -0.683469
H37   H     H_    0.414978 0.789956 0.164288 0.341394
O6    O     O_3   0.748588 0.554243 0.146517 -0.678931
H38   H     H_    0.782395 0.588675 0.176425 0.345224
O7    O     O_3   0.542848 0.258947 0.152822 -0.711289
H39   H     H_    0.575851 0.219781 0.177674 0.343951
O8    O     O_3   0.236805 0.412055 0.055375 -0.686971
H40   H     H_    0.206544 0.365461 0.042752 0.331512
O9    O     O_3   0.913865 0.734286 0.437857 -0.685820
H41   H     H_    0.869719 0.710167 0.463562 0.318090
O10   O     O_3   0.250299 0.942309 0.358653 -0.695377
H42   H     H_    0.265027 0.958413 0.410558 0.350930
O11   O     O_3   0.029332 0.226423 0.334497 -0.726428
H43   H     H_    0.024105 0.260474 0.378829 0.347815
O12   O     O_3   0.740713 0.066174 0.368314 -0.701950
H44   H     H_    0.757073 0.016809 0.346683 0.350934
O13   O     O_3   0.960994 0.235607 0.658823 -0.724675
H45   H     H_    0.941149 0.257310 0.706613 0.326996
O14   O     O_3   0.264351 0.066229 0.608243 -0.705804
H46   H     H_    0.304959 0.102425 0.625076 0.340526
O15   O     O_3   0.085537 0.734286 0.564587 -0.703600
H47   H     H_    0.123410 0.694335 0.579802 0.322790
O16   O     O_3   0.759981 0.952853 0.653772 -0.705502
H48   H     H_    0.745590 0.943456 0.707479 0.333155
I1    I     I_    0.415014 0.807951 0.945517 -0.151220
I2    I     I_    0.208403 0.444035 0.840878 -0.282928
I3    I     I_    0.586358 0.187408 0.926032 -0.161078
I4    I     I_    0.806918 0.588700 0.948456 -0.169587
I5    I     I_    0.413437 0.204776 0.025330 -0.228763
I6    I     I_    0.196166 0.563031 0.124290 -0.231067
I7    I     I_    0.605597 0.801233 0.081550 -0.172992
I8    I     I_    0.800510 0.396095 0.085333 -0.211190
I9    I     I_    0.900168 0.299100 0.470683 -0.366580
I10   I     I_    0.702222 0.919880 0.473194 -0.241562
I11   I     I_    0.050968 0.708460 0.343324 -0.251915
I12   I     I_    0.298941 0.113558 0.395504 -0.270693
I13   I     I_    0.949623 0.708283 0.659490 -0.272326
I14   I     I_    0.693658 0.097934 0.592627 -0.282686
I15   I     I_    0.083275 0.311063 0.566873 -0.243563
I16   I     I_    0.308902 0.911604 0.563009 -0.324879
O17   O     O_3   0.117187 0.841580 0.167104 -0.716158
H49   H     H_    0.100934 0.814069 0.120452 0.340914
O18   O     O_3   0.239187 0.061551 0.222113 -0.694727
H50   H     H_    0.273440 0.042165 0.181976 0.345332
O19   O     O_3   0.880292 0.309389 0.293689 -0.704518
H51   H     H_    0.891118 0.346217 0.251790 0.351389
O20   O     O_3   0.683476 0.880094 0.307210 -0.729959
H52   H     H_    0.650151 0.892966 0.262749 0.355568
O21   O     O_3   0.266396 0.303514 0.554973 -0.718626
H53   H     H_    0.274403 0.359106 0.545553 0.333880
O22   O     O_3   0.115920 0.844300 0.763186 -0.737347
H54   H     H_    0.115279 0.870105 0.813232 0.339592
O23   O     O_3   0.888244 0.868918 0.838899 -0.709129
H55   H     H_    0.876433 0.887317 0.890624 0.328495
O24   O     O_3   0.830681 0.095203 0.810068 -0.728050
H56   H     H_    0.804099 0.073081 0.854682 0.336475
O25   O     O_3   0.769326 0.194078 0.929111 -0.707134
H57   H     H_    0.813821 0.160248 0.939636 0.332411
O26   O     O_3   0.796012 0.774314 0.942511 -0.706672
H58   H     H_    0.850569 0.785954 0.953434 0.339606
O27   O     O_3   0.181238 0.769193 0.898051 -0.722822
H59   H     H_    0.125235 0.776322 0.891898 0.337468
O28   O     O_3   0.362219 0.398174 0.656601 -0.745215
H60   H     H_    0.377254 0.389668 0.603179 0.320614
O29   O     O_3   0.568146 0.774639 0.252439 -0.729603
H61   H     H_    0.551497 0.816322 0.286648 0.341798
O30   O     O_3   0.774933 0.431457 0.255764 -0.730414
H62   H     H_    0.821240 0.443557 0.286791 0.337655
O31   O     O_3   0.360054 0.164178 0.176174 -0.699021
H63   H     H_    0.367833 0.121469 0.213182 0.359909
O32   O     O_3   0.225559 0.754993 0.075220 -0.679158
H64   H     H_    0.202254 0.802766 0.054554 0.352085

loop_
_geom_bond_atom_site_label_1
_geom_bond_atom_site_label_2
_ccdc_geom_bond_type
C31   C66   S    
N23   Ni3   S    
O10   H42   S    
C30   H14   S    
C3    N3    A    
C105  O25   S    
C57   C92   S    
C29   H13   S    
C16   O16   S    
N21   Ni1   S    
N16   N29   A    
C1    N1    A    
C28   C69   S    
C28   H28   S    
C31   H15   S    
C15   O15   S    
C104  O24   S    
C39   I7    S    
C36   I4    S    
C47   C62   A    
N8    N21   A    
N12   Ni8   S    
C61   C96   S    
C17   H1    S    
O32   H64   S    
O15   H47   S    
C33   C52   A    
C67   C83   A    
C7    O7    S    
C4    C52   A    
C21   C76   S    
C107  O27   S    
O25   H57   S    
C103  O23   S    
C14   O14   S    
C40   I8    S    
N4    N17   A    
C49   C84   S    
N31   Ni7   S    
C10   C58   A    
C20   H20   S    
O29   H61   S    
C85   C109  A    
N3    N20   A    
C3    O3    S    
C23   H7    S    
O27   H59   S    
N11   Ni7   S    
C24   C73   S    
N7    Ni1   S    
C39   C54   A    
C47   I15   S    
N1    N18   A    
C44   C59   A    
O22   H54   S    
C4    N4    A    
N12   N25   A    
N5    Ni3   S    
C5    N5    A    
N2    Ni2   S    
C100  O20   S    
C22   H6    S    
O21   H53   S    
O9    H41   S    
C23   C26   S    
C21   H21   S    
C2    O2    S    
C111  O31   S    
C21   H5    S    
C2    C50   A    
C43   C58   A    
C37   C56   A    
C73   C89   A    
N11   N28   A    
N25   Ni7   S    
C98   O18   S    
O20   H52   S    
C95   C103  A    
C18   C79   S    
N9    N26   A    
N19   Ni1   S    
O18   H50   S    
C46   N30   A    
C15   N15   A    
C7    C55   A    
N17   Ni3   S    
C42   N26   A    
C10   O10   S    
N18   Ni4   S    
C30   C67   S    
C75   C91   A    
N13   N30   A    
N6    Ni2   S    
C27   C70   S    
C24   H24   S    
C101  C108  A    
N29   Ni5   S    
C100  C109  A    
N4    Ni4   S    
C65   C80   A    
O19   H51   S    
C109  O29   S    
C26   C71   S    
C46   I14   S    
C4    O4    S    
C10   N10   A    
O3    H35   S    
C67   C78   A    
C45   I13   S    
C22   C75   S    
C6    C54   A    
C11   C59   A    
C42   C57   A    
C13   N13   A    
C6    O6    S    
C72   C88   A    
C43   I11   S    
C41   I9    S    
C20   C29   S    
C42   I10   S    
C19   H19   S    
C29   H29   S    
C81   C105  A    
C24   H8    S    
C32   H32   S    
O30   H62   S    
C46   C61   A    
C17   H17   S    
O4    H36   S    
C68   C84   A    
C12   O12   S    
C13   O13   S    
O26   H58   S    
C24   C25   S    
C41   C60   A    
C93   C101  A    
C54   C85   S    
C20   H4    S    
C97   C112  A    
C3    C51   A    
C56   C87   S    
C37   N21   A    
C34   N18   A    
C32   H16   S    
O11   H43   S    
C99   C110  A    
C41   N25   A    
C17   C80   S    
C35   N19   A    
O12   H44   S    
C89   C97   A    
C59   C90   S    
C48   I16   S    
C106  O26   S    
N8    Ni4   S    
C19   C78   S    
C25   H25   S    
O16   H48   S    
C44   N28   A    
C79   C95   A    
C66   C79   A    
C69   C85   A    
C45   N29   A    
C66   C82   A    
C29   C68   S    
N14   Ni6   S    
C65   C81   A    
O14   H46   S    
C63   C94   S    
C19   H3    S    
O24   H56   S    
C40   C55   A    
C97   O17   S    
C35   C50   A    
C28   H12   S    
O13   H45   S    
C13   C61   A    
C102  C107  A    
C25   C72   S    
C90   C98   A    
N15   Ni5   S    
C6    N6    A    
C44   I12   S    
C51   C82   S    
C52   C83   S    
C36   C51   A    
C9    O9    S    
C53   C88   S    
C76   C92   A    
C71   C87   A    
C88   C112  A    
C20   C77   S    
C12   C60   A    
C101  O21   S    
C21   C28   S    
C14   N14   A    
C48   C63   A    
C1    O1    S    
C22   C27   S    
C96   C104  A    
C108  O28   S    
C7    N7    A    
C11   N11   A    
C18   H18   S    
C80   C96   A    
C39   N23   A    
C12   N12   A    
C23   C74   S    
N30   Ni8   S    
O28   H60   S    
C70   C86   A    
N20   Ni2   S    
C18   H2    S    
C92   C100  A    
C5    O5    S    
O17   H49   S    
C60   C91   S    
C5    C53   A    
C68   C77   A    
C38   N22   A    
N28   Ni6   S    
C34   C49   A    
C27   H11   S    
C98   C111  A    
C86   C110  A    
C16   N16   A    
N27   Ni5   S    
N5    N22   A    
C64   C95   S    
N9    Ni5   S    
C72   C73   A    
C26   H26   S    
C35   I3    S    
C104  C105  A    
C71   C74   A    
C43   N27   A    
C34   I2    S    
C102  O22   S    
C33   I1    S    
C2    N2    A    
C16   C64   A    
N2    N19   A    
C45   C64   A    
O1    H33   S    
C30   H30   S    
C23   H23   S    
N15   N32   A    
C74   C90   A    
C55   C86   S    
N26   Ni8   S    
N22   Ni4   S    
C37   I5    S    
C110  O30   S    
C87   C111  A    
C77   C93   A    
C38   I6    S    
C8    C56   A    
O31   H63   S    
C38   C53   A    
C1    C49   A    
C8    N8    A    
C78   C94   A    
N24   Ni2   S    
N6    N23   A    
N10   Ni6   S    
C26   H10   S    
C84   C108  A    
C83   C107  A    
N10   N27   A    
C103  C106  A    
C9    C57   A    
C82   C106  A    
C31   H31   S    
O7    H39   S    
C58   C89   S    
C27   H27   S    
C40   N24   A    
N32   Ni6   S    
C112  O32   S    
C9    N9    A    
O6    H38   S    
C99   O19   S    
C22   H22   S    
N3    Ni3   S    
N14   N31   A    
O8    H40   S    
C33   N17   A    
C69   C76   A    
C94   C102  A    
O5    H37   S    
C62   C93   S    
N1    Ni1   S    
C70   C75   A    
C36   N20   A    
C17   C32   S    
C15   C63   A    
C8    O8    S    
O2    H34   S    
C18   C31   S    
C11   O11   S    
C91   C99   A    
O23   H55   S    
C19   C30   S    
C25   H9    S    
N16   Ni8   S    
C47   N31   A    
N7    N24   A    
C50   C81   S    
N13   Ni7   S    
C32   C65   S    
C48   N32   A    
C14   C62   A    
