data_mof_unit_pretest_418.cif
_audit_creation_date              2012-12-11T17:12:39-0500
_audit_creation_method            fapswitch 2.2
_symmetry_space_group_name_H-M    P1
_symmetry_Int_Tables_number       1
_space_group_crystal_system       triclinic
_cell_length_a                    17.275805
_cell_length_b                    6.886444
_cell_length_c                    14.323909
_cell_angle_alpha                 90.097333
_cell_angle_beta                  110.077921
_cell_angle_gamma                 89.671329
_cell_volume                      1600.50889684

loop_
_atom_site_label
_atom_site_type_symbol
_atom_type_description
_atom_site_fract_x
_atom_site_fract_y
_atom_site_fract_z
_atom_type_partial_charge
O1    O     O_R   0.314130 0.635770 0.168990 -0.543884
O2    O     O_R   0.685870 0.364230 0.831010 -0.530871
O3    O     O_R   0.185870 0.135770 0.331010 -0.538766
O4    O     O_R   0.814130 0.864230 0.668990 -0.536147
O5    O     O_R   0.146800 0.302460 0.139760 -0.543161
O6    O     O_R   0.853200 0.697540 0.860240 -0.534684
O7    O     O_R   0.353200 0.802460 0.360240 -0.544794
O8    O     O_R   0.646800 0.197540 0.639760 -0.537032
C1    C     C_R   0.113998 0.476042 0.112826 0.715247
C2    C     C_R   0.885974 0.523930 0.887224 0.718913
C3    C     C_R   0.385972 0.975599 0.387298 0.718727
C4    C     C_R   0.613974 0.024410 0.612796 0.724993
O9    O     O_R   0.311100 0.305780 0.157130 -0.540340
O10   O     O_R   0.688900 0.694220 0.842870 -0.547319
O11   O     O_R   0.188900 0.805780 0.342870 -0.545669
O12   O     O_R   0.811100 0.194220 0.657130 -0.548118
O13   O     O_R   0.351340 0.139640 0.348510 -0.530796
O14   O     O_R   0.648660 0.860360 0.651490 -0.539953
O15   O     O_R   0.148660 0.639640 0.151490 -0.535361
O16   O     O_R   0.851340 0.360360 0.848510 -0.543553
C5    C     C_R   0.334721 0.474054 0.138274 0.771205
C6    C     C_R   0.666709 0.525921 0.863369 0.764435
C7    C     C_R   0.166161 0.975214 0.362694 0.741752
C8    C     C_R   0.833784 0.025007 0.637231 0.767953
C9    C     C_1   0.533522 0.009198 0.533073 -0.195056
C10   C     C_1   0.466411 0.990759 0.467046 -0.195893
C11   C     C_1   0.966396 0.508575 0.966980 -0.192312
C12   C     C_1   0.033555 0.491311 0.033107 -0.197869
O17   O     O_3   0.263010 0.470920 0.312770 -0.367964
O18   O     O_3   0.736990 0.529080 0.687230 -0.369846
O19   O     O_3   0.236990 0.970920 0.187230 -0.368274
O20   O     O_3   0.763010 0.029080 0.812770 -0.368896
V1    V     V_3+5 0.247590 0.194450 0.238360 1.414532
V2    V     V_3+5 0.752410 0.805550 0.761640 1.419963
V3    V     V_3+5 0.252410 0.694450 0.261640 1.400670
V4    V     V_3+5 0.747590 0.305550 0.738360 1.414840
C13   C     C_R   0.114426 0.987995 0.425434 -0.151843
C14   C     C_R   0.884880 0.016433 0.573614 -0.122866
C15   C     C_R   0.386035 0.482927 0.074865 -0.127242
C16   C     C_R   0.615034 0.521035 0.926356 -0.127887
C17   C     C_R   0.891195 0.992911 0.406999 0.336003
C18   C     C_R   0.104913 0.063188 0.586822 0.316322
C19   C     C_R   0.603233 0.580519 0.088102 0.316009
C20   C     C_R   0.393422 0.472724 0.908454 0.316323
C21   C     C_R   0.845883 0.004186 0.471190 -0.327428
C22   C     C_R   0.151481 0.039178 0.524805 -0.300130
C23   C     C_R   0.649600 0.578396 0.025136 -0.318915
C24   C     C_R   0.347709 0.469819 0.972324 -0.306713
C25   C     C_R   0.971526 0.022397 0.614634 0.249667
C26   C     C_R   0.027942 0.970337 0.384161 0.241629
C27   C     C_R   0.530709 0.474274 0.886380 0.256464
C28   C     C_R   0.472230 0.504870 0.116108 0.249981
C29   C     C_R   0.018864 0.026115 0.550200 -0.060722
C30   C     C_R   0.978870 0.996107 0.445822 -0.022062
C31   C     C_R   0.480722 0.487824 0.947708 -0.048359
C32   C     C_R   0.519267 0.523062 0.051838 -0.047373
H1    H     H_    0.217166 0.067327 0.553756 0.123153
H2    H     H_    0.779108 0.002001 0.440508 0.124033
H3    H     H_    0.281139 0.458526 0.941223 0.122827
H4    H     H_    0.713376 0.624596 0.053524 0.131449
N1    N     N_2   0.991266 0.915098 0.282493 -0.492708
H5    H     H_    0.011522 0.782966 0.265470 0.240485
C33   C     C_3   0.986354 0.064542 0.209472 -0.466196
H6    H     H_    0.926974 0.051106 0.147077 0.202035
H7    H     H_    0.037086 0.045844 0.179169 0.178318
H8    H     H_    0.989777 0.212570 0.241778 0.179003
N2    N     N_2   0.010010 0.994792 0.719371 -0.522666
H9    H     H_    0.062277 0.909087 0.743387 0.268228
C34   C     C_3   0.005353 0.150877 0.785261 -0.464211
H10   H     H_    0.068359 0.196400 0.831807 0.191864
H11   H     H_    0.973121 0.098236 0.835245 0.194281
H12   H     H_    0.971977 0.279579 0.743472 0.182299
N3    N     N_2   0.511647 0.476419 0.220604 -0.527072
H13   H     H_    0.566207 0.398896 0.243557 0.266044
C35   C     C_3   0.504161 0.628042 0.287267 -0.458430
H14   H     H_    0.566235 0.679521 0.333780 0.191617
H15   H     H_    0.473444 0.568120 0.337312 0.194053
H16   H     H_    0.468137 0.754394 0.246153 0.184388
N4    N     N_2   0.499460 0.398542 0.787667 -0.514872
H17   H     H_    0.459699 0.282495 0.774247 0.265366
C36   C     C_3   0.488826 0.531742 0.705847 -0.469027
H18   H     H_    0.423416 0.533615 0.656141 0.196292
H19   H     H_    0.527195 0.482063 0.662095 0.194122
H20   H     H_    0.506996 0.682207 0.732372 0.175690
N5    N     N_2   0.847224 0.986526 0.303053 -0.469276
H21   H     H_    0.804306 0.876960 0.283148 0.251863
C37   C     C_3   0.812819 0.171583 0.260263 -0.549454
H22   H     H_    0.786933 0.158323 0.178089 0.191319
H23   H     H_    0.861327 0.284831 0.279398 0.204364
H24   H     H_    0.762670 0.217156 0.287785 0.178733
N6    N     N_2   0.143637 0.147850 0.682033 -0.512270
H25   H     H_    0.204349 0.106371 0.715803 0.240036
C38   C     C_3   0.132654 0.356416 0.683146 -0.550661
H26   H     H_    0.158278 0.410579 0.760702 0.186142
H27   H     H_    0.066211 0.395873 0.653106 0.210451
H28   H     H_    0.164990 0.428438 0.637727 0.195736
N7    N     N_2   0.639359 0.662569 0.184381 -0.510827
H29   H     H_    0.700563 0.625599 0.218455 0.241674
C39   C     C_3   0.625259 0.869566 0.187495 -0.551987
H30   H     H_    0.650689 0.921431 0.265502 0.184683
H31   H     H_    0.558207 0.903034 0.158331 0.210462
H32   H     H_    0.656013 0.948325 0.142358 0.196317
N8    N     N_2   0.349818 0.477513 0.804459 -0.511150
H33   H     H_    0.304844 0.373048 0.781333 0.251755
C40   C     C_3   0.319781 0.668465 0.766457 -0.560841
H34   H     H_    0.291329 0.662329 0.684250 0.188967
H35   H     H_    0.371448 0.773677 0.785770 0.208177
H36   H     H_    0.272504 0.719484 0.797597 0.187890

loop_
_geom_bond_atom_site_label_1
_geom_bond_atom_site_label_2
_ccdc_geom_bond_type
C2    C11   S    
C16   C23   A    
C31   C32   A    
C33   H7    S    
O1    C5    A    
C38   H26   S    
N3    H13   S    
O3    C7    A    
C37   H22   S    
N7    H29   S    
C14   C25   A    
N5    H21   S    
O7    C3    A    
C40   H35   S    
O5    C1    A    
C26   C30   A    
O20   V4    S    
C18   C29   A    
O8    V4    S    
O4    C8    A    
O3    V1    S    
O17   V1    S    
N1    C33   S    
C18   N6    S    
C18   C22   A    
C34   H11   S    
C14   C21   A    
C36   H19   S    
C23   H4    S    
C1    O15   A    
C2    O16   A    
O5    V1    S    
O2    C6    A    
C8    C14   S    
O19   V1    S    
O11   C7    A    
C15   C28   A    
C33   H8    S    
O12   C8    A    
N3    C35   S    
C34   H10   S    
O13   V1    S    
O11   V3    S    
N7    C39   S    
C20   N8    S    
C36   H18   S    
N5    C37   S    
C40   H36   S    
O4    V2    S    
C21   H2    S    
O18   V2    S    
N2    H9    S    
N4    H17   S    
C28   N3    S    
N6    H25   S    
N4    C36   S    
C3    C10   S    
C9    C10   T    
C7    C13   S    
O6    V2    S    
N2    C34   S    
O20   V2    S    
C34   H12   S    
C35   H14   S    
O9    V1    S    
N6    C38   S    
C35   H15   S    
C39   H30   S    
C5    C15   S    
O8    C4    A    
C6    C16   S    
O9    C5    A    
N8    C40   S    
O14   V2    S    
C39   H31   S    
C38   H28   S    
C37   H23   S    
C22   H1    S    
O19   V3    S    
C11   C12   T    
C36   H20   S    
O1    V3    S    
C24   H3    S    
O2    V4    S    
C3    O13   A    
C25   N2    S    
O7    V3    S    
C19   N7    S    
O10   V2    S    
C29   C30   A    
C16   C27   A    
C17   N5    S    
C40   H34   S    
O17   V3    S    
O18   V4    S    
C4    C9    S    
O10   C6    A    
O15   V3    S    
O12   V4    S    
C13   C26   A    
C20   C31   A    
C25   C29   A    
C27   C31   A    
N1    H5    S    
C35   H16   S    
C27   N4    S    
C17   C30   A    
O6    C2    A    
C33   H6    S    
O16   V4    S    
C28   C32   A    
C19   C32   A    
C39   H32   S    
C38   H27   S    
C37   H24   S    
C4    O14   A    
N8    H33   S    
C26   N1    S    
C17   C21   A    
C13   C22   A    
C19   C23   A    
C20   C24   A    
C1    C12   S    
C15   C24   A    
