data_mof_unit_pretest_1234.cif
_audit_creation_date              2012-12-10T18:14:21-0500
_audit_creation_method            fapswitch 2.2
_symmetry_space_group_name_H-M    P1
_symmetry_Int_Tables_number       1
_space_group_crystal_system       triclinic
_cell_length_a                    12.63227
_cell_length_b                    13.054247
_cell_length_c                    19.21005
_cell_angle_alpha                 90.767018
_cell_angle_beta                  102.410787
_cell_angle_gamma                 84.046469
_cell_volume                      3076.98635517

loop_
_atom_site_label
_atom_site_type_symbol
_atom_type_description
_atom_site_fract_x
_atom_site_fract_y
_atom_site_fract_z
_atom_type_partial_charge
C1    C     C_R   0.440580 0.691471 0.496140 0.862247
C2    C     C_R   0.503239 0.497838 0.710467 -0.022510
C3    C     C_R   0.519102 0.469064 0.073223 0.271963
C4    C     C_R   0.514131 0.478172 0.932453 0.282374
C5    C     C_R   0.418360 0.506522 0.167141 -0.185607
C6    C     C_R   0.412161 0.516424 0.238072 -0.229624
C7    C     C_R   0.504321 0.488912 0.291235 -0.053350
C8    C     C_R   0.603014 0.451848 0.273342 -0.217937
C9    C     C_R   0.611356 0.442051 0.202295 0.125026
C10   C     C_R   0.517266 0.470821 0.148625 0.066381
C11   C     C_R   0.716953 0.063782 0.598590 -0.213333
C12   C     C_R   0.500688 0.500309 0.634364 0.829966
C13   C     C_R   0.587241 0.205756 0.545814 -0.096375
C14   C     C_R   0.307204 0.839748 0.452541 -0.190000
C15   C     C_R   0.280480 0.945117 0.442706 -0.156685
C16   C     C_R   0.351658 0.012881 0.477546 -0.179401
C17   C     C_R   0.447447 0.976304 0.527252 0.073518
C18   C     C_R   0.472085 0.869698 0.540178 0.058077
C19   C     C_R   0.524973 0.042349 0.559207 0.026860
C20   C     C_R   0.630757 0.001452 0.593384 0.116725
C21   C     C_R   0.644787 0.900338 0.620654 0.079292
C22   C     C_R   0.563735 0.835166 0.594098 -0.256041
C23   C     C_R   0.558653 0.309870 0.515833 0.856752
C24   C     C_R   0.502613 0.148979 0.555971 0.030808
C25   C     C_R   0.695682 0.163002 0.568688 -0.226990
C26   C     C_R   0.404860 0.801301 0.498563 -0.102011
C27   C     C_R   0.082504 0.342732 0.405498 -0.303830
C28   C     C_R   0.802330 0.628107 0.585878 0.018106
C29   C     C_R   0.908361 0.654904 0.605778 -0.255061
C30   C     C_R   0.989221 0.605880 0.574326 -0.194141
C31   C     C_R   0.964304 0.528301 0.523436 0.027021
C32   C     C_R   0.854598 0.503236 0.505768 0.239418
C33   C     C_R   0.043017 0.474560 0.489409 -0.013690
C34   C     C_R   0.500046 0.498513 0.365923 0.870387
C35   C     C_R   0.009758 0.395543 0.440885 0.154074
C36   C     C_R   0.902912 0.370834 0.426000 -0.298920
C37   C     C_R   0.826452 0.424730 0.457455 -0.213430
C38   C     C_R   0.153172 0.495745 0.500620 -0.098884
C39   C     C_R   0.187342 0.370774 0.414130 0.279310
C40   C     C_R   0.411524 0.473542 0.734449 -0.213616
C41   C     C_R   0.415263 0.466649 0.806884 -0.168882
C42   C     C_R   0.510407 0.485072 0.856241 0.093938
C43   C     C_R   0.601533 0.511155 0.832244 -0.166586
C44   C     C_R   0.598040 0.517334 0.759753 -0.198904
H1    H     H_    0.337058 0.459133 0.697363 0.155709
H2    H     H_    0.800488 0.034418 0.620773 0.149530
H3    H     H_    0.333142 0.093096 0.462550 0.131014
H4    H     H_    0.207254 0.974210 0.404944 0.139299
H5    H     H_    0.572886 0.757550 0.615048 0.154479
H6    H     H_    0.877527 0.310615 0.388517 0.149758
H7    H     H_    0.056446 0.281503 0.369061 0.152876
H8    H     H_    0.343496 0.447337 0.824072 0.149028
H9    H     H_    0.185584 0.553041 0.537773 0.140035
H10   H     H_    0.739493 0.664218 0.610382 0.123185
H11   H     H_    0.070174 0.629068 0.591382 0.137676
H12   H     H_    0.928209 0.712951 0.645814 0.145259
H13   H     H_    0.669725 0.536716 0.742460 0.153020
H14   H     H_    0.346331 0.529844 0.126458 0.154337
H15   H     H_    0.336390 0.547898 0.251310 0.146045
H16   H     H_    0.673654 0.429102 0.315104 0.141255
N1    N     N_R   0.597563 0.513105 0.980321 -0.183359
N2    N     N_R   0.599655 0.509116 0.049561 -0.178590
N3    N     N_R   0.435389 0.434460 0.025499 -0.181333
N4    N     N_R   0.433125 0.438675 0.956220 -0.183523
N5    N     N_R   0.222200 0.444680 0.463280 -0.121222
N6    N     N_R   0.776960 0.554780 0.536340 -0.128334
O1    O     O_R   0.366740 0.627160 0.482470 -0.612117
O2    O     O_R   0.544830 0.662520 0.505920 -0.605971
O3    O     O_R   0.410920 0.482320 0.590130 -0.630864
O4    O     O_R   0.589010 0.517690 0.613590 -0.630205
O5    O     O_R   0.455170 0.337480 0.494080 -0.649106
O6    O     O_R   0.633260 0.372840 0.517530 -0.631850
O7    O     O_R   0.410990 0.482310 0.386410 -0.628668
O8    O     O_R   0.589080 0.517680 0.409870 -0.623105
Zn1   Zn    Zn3+2 0.381090 0.476390 0.484340 0.911529
Zn2   Zn    Zn3+2 0.618910 0.523610 0.515660 0.931260
C45   C     C_3   0.740202 0.863384 0.680221 -0.440417
C46   C     C_3   0.737810 0.924929 0.748639 -0.331018
C47   C     C_3   0.831893 0.885137 0.809175 -0.880007
H17   H     H_    0.826289 0.803130 0.821244 0.260883
H18   H     H_    0.911144 0.892334 0.794394 0.260184
H19   H     H_    0.828314 0.931109 0.857820 0.252705
H20   H     H_    0.743867 0.007730 0.739516 0.227225
H21   H     H_    0.659570 0.918117 0.765040 0.225187
H22   H     H_    0.737181 0.781440 0.693349 0.193522
H23   H     H_    0.817890 0.869187 0.663135 0.193133
C48   C     C_3   0.405189 0.201106 0.583818 -0.366805
C49   C     C_3   0.373792 0.139633 0.642868 -0.371001
C50   C     C_3   0.287206 0.201900 0.674975 -0.877724
H24   H     H_    0.319798 0.271505 0.701569 0.261957
H25   H     H_    0.213807 0.225472 0.632834 0.264424
H26   H     H_    0.263220 0.154223 0.715321 0.253114
H27   H     H_    0.340403 0.067710 0.621076 0.235748
H28   H     H_    0.447058 0.118924 0.685840 0.228912
H29   H     H_    0.427162 0.275877 0.608051 0.227948
H30   H     H_    0.333138 0.218366 0.539634 0.203621
H31   H     H_    0.254297 0.788173 0.421087 0.155760
C51   C     C_3   0.256018 0.318318 0.365824 -0.405844
C52   C     C_3   0.228092 0.366566 0.290580 -0.316877
C53   C     C_3   0.124835 0.331798 0.243157 -0.884697
H32   H     H_    0.126550 0.246596 0.244266 0.256743
H33   H     H_    0.051100 0.367670 0.260202 0.261925
H34   H     H_    0.119345 0.356804 0.187357 0.251364
H35   H     H_    0.218779 0.451851 0.294283 0.229690
H36   H     H_    0.297067 0.343845 0.264211 0.218820
H37   H     H_    0.342897 0.321053 0.387047 0.233069
H38   H     H_    0.245830 0.234631 0.362674 0.162013
H39   H     H_    0.745595 0.403210 0.442767 0.209728
H40   H     H_    0.675873 0.525886 0.869333 0.147174
C54   C     C_3   0.720255 0.399032 0.186802 -0.435215
C55   C     C_3   0.715437 0.290687 0.155161 -0.333887
C56   C     C_3   0.826862 0.246138 0.143592 -0.875176
H41   H     H_    0.855188 0.295909 0.106301 0.268978
H42   H     H_    0.887398 0.239911 0.195103 0.256614
H43   H     H_    0.820974 0.168061 0.120359 0.251139
H44   H     H_    0.688574 0.239072 0.192102 0.220931
H45   H     H_    0.656136 0.292714 0.103234 0.233379
H46   H     H_    0.747757 0.451840 0.151209 0.222287
H47   H     H_    0.784382 0.394234 0.236791 0.197101
H48   H     H_    0.762755 0.207348 0.566465 0.169907

loop_
_geom_bond_atom_site_label_1
_geom_bond_atom_site_label_2
_ccdc_geom_bond_type
C48   C49   S    
C39   N5    A    
C41   C42   A    
C19   C20   A    
C18   C26   A    
O6    Zn2   S    
C2    C12   S    
C54   H46   S    
C56   H42   S    
C7    C8    A    
C45   C46   S    
O8    Zn2   S    
C5    H14   S    
C36   C37   A    
C5    C6    A    
C33   C35   A    
C11   C25   A    
C15   C16   A    
C1    O2    A    
C13   C23   S    
C54   C55   S    
C1    O1    A    
C46   H20   S    
C52   C53   S    
C2    C44   A    
C16   C17   A    
C48   H29   S    
C31   C33   A    
C55   H44   S    
C50   H25   S    
C9    C10   A    
C41   H8    S    
C52   H35   S    
C45   H22   S    
C21   C22   A    
O7    Zn1   S    
C13   C25   A    
C15   H4    S    
C6    H15   S    
C16   H3    S    
C56   H41   S    
C27   H7    S    
C40   H1    S    
C52   H36   S    
C49   H28   S    
C11   C20   A    
C23   O5    A    
C37   H39   S    
C27   C39   A    
C47   H18   S    
C28   H10   S    
C46   C47   S    
C8    C9    A    
C39   C51   S    
C27   C35   A    
C4    N1    A    
C53   H34   S    
C51   H38   S    
C47   H17   S    
C13   C24   A    
C35   C36   A    
C28   N6    A    
C43   C44   A    
C29   C30   A    
C2    C40   A    
C31   C32   A    
C38   N5    A    
C44   H13   S    
N6    Zn2   S    
C48   H30   S    
C20   C21   A    
C53   H33   S    
C17   C18   A    
C32   C37   A    
C14   C26   A    
C50   H26   S    
C34   O8    A    
C22   H5    S    
C40   C41   A    
C12   O3    A    
C45   H23   S    
O4    Zn2   S    
C1    C26   S    
C7    C34   S    
O1    Zn1   S    
C42   C43   A    
C25   H48   S    
C36   H6    S    
C14   H31   S    
C32   N6    A    
C3    N2    A    
C9    C54   S    
C12   O4    A    
C49   H27   S    
C28   C29   A    
C55   C56   S    
C18   C22   A    
C23   O6    A    
N5    Zn1   S    
C54   H47   S    
C47   H19   S    
C6    C7    A    
C29   H12   S    
C3    N3    A    
O2    Zn2   S    
C30   H11   S    
C4    N4    A    
C33   C38   A    
C51   H37   S    
C55   H45   S    
C19   C24   A    
C5    C10   A    
C3    C10   S    
C8    H16   S    
O5    Zn1   S    
C30   C31   A    
C38   H9    S    
C4    C42   S    
C53   H32   S    
C17   C19   A    
O3    Zn1   S    
N1    N2    A    
C24   C48   S    
C34   O7    A    
N3    N4    A    
C46   H21   S    
C49   C50   S    
C51   C52   S    
C21   C45   S    
C14   C15   A    
C11   H2    S    
C43   H40   S    
C50   H24   S    
C56   H43   S    
