data_mof_unit_pretest_433.cif
_audit_creation_date              2013-03-05T15:53:36-0500
_audit_creation_method            fapswitch 2.2
_symmetry_space_group_name_H-M    P1
_symmetry_Int_Tables_number       1
_space_group_crystal_system       triclinic
_cell_length_a                    9.993517
_cell_length_b                    10.652251
_cell_length_c                    13.56861
_cell_angle_alpha                 90.023561
_cell_angle_beta                  82.086089
_cell_angle_gamma                 90.29463
_cell_volume                      1430.64977083

loop_
_atom_site_label
_atom_site_type_symbol
_atom_site_description
_atom_site_fract_x
_atom_site_fract_y
_atom_site_fract_z
_atom_type_partial_charge
O1    O     O_R   0.385310 0.683220 0.500000 -0.617123
O2    O     O_R   0.614640 0.683250 0.500010 -0.586713
C1    C     C_R   0.499609 0.739049 0.496042 0.930825
O3    O     O_R   0.368830 0.499960 0.640340 -0.663420
O4    O     O_R   0.598160 0.499980 0.640350 -0.557354
C2    C     C_R   0.474865 0.505415 0.685423 0.879152
Zn1   Zn    Zn3+2 0.346870 0.499980 0.499990 1.007830
Zn2   Zn    Zn3+2 0.653130 0.500020 0.500010 1.121701
O5    O     O_R   0.385360 0.316750 0.499990 -0.621231
O6    O     O_R   0.614690 0.316780 0.500000 -0.545038
O7    O     O_R   0.401840 0.500020 0.359650 -0.603882
O8    O     O_R   0.631170 0.500040 0.359660 -0.551484
C3    C     C_R   0.499342 0.260927 0.506161 0.887309
C4    C     C_R   0.525198 0.499756 0.314365 0.946242
C5    C     C_1   0.546061 0.504633 0.210012 -0.018242
C6    C     C_2   0.571150 0.516080 0.017031 0.396164
C7    C     C_2   0.458168 0.545202 0.979625 -0.321173
C8    C     C_1   0.451406 0.535276 0.876534 0.150600
C9    C     C_1   0.561354 0.510175 0.121763 -0.018969
C10   C     C_1   0.456154 0.522388 0.789117 0.023222
H1    H     H_    0.366083 0.569468 0.028188 0.175124
C11   C     C_R   0.402769 0.864395 0.677961 -0.163943
H2    H     H_    0.386007 0.764712 0.677034 0.135346
C12   C     C_R   0.372201 0.925418 0.768402 -0.236594
H3    H     H_    0.326760 0.871627 0.832124 0.190942
C13   C     C_R   0.413614 0.049335 0.779136 0.455762
C14   C     C_R   0.480728 0.113916 0.694339 0.158209
C15   C     C_R   0.477200 0.060133 0.598396 -0.059132
C16   C     C_R   0.455041 0.931123 0.591679 0.003499
C17   C     C_R   0.491980 0.871750 0.499090 -0.185660
C18   C     C_R   0.517538 0.940071 0.410053 0.472047
H4    H     H_    0.534621 0.124843 0.348225 0.195788
C19   C     C_R   0.519178 0.069148 0.415743 -0.164973
C20   C     C_R   0.502011 0.128000 0.508198 -0.080639
C21   C     C_R   0.856419 0.699962 0.592505 0.227852
C22   C     C_R   0.894654 0.742648 0.683369 0.416201
C23   C     C_R   0.027950 0.725731 0.699679 -0.230476
H5    H     H_    0.066447 0.770379 0.761855 0.205880
C24   C     C_R   0.113369 0.653503 0.633352 -0.175814
H6    H     H_    0.216269 0.651723 0.643143 0.202033
C25   C     C_R   0.061358 0.580118 0.561594 0.167844
C26   C     C_R   0.920154 0.588772 0.554444 -0.000345
N1    N     N_R   0.857120 0.501200 0.500900 -0.151445
C27   C     C_R   0.938605 0.413984 0.447493 0.366899
H7    H     H_    0.143651 0.349925 0.400122 0.181753
C28   C     C_R   0.081708 0.417054 0.445388 -0.105694
N2    N     N_R   0.142720 0.501280 0.500940 -0.122763
S1    S     S_3+6 0.877475 0.820196 0.500175 0.118380
O9    O     O_2   0.020996 0.866783 0.489978 -0.226447
O10   O     O_2   0.852410 0.768487 0.401349 -0.192772
O11   O     O_3   0.776521 0.943422 0.530165 -0.448201
H8    H     H_    0.715334 0.915896 0.589394 0.364465
S2    S     S_3+6 0.785467 0.826225 0.772682 0.064441
O12   O     O_2   0.826654 0.805194 0.873873 -0.266078
O13   O     O_2   0.793442 0.964301 0.750137 -0.197601
O14   O     O_3   0.627113 0.774125 0.772304 -0.618608
H9    H     H_    0.582062 0.786901 0.841254 0.384682
S3    S     S_3+6 0.726462 0.471516 0.946545 0.145249
O15   O     O_2   0.730903 0.330836 0.939852 -0.118950
O16   O     O_2   0.743579 0.525546 0.843309 -0.255752
O17   O     O_3   0.854961 0.520183 0.005278 -0.474608
H10   H     H_    0.842027 0.611882 0.013657 0.379502
S4    S     S_3+6 0.533533 0.867661 0.291305 0.066471
O18   O     O_2   0.653823 0.782422 0.278555 -0.258003
O19   O     O_2   0.408310 0.791609 0.283565 -0.300320
O20   O     O_3   0.552518 0.976399 0.200484 -0.490928
H11   H     H_    0.555594 0.928119 0.137795 0.411338
S5    S     S_3+6 0.386252 0.114232 0.900519 0.104410
O21   O     O_2   0.287541 0.034829 0.967582 -0.260395
O22   O     O_2   0.517810 0.119321 0.942408 -0.188484
O23   O     O_3   0.323133 0.259730 0.895744 -0.520447
H12   H     H_    0.311009 0.289682 0.965522 0.391486
N3    N     N_R   0.582479 0.207287 0.705579 0.212783
O24   O     O_R   0.700597 0.197885 0.652169 -0.270330
O25   O     O_R   0.572083 0.280379 0.782577 -0.294734
N4    N     N_R   0.881058 0.319698 0.391257 0.219662
O26   O     O_R   0.843942 0.349004 0.306122 -0.327083
O27   O     O_R   0.897454 0.202028 0.411956 -0.269246

loop_
_geom_bond_atom_site_label_1
_geom_bond_atom_site_label_2
_geom_bond_distance
_ccdc_geom_bond_type
S4    O19   1.503019 D    
C11   C16   1.406133 A    
C25   C26   1.431164 A    
C21   C22   1.414317 A    
Zn2   N1    2.040249 S    
C24   C25   1.401359 A    
S2    O12   1.503872 D    
Zn1   O7    1.907819 S    
C13   C14   1.424900 A    
C16   C17   1.410178 A    
C15   C16   1.395786 A    
N4    O27   1.300747 A    
C6    C9    1.412330 S    
O4    C2    1.299530 A    
O7    C4    1.299516 A    
S3    O16   1.502112 D    
O14   H9    0.990466 S    
N3    O24   1.301608 A    
C27   N4    1.426883 S    
C21   C26   1.411356 A    
O5    C3    1.300535 A    
C22   S2    1.759771 S    
S1    O11   1.675279 S    
C6    C7    1.337994 D    
C18   C19   1.377229 A    
S3    O17   1.681524 S    
S1    O10   1.501567 D    
O20   H11   0.990732 S    
S4    O20   1.682496 S    
C15   C20   1.413254 A    
N3    O25   1.295671 A    
O3    Zn1   1.946743 S    
C21   S1    1.783274 S    
C27   C28   1.426657 A    
C19   C20   1.391892 A    
S2    O13   1.501901 D    
O11   H8    0.984258 S    
C18   S4    1.773679 S    
C12   H3    1.082465 S    
O3    C2    1.295491 A    
C24   H6    1.055123 S    
S5    O21   1.503800 D    
S3    O15   1.501785 D    
H7    C28   1.082258 S    
C7    H1    1.087744 S    
O1    C1    1.279625 A    
Zn1   N2    2.038561 S    
C1    C17   1.416291 S    
C5    C9    1.187523 T    
N1    C27   1.376986 A    
C23   H5    1.083103 S    
Zn2   O8    1.946742 S    
C7    C8    1.413583 S    
C25   N2    1.365967 A    
C6    S3    1.774126 S    
N4    O26   1.299581 A    
Zn2   O6    1.987424 S    
S1    O9    1.503549 D    
O8    C4    1.295561 A    
C11   C12   1.385617 A    
C26   N1    1.383568 A    
S2    O14   1.674986 S    
Zn1   O5    1.991292 S    
C28   N2    1.365741 A    
C22   C23   1.392703 A    
O1    Zn1   1.987426 S    
C11   H2    1.074461 S    
O2    Zn2   1.991294 S    
C12   C13   1.394877 A    
O6    C3    1.286938 A    
O4    Zn2   1.907819 S    
C2    C10   1.405318 S    
C13   S5    1.772643 S    
H4    C19   1.084281 S    
O2    C1    1.304529 A    
O23   H12   0.990682 S    
C23   C24   1.387525 A    
C17   C18   1.402946 A    
S5    O23   1.680956 S    
C8    C10   1.188470 T    
O17   H10   0.990424 S    
S4    O18   1.501103 D    
C3    C20   1.416713 S    
S5    O22   1.503165 D    
C14   C15   1.426875 A    
C4    C5    1.403453 S    
C14   N3    1.441764 S    
