data_mof_unit_pretest_1699.cif
_audit_creation_date              2012-12-11T15:50:04-0500
_audit_creation_method            fapswitch 2.2
_symmetry_space_group_name_H-M    P1
_symmetry_Int_Tables_number       1
_space_group_crystal_system       monoclinic
_cell_length_a                    16.620149
_cell_length_b                    7.239398
_cell_length_c                    15.259077
_cell_angle_alpha                 90.0
_cell_angle_beta                  94.528296
_cell_angle_gamma                 90.0
_cell_volume                      1830.23916707

loop_
_atom_site_label
_atom_site_type_symbol
_atom_type_description
_atom_site_fract_x
_atom_site_fract_y
_atom_site_fract_z
_atom_type_partial_charge
O1    O     O_R   0.663460 0.361880 0.165960 -0.507220
O2    O     O_R   0.336540 0.638120 0.834040 -0.507220
O3    O     O_R   0.836540 0.861880 0.334040 -0.507220
O4    O     O_R   0.163460 0.138120 0.665960 -0.507221
O5    O     O_R   0.827100 0.690020 0.163730 -0.536419
O6    O     O_R   0.172900 0.309980 0.836270 -0.536419
O7    O     O_R   0.672900 0.190020 0.336270 -0.536419
O8    O     O_R   0.327100 0.809980 0.663730 -0.536419
C1    C     C_R   0.853304 0.523025 0.143527 0.723608
C2    C     C_R   0.146696 0.476975 0.856473 0.723608
C3    C     C_R   0.646696 0.023025 0.356473 0.723608
C4    C     C_R   0.353304 0.976975 0.643527 0.723607
O9    O     O_R   0.663490 0.691490 0.155490 -0.503489
O10   O     O_R   0.336510 0.308510 0.844510 -0.503489
O11   O     O_R   0.836510 0.191490 0.344510 -0.503489
O12   O     O_R   0.163490 0.808510 0.655490 -0.503489
O13   O     O_R   0.671770 0.863400 0.325740 -0.544539
O14   O     O_R   0.328230 0.136600 0.674260 -0.544539
O15   O     O_R   0.828230 0.363400 0.174260 -0.544539
O16   O     O_R   0.171770 0.636600 0.825740 -0.544539
C5    C     C_R   0.635663 0.522706 0.133538 0.829659
C6    C     C_R   0.364337 0.477294 0.866462 0.829659
C7    C     C_R   0.864337 0.022706 0.366462 0.829659
C8    C     C_R   0.135663 0.977294 0.633538 0.829659
O17   O     O_3   0.752910 0.528900 0.305870 -0.371555
O18   O     O_3   0.247090 0.471100 0.694130 -0.371555
O19   O     O_3   0.747090 0.028900 0.194130 -0.371555
O20   O     O_3   0.252910 0.971100 0.805870 -0.371555
V1    V     V_3+5 0.749460 0.803130 0.239640 1.634128
V2    V     V_3+5 0.250540 0.196870 0.760360 1.634128
V3    V     V_3+5 0.750540 0.303130 0.260360 1.634128
V4    V     V_3+5 0.249460 0.696870 0.739640 1.634128
C9    C     C_R   0.951879 0.158948 0.493472 0.537294
C10   C     C_R   0.048121 0.841052 0.506528 0.537294
C11   C     C_R   0.548121 0.658948 0.006528 0.537293
C12   C     C_R   0.451879 0.341052 0.993472 0.537293
C13   C     C_R   0.016883 0.147634 0.557563 0.530280
C14   C     C_R   0.983117 0.852366 0.442437 0.530280
C15   C     C_R   0.483117 0.647633 0.942437 0.530280
C16   C     C_R   0.516883 0.352366 0.057563 0.530280
C17   C     C_R   0.066210 0.988499 0.565132 -0.499305
C18   C     C_R   0.933790 0.011501 0.434868 -0.499305
C19   C     C_R   0.433790 0.488499 0.934868 -0.499305
C20   C     C_R   0.566210 0.511501 0.065132 -0.499305
C21   C     C_1   0.416030 0.986148 0.581442 -0.148008
C22   C     C_1   0.583970 0.013852 0.418558 -0.148008
C23   C     C_1   0.083970 0.486148 0.918558 -0.148008
C24   C     C_1   0.916030 0.513852 0.081442 -0.148008
C25   C     C_1   0.468832 0.994750 0.530115 0.031594
C26   C     C_1   0.531167 0.005250 0.469885 0.031594
C27   C     C_1   0.031167 0.494750 0.969885 0.031594
C28   C     C_1   0.968832 0.505250 0.030115 0.031594
F1    F     F_    0.905674 0.313863 0.490548 -0.582716
F2    F     F_    0.094326 0.686137 0.509452 -0.582716
F3    F     F_    0.594326 0.813863 0.009452 -0.582716
F4    F     F_    0.405674 0.186137 0.990548 -0.582716
F5    F     F_    0.029974 0.292350 0.613514 -0.593310
F6    F     F_    0.970026 0.707650 0.386486 -0.593310
F7    F     F_    0.470026 0.792350 0.886486 -0.593310
F8    F     F_    0.529974 0.207650 0.113514 -0.593310

loop_
_geom_bond_atom_site_label_1
_geom_bond_atom_site_label_2
_ccdc_geom_bond_type
O2    C6    A    
C11   C15   A    
O1    C5    A    
C12   F4    S    
O12   V4    S    
O19   V1    S    
C5    C20   S    
O13   V1    S    
C22   C26   T    
O3    C7    A    
C6    C19   S    
C21   C25   T    
O8    C4    A    
C15   F7    S    
O10   C6    A    
O11   V3    S    
O11   C7    A    
O15   V3    S    
O12   C8    A    
C10   C14   A    
O7    C3    A    
C11   C20   A    
C10   C17   A    
O5    C1    A    
C7    C18   S    
C8    C17   S    
O10   V2    S    
C16   F8    S    
C9    C18   A    
O20   V2    S    
O6    V2    S    
C9    C13   A    
C10   F2    S    
C24   C28   T    
O5    V1    S    
O1    V3    S    
C13   C17   A    
O14   V2    S    
O4    C8    A    
C13   F5    S    
O7    V3    S    
O6    C2    A    
O9    C5    A    
C27   C28   S    
O8    V4    S    
C14   C18   A    
C16   C20   A    
C12   C16   A    
C9    F1    S    
C15   C19   A    
C1    C24   S    
O2    V4    S    
C25   C26   S    
O16   V4    S    
O9    V1    S    
C2    C23   S    
O3    V1    S    
O18   V4    S    
C3    O13   A    
C3    C22   S    
C23   C27   T    
C14   F6    S    
C11   F3    S    
O17   V3    S    
C1    O15   A    
O4    V2    S    
C2    O16   A    
C4    C21   S    
C12   C19   A    
C4    O14   A    
