data_mof_unit_pretest_585.cif
_audit_creation_date              2012-12-11T16:26:09-0500
_audit_creation_method            fapswitch 2.2
_symmetry_space_group_name_H-M    P1
_symmetry_Int_Tables_number       1
_space_group_crystal_system       triclinic
_cell_length_a                    14.008441
_cell_length_b                    14.00822
_cell_length_c                    31.959196
_cell_angle_alpha                 90.046532
_cell_angle_beta                  89.929992
_cell_angle_gamma                 119.999294
_cell_volume                      5431.27746109

loop_
_atom_site_label
_atom_site_type_symbol
_atom_type_description
_atom_site_fract_x
_atom_site_fract_y
_atom_site_fract_z
_atom_type_partial_charge
C1    C     C_R   0.567796 0.443869 0.810640 0.546779
C2    C     C_R   0.877051 0.432677 0.689579 0.550383
C3    C     C_R   0.556113 0.124008 0.810646 0.550638
C4    C     C_R   0.567720 0.443848 0.689406 0.542836
C5    C     C_R   0.875935 0.432157 0.810663 0.549338
C6    C     C_R   0.555856 0.123371 0.689489 0.560073
C7    C     C_R   0.443566 0.567937 0.310714 0.542784
C8    C     C_R   0.432188 0.875972 0.189344 0.550397
C9    C     C_R   0.124119 0.556250 0.310706 0.549485
C10   C     C_R   0.443896 0.567824 0.189361 0.546635
C11   C     C_R   0.432051 0.876082 0.310632 0.556211
C12   C     C_R   0.123962 0.556101 0.189370 0.546012
C13   C     C_1   0.003627 0.518745 0.018750 -0.021718
C14   C     C_1   0.518963 0.990468 0.481926 -0.023825
C15   C     C_1   0.481354 0.484958 0.018709 -0.021709
C16   C     C_1   0.012439 0.524903 0.482295 -0.025006
C17   C     C_1   0.514485 0.996641 0.018719 -0.021685
C18   C     C_1   0.492402 0.496913 0.481492 -0.025721
C19   C     C_1   0.523244 0.998869 0.519308 -0.023523
C20   C     C_1   0.996230 0.515082 0.981337 -0.021670
C21   C     C_1   0.496030 0.493262 0.518901 -0.025833
C22   C     C_1   0.518046 0.003928 0.981307 -0.021676
C23   C     C_1   0.005193 0.521126 0.519730 -0.023313
C24   C     C_1   0.484909 0.481347 0.981293 -0.021685
C25   C     C_R   0.930430 0.469850 0.851801 0.020157
C26   C     C_R   0.538366 0.068341 0.648377 0.035026
C27   C     C_R   0.530043 0.460919 0.851747 0.019875
C28   C     C_R   0.934000 0.471133 0.648802 0.038059
C29   C     C_R   0.539004 0.069403 0.851768 0.020426
C30   C     C_R   0.529544 0.460846 0.648435 0.025393
C31   C     C_R   0.467654 0.928263 0.352240 0.033001
C32   C     C_R   0.069246 0.538937 0.148278 0.019407
C33   C     C_R   0.459504 0.530167 0.351939 0.025416
C34   C     C_R   0.469975 0.930625 0.148231 0.020254
C35   C     C_R   0.071007 0.540131 0.352154 0.021221
C36   C     C_R   0.461003 0.530138 0.148252 0.019614
C37   C     C_R   0.937566 0.563230 0.872150 0.266264
C38   C     C_R   0.617471 0.044714 0.630933 0.276912
C39   C     C_R   0.436272 0.374990 0.872009 0.267245
C40   C     C_R   0.950313 0.569841 0.629997 0.276448
C41   C     C_R   0.624977 0.061881 0.872074 0.266115
C42   C     C_R   0.447082 0.370914 0.625380 0.267502
C43   C     C_R   0.569365 0.950335 0.369966 0.273847
C44   C     C_R   0.060445 0.624446 0.128176 0.267569
C45   C     C_R   0.368267 0.451090 0.375521 0.268804
C46   C     C_R   0.562732 0.936844 0.127687 0.266410
C47   C     C_R   0.062712 0.626124 0.372184 0.264564
C48   C     C_R   0.375182 0.436236 0.128047 0.267410
C49   C     C_R   0.962895 0.579612 0.914852 -0.091159
C50   C     C_R   0.607696 0.014755 0.588107 -0.105630
C51   C     C_R   0.419874 0.383912 0.914721 -0.090870
C52   C     C_R   0.981462 0.589273 0.587373 -0.102471
C53   C     C_R   0.615874 0.036635 0.914784 -0.091073
C54   C     C_R   0.434539 0.383864 0.582703 -0.092798
C55   C     C_R   0.588584 0.977463 0.412876 -0.102755
C56   C     C_R   0.035220 0.615653 0.085476 -0.090455
C57   C     C_R   0.381468 0.438613 0.418167 -0.091576
C58   C     C_R   0.578929 0.962334 0.084993 -0.091314
C59   C     C_R   0.040404 0.619254 0.415133 -0.092840
C60   C     C_R   0.384086 0.419838 0.085335 -0.090982
C61   C     C_R   0.985245 0.507026 0.936854 -0.007882
C62   C     C_R   0.523686 0.011721 0.563667 -0.003471
C63   C     C_R   0.492862 0.478568 0.936809 -0.008179
C64   C     C_R   0.992989 0.511127 0.564182 -0.000146
C65   C     C_R   0.521027 0.014749 0.936829 -0.007991
C66   C     C_R   0.499374 0.485648 0.563375 -0.005165
C67   C     C_R   0.506883 0.978687 0.437542 -0.003855
C68   C     C_R   0.014569 0.521466 0.063231 -0.008376
C69   C     C_R   0.484331 0.500217 0.437036 -0.004434
C70   C     C_R   0.506817 0.985728 0.063199 -0.007891
C71   C     C_R   0.021969 0.526369 0.437745 -0.009258
C72   C     C_R   0.478629 0.492963 0.063191 -0.008172
C73   C     C_R   0.988383 0.421021 0.916086 -0.132256
C74   C     C_R   0.442471 0.027765 0.581811 -0.130606
C75   C     C_R   0.579214 0.567523 0.916124 -0.132366
C76   C     C_R   0.984870 0.418512 0.583672 -0.138112
C77   C     C_R   0.432080 0.011903 0.916104 -0.132332
C78   C     C_R   0.572462 0.577268 0.586889 -0.139288
C79   C     C_R   0.409666 0.962924 0.419459 -0.133948
C80   C     C_R   0.012959 0.432853 0.083762 -0.132717
C81   C     C_R   0.576568 0.570335 0.413125 -0.141366
C82   C     C_R   0.421558 0.989828 0.084163 -0.132332
C83   C     C_R   0.019601 0.437095 0.417371 -0.127496
C84   C     C_R   0.567501 0.579469 0.083821 -0.132438
C85   C     C_R   0.961409 0.402574 0.873820 -0.164866
C86   C     C_R   0.448912 0.054547 0.623884 -0.158212
C87   C     C_R   0.597660 0.559000 0.873846 -0.164343
C88   C     C_R   0.957119 0.399407 0.625766 -0.178520
C89   C     C_R   0.440769 0.038786 0.873828 -0.164219
C90   C     C_R   0.587002 0.565112 0.629283 -0.181631
C91   C     C_R   0.390538 0.938992 0.377111 -0.168887
C92   C     C_R   0.039851 0.441284 0.126022 -0.164946
C93   C     C_R   0.564358 0.584855 0.370712 -0.189336
C94   C     C_R   0.403282 0.962713 0.126427 -0.165436
C95   C     C_R   0.043585 0.443647 0.374840 -0.149005
C96   C     C_R   0.558991 0.597912 0.126098 -0.165186
Cr1   Cr    Cr6+3 0.504240 0.249200 0.750000 1.054310
Cr2   Cr    Cr6+3 0.744960 0.495760 0.750000 1.063727
Cr3   Cr    Cr6+3 0.750800 0.255040 0.750000 1.063132
Cr4   Cr    Cr6+3 0.249200 0.504240 0.250000 1.052222
Cr5   Cr    Cr6+3 0.495760 0.744960 0.250000 1.056815
Cr6   Cr    Cr6+3 0.255040 0.750800 0.250000 1.056452
H1    H     H_    0.035903 0.684186 0.069467 0.119346
H2    H     H_    0.665540 0.995020 0.427328 0.100454
H3    H     H_    0.315326 0.352441 0.069228 0.118722
H4    H     H_    0.041310 0.688152 0.430978 0.115570
H5    H     H_    0.645268 0.959483 0.068610 0.118411
H6    H     H_    0.310029 0.384405 0.436895 0.115124
H7    H     H_    0.666030 0.996299 0.573228 0.093564
H8    H     H_    0.960822 0.646552 0.931069 0.118533
H9    H     H_    0.377462 0.312978 0.564351 0.114162
H10   H     H_    0.684709 0.038415 0.930969 0.118681
H11   H     H_    0.993983 0.663243 0.571794 0.098106
H12   H     H_    0.352595 0.315087 0.930870 0.118862
H13   H     H_    0.996244 0.359278 0.066637 0.123080
H14   H     H_    0.346631 0.965150 0.438446 0.122659
H15   H     H_    0.641343 0.636013 0.066761 0.123044
H16   H     H_    0.004293 0.364372 0.434757 0.121457
H17   H     H_    0.365793 0.008637 0.067374 0.122967
H18   H     H_    0.656853 0.617614 0.427625 0.113934
H19   H     H_    0.376189 0.023770 0.563021 0.123166
H20   H     H_    0.006373 0.364871 0.933029 0.122915
H21   H     H_    0.621997 0.656829 0.572082 0.115625
H22   H     H_    0.358005 0.994242 0.933085 0.123087
H23   H     H_    0.995631 0.358583 0.565919 0.112910
H24   H     H_    0.635648 0.641451 0.933141 0.123031
O1    O     O_R   0.480350 0.140770 0.796330 -0.510168
O2    O     O_R   0.660420 0.519650 0.703670 -0.524524
O3    O     O_R   0.859230 0.339580 0.796330 -0.510339
O4    O     O_R   0.480350 0.140770 0.703670 -0.510860
O5    O     O_R   0.660420 0.519650 0.796330 -0.508869
O6    O     O_R   0.859230 0.339580 0.703670 -0.528345
O7    O     O_R   0.140770 0.480350 0.296330 -0.505886
O8    O     O_R   0.519650 0.660420 0.203670 -0.510658
O9    O     O_R   0.339580 0.859230 0.296330 -0.515664
O10   O     O_R   0.140770 0.480350 0.203670 -0.511205
O11   O     O_R   0.519650 0.660420 0.296330 -0.531237
O12   O     O_R   0.339580 0.859230 0.203670 -0.510783
O13   O     O_R   0.514930 0.348530 0.793250 -0.452466
O14   O     O_R   0.833600 0.485070 0.706750 -0.446828
O15   O     O_R   0.651470 0.166400 0.793250 -0.447298
O16   O     O_R   0.514930 0.348530 0.706750 -0.453765
O17   O     O_R   0.833600 0.485070 0.793250 -0.447170
O18   O     O_R   0.651470 0.166400 0.706750 -0.449001
O19   O     O_R   0.348530 0.514930 0.293250 -0.452647
O20   O     O_R   0.485070 0.833600 0.206750 -0.446685
O21   O     O_R   0.166400 0.651470 0.293250 -0.454556
O22   O     O_R   0.348530 0.514930 0.206750 -0.451800
O23   O     O_R   0.485070 0.833600 0.293250 -0.450589
O24   O     O_R   0.166400 0.651470 0.206750 -0.452130
O25   O     O_3   0.666667 0.333333 0.750000 -0.267216
O26   O     O_3   0.333333 0.666667 0.250000 -0.263538
O27   O     O_3   0.907834 0.631668 0.852012 -0.549714
C97   C     C_3   0.004539 0.724818 0.837469 -0.116815
H25   H     H_    0.050095 0.701010 0.815105 0.115021
H26   H     H_    0.059030 0.773361 0.863888 0.101347
H27   H     H_    0.980983 0.778964 0.820476 0.137008
O28   O     O_3   0.698212 0.047305 0.657253 -0.550929
C98   C     C_3   0.797268 0.074507 0.636215 -0.123743
H28   H     H_    0.821157 0.142456 0.613234 0.102004
H29   H     H_    0.790802 0.000287 0.620894 0.103236
H30   H     H_    0.864383 0.103493 0.659677 0.133651
O29   O     O_3   0.367302 0.277090 0.851774 -0.548968
C99   C     C_3   0.275884 0.282625 0.836485 -0.121212
H31   H     H_    0.301821 0.351807 0.813899 0.106703
H32   H     H_    0.227175 0.290299 0.862490 0.103452
H33   H     H_    0.221134 0.204987 0.819532 0.132478
O30   O     O_3   0.940846 0.646764 0.654646 -0.550419
C100  C     C_3   0.888818 0.696360 0.633182 -0.114830
H34   H     H_    0.818858 0.636442 0.613443 0.115325
H35   H     H_    0.949778 0.767021 0.614158 0.100479
H36   H     H_    0.854806 0.729740 0.656660 0.141825
O31   O     O_3   0.723065 0.091123 0.851883 -0.549783
C101  C     C_3   0.718665 0.994199 0.837105 -0.116942
H37   H     H_    0.649399 0.949490 0.814680 0.115385
H38   H     H_    0.711943 0.939058 0.863395 0.101384
H39   H     H_    0.796359 0.017351 0.820112 0.136181
O32   O     O_3   0.388584 0.266935 0.642748 -0.556355
C102  C     C_3   0.282339 0.246848 0.653188 -0.124698
H40   H     H_    0.235271 0.244432 0.624789 0.096780
H41   H     H_    0.286256 0.309261 0.675802 0.110650
H42   H     H_    0.236583 0.164999 0.668512 0.132722
O33   O     O_3   0.649427 0.949934 0.344301 -0.554898
C103  C     C_3   0.696021 0.891025 0.362737 -0.111684
H43   H     H_    0.634006 0.816258 0.379870 0.120589
H44   H     H_    0.765095 0.945648 0.383745 0.098193
H45   H     H_    0.730705 0.862920 0.337517 0.137878
O34   O     O_3   0.088079 0.721857 0.148563 -0.548396
C104  C     C_3   0.990730 0.713776 0.164798 -0.121485
H46   H     H_    0.950108 0.644707 0.187601 0.104318
H47   H     H_    0.932389 0.704156 0.139331 0.103258
H48   H     H_    0.012548 0.791169 0.181754 0.131170
O35   O     O_3   0.263322 0.397108 0.358767 -0.548718
C105  C     C_3   0.235181 0.287645 0.349693 -0.120510
H49   H     H_    0.229344 0.241165 0.378711 0.098519
H50   H     H_    0.294837 0.284784 0.327372 0.109118
H51   H     H_    0.152925 0.245732 0.334564 0.133059
O36   O     O_3   0.630495 0.905887 0.147604 -0.549433
C106  C     C_3   0.724697 0.001932 0.161908 -0.117925
H52   H     H_    0.702205 0.048407 0.184336 0.114338
H53   H     H_    0.773318 0.055887 0.135368 0.101269
H54   H     H_    0.778260 0.977389 0.178760 0.134959
O37   O     O_3   0.087743 0.722184 0.351325 -0.555582
C107  C     C_3   0.988837 0.711625 0.335753 -0.125994
H55   H     H_    0.931352 0.701987 0.361621 0.098465
H56   H     H_    0.948093 0.641538 0.313378 0.106864
H57   H     H_    0.008510 0.787986 0.318486 0.128907
O38   O     O_3   0.277386 0.367107 0.148343 -0.549090
C108  C     C_3   0.283101 0.275703 0.163548 -0.121935
H58   H     H_    0.352403 0.301643 0.186060 0.105905
H59   H     H_    0.290708 0.227100 0.137494 0.103510
H60   H     H_    0.205565 0.220846 0.180563 0.132092
H61   H     H_    0.044130 0.373658 0.140513 0.161026
H62   H     H_    0.311917 0.922240 0.364502 0.173944
H63   H     H_    0.626844 0.669468 0.140682 0.159935
H64   H     H_    0.047187 0.375549 0.360408 0.167798
H65   H     H_    0.332652 0.960458 0.141285 0.158236
H66   H     H_    0.636032 0.643722 0.353205 0.117555
H67   H     H_    0.386785 0.070893 0.636540 0.181318
H68   H     H_    0.958396 0.331418 0.859128 0.159395
H69   H     H_    0.648001 0.636151 0.646452 0.127791
H70   H     H_    0.372808 0.042073 0.859165 0.160373
H71   H     H_    0.947622 0.324726 0.639637 0.131646
H72   H     H_    0.669106 0.626934 0.859218 0.160602

loop_
_geom_bond_atom_site_label_1
_geom_bond_atom_site_label_2
_ccdc_geom_bond_type
C68   C80   A    
C105  H50   S    
O37   C107  S    
C82   C94   A    
Cr2   O17   S    
C18   C21   T    
C100  H35   S    
C100  H34   S    
C39   C51   A    
O29   C99   S    
C3    O15   A    
Cr1   O1    S    
C35   C47   A    
C29   C89   A    
O32   C102  S    
C32   C92   A    
O31   C101  S    
Cr4   O26   S    
C15   C72   S    
C81   H18   S    
C45   C57   A    
C54   C66   A    
C96   H63   S    
C31   C43   A    
Cr3   O6    S    
C83   H16   S    
C40   C52   A    
C99   H31   S    
C85   H68   S    
C42   O32   S    
Cr1   O4    S    
C91   H62   S    
Cr6   O12   S    
C21   C66   S    
C3    O1    A    
C46   O36   S    
C105  H51   S    
C60   C72   A    
C19   C62   S    
C108  H60   S    
C33   C45   A    
C103  H43   S    
C8    O12   A    
C58   H5    S    
C84   C96   A    
Cr5   O23   S    
C20   C61   S    
C3    C29   S    
C44   C56   A    
Cr6   O9    S    
C46   C58   A    
C25   C37   A    
C57   H6    S    
C101  H37   S    
C15   C24   T    
C11   O23   A    
C27   C39   A    
O38   C108  S    
Cr2   O5    S    
C28   C88   A    
C106  H54   S    
C2    O6    A    
C14   C67   S    
C98   H29   S    
O36   C106  S    
C34   C46   A    
C53   C65   A    
C76   C88   A    
C97   H26   S    
C1    O13   A    
C6    O4    A    
C102  H42   S    
C1    C27   S    
C18   C69   S    
Cr2   O2    S    
C105  H49   S    
C11   C31   S    
C106  H52   S    
C79   H14   S    
C12   C32   S    
C45   O35   S    
C95   H64   S    
C7    C33   S    
C16   C71   S    
C82   H17   S    
C48   C60   A    
Cr5   O8    S    
C71   C83   A    
Cr2   O25   S    
Cr1   O25   S    
C66   C78   A    
C8    O20   A    
Cr5   O20   S    
C88   H71   S    
C59   H4    S    
C49   C61   A    
Cr3   O3    S    
C47   O37   S    
C79   C91   A    
C51   H12   S    
C102  H41   S    
C12   O24   A    
Cr3   O18   S    
C51   C63   A    
C38   O28   S    
C97   H27   S    
C52   C64   A    
C89   H70   S    
C7    O11   A    
C4    O2    A    
C2    C28   S    
C58   C70   A    
C61   C73   A    
C52   H11   S    
Cr3   O25   S    
C55   H2    S    
C9    O21   A    
C50   H7    S    
C78   C90   A    
Cr2   O14   S    
C93   H66   S    
C80   C92   A    
C104  H48   S    
C27   C87   A    
O33   C103  S    
C22   C65   S    
C11   O9    A    
Cr6   O21   S    
C65   C77   A    
C37   C49   A    
C36   C96   A    
C98   H28   S    
C80   H13   S    
Cr4   O19   S    
C26   C86   A    
C62   C74   A    
C83   C95   A    
C48   O38   S    
C25   C85   A    
C108  H58   S    
C64   C76   A    
C98   H30   S    
C67   C79   A    
C92   H61   S    
C8    C34   S    
C74   C86   A    
C81   C93   A    
C78   H21   S    
C101  H39   S    
C41   C53   A    
C97   H25   S    
C72   C84   A    
Cr6   O24   S    
C69   C81   A    
C5    C25   S    
C53   H10   S    
C75   C87   A    
O30   C100  S    
C107  H56   S    
C73   H20   S    
C24   C63   S    
C31   C91   A    
O28   C98   S    
C50   C62   A    
C100  H36   S    
C5    O3    A    
C104  H47   S    
C39   O29   S    
Cr4   O7    S    
C106  H53   S    
Cr6   O26   S    
C73   C85   A    
C43   C55   A    
C41   O31   S    
C23   C64   S    
Cr5   O11   S    
C13   C20   T    
C29   C41   A    
C77   C89   A    
C76   H23   S    
C14   C19   T    
Cr3   O15   S    
C99   H33   S    
C26   C38   A    
C34   C94   A    
C56   H1    S    
C1    O5    A    
C33   C93   A    
C55   C67   A    
C90   H69   S    
C38   C50   A    
C35   C95   A    
C16   C23   T    
Cr5   O26   S    
C17   C22   T    
C103  H45   S    
C75   H24   S    
C2    O14   A    
C87   H72   S    
C37   O27   S    
C99   H32   S    
C74   H19   S    
C77   H22   S    
C56   C68   A    
C42   C54   A    
C4    O16   A    
C6    C26   S    
C63   C75   A    
Cr4   O22   S    
C43   O33   S    
C108  H59   S    
C103  H44   S    
C54   H9    S    
C36   C48   A    
C107  H57   S    
C30   C42   A    
C86   H67   S    
C94   H65   S    
C104  H46   S    
C70   C82   A    
C101  H38   S    
Cr1   O16   S    
C40   O30   S    
C44   O34   S    
C5    O17   A    
C84   H15   S    
C47   C59   A    
C102  H40   S    
C17   C70   S    
C10   O8    A    
C107  H55   S    
C32   C44   A    
O35   C105  S    
C12   O10   A    
C59   C71   A    
C9    C35   S    
C28   C40   A    
O34   C104  S    
C10   C36   S    
C57   C69   A    
O27   C97   S    
C6    O18   A    
Cr1   O13   S    
C30   C90   A    
C4    C30   S    
C60   H3    S    
Cr4   O10   S    
C10   O22   A    
C49   H8    S    
C7    O19   A    
C13   C68   S    
C9    O7    A    
