data_mof_unit_pretest_637.cif
_audit_creation_date              2012-12-10T18:42:40-0500
_audit_creation_method            fapswitch 2.2
_symmetry_space_group_name_H-M    P1
_symmetry_Int_Tables_number       1
_space_group_crystal_system       triclinic
_cell_length_a                    10.834008
_cell_length_b                    15.082145
_cell_length_c                    13.854048
_cell_angle_alpha                 90.264091
_cell_angle_beta                  90.278477
_cell_angle_gamma                 90.075158
_cell_volume                      2263.69974622

loop_
_atom_site_label
_atom_site_type_symbol
_atom_type_description
_atom_site_fract_x
_atom_site_fract_y
_atom_site_fract_z
_atom_type_partial_charge
C1    C     C_R   0.497957 0.329811 0.499736 0.802586
C2    C     C_R   0.498998 0.670183 0.500260 0.786095
C3    C     C_R   0.871753 0.498536 0.501585 -0.085740
C4    C     C_R   0.128429 0.504003 0.499181 -0.090441
C5    C     C_R   0.939482 0.462372 0.579361 -0.027044
C6    C     C_R   0.060862 0.542382 0.422653 -0.015912
C7    C     C_R   0.529325 0.092727 0.574757 -0.054492
C8    C     C_R   0.530043 0.907147 0.424686 -0.203327
C9    C     C_R   0.536879 0.184522 0.575897 -0.125916
C10   C     C_R   0.539429 0.815411 0.424359 -0.173763
C11   C     C_R   0.489130 0.233317 0.498916 -0.085582
C12   C     C_R   0.491528 0.766658 0.501079 -0.009862
C13   C     C_R   0.429263 0.189883 0.422220 -0.155524
C14   C     C_R   0.431831 0.810070 0.577286 -0.224825
C15   C     C_R   0.415920 0.097439 0.422084 0.022998
C16   C     C_R   0.416000 0.902030 0.576254 0.062625
C17   C     C_R   0.468534 0.048583 0.498909 0.049777
C18   C     C_R   0.468055 0.951194 0.499523 0.053970
C19   C     C_R   0.587529 0.549354 0.108672 -0.287226
C20   C     C_R   0.454963 0.426983 0.891626 -0.286281
C21   C     C_R   0.584947 0.549167 0.210137 0.090581
C22   C     C_R   0.454327 0.428885 0.790175 0.093071
C23   C     C_R   0.262234 0.502276 0.499657 0.792969
C24   C     C_R   0.737858 0.498527 0.500456 0.795766
C25   C     C_R   0.415915 0.450213 0.208946 0.112119
C26   C     C_R   0.546255 0.570825 0.791302 0.083121
C27   C     C_R   0.414139 0.449471 0.107448 -0.286299
C28   C     C_R   0.546348 0.572358 0.892806 -0.299189
C29   C     C_R   0.500841 0.499448 0.054824 0.125873
C30   C     C_R   0.500763 0.499587 0.945457 0.125352
C31   C     C_R   0.228379 0.719099 0.277384 -0.087130
C32   C     C_R   0.790167 0.291275 0.743099 -0.117531
C33   C     C_R   0.170153 0.677402 0.355719 0.036047
C34   C     C_R   0.844317 0.328665 0.660476 0.025198
C35   C     C_R   0.120337 0.591160 0.342618 0.041554
C36   C     C_R   0.880666 0.418903 0.663123 0.044429
C37   C     C_R   0.125370 0.550610 0.251282 -0.140079
C38   C     C_R   0.863003 0.469036 0.747624 -0.110413
C39   C     C_R   0.181736 0.593625 0.174141 -0.138225
C40   C     C_R   0.808288 0.430971 0.828462 -0.123936
C41   C     C_R   0.234439 0.677190 0.187450 -0.148421
C42   C     C_R   0.771666 0.342348 0.826118 -0.148054
C43   C     C_R   0.932938 0.537864 0.424021 -0.226806
C44   C     C_R   0.067274 0.465276 0.576992 -0.227971
Cu1   Cu    Cu3+1 0.500000 0.499990 0.596430 0.944479
Cu2   Cu    Cu3+1 0.500000 0.500010 0.403570 0.950471
H1    H     H_    0.279258 0.709918 0.127707 0.136704
H2    H     H_    0.729212 0.313020 0.888941 0.141220
H3    H     H_    0.658498 0.587557 0.073246 0.125787
H4    H     H_    0.420990 0.368137 0.927057 0.136480
H5    H     H_    0.651845 0.588163 0.250126 0.112944
H6    H     H_    0.417392 0.372733 0.750794 0.128022
H7    H     H_    0.348798 0.411379 0.247999 0.122933
H8    H     H_    0.583336 0.626929 0.752754 0.122227
H9    H     H_    0.343365 0.411116 0.071067 0.131718
H10   H     H_    0.580907 0.630968 0.929198 0.129546
H11   H     H_    0.268745 0.784473 0.285485 0.164734
H12   H     H_    0.762210 0.222339 0.743727 0.160166
H13   H     H_    0.086417 0.485149 0.240119 0.132602
H14   H     H_    0.890902 0.538006 0.750471 0.125612
H15   H     H_    0.185536 0.561738 0.104076 0.136153
H16   H     H_    0.794233 0.470259 0.893049 0.134431
H17   H     H_    0.880885 0.567759 0.365547 0.151480
H18   H     H_    0.119203 0.435616 0.635684 0.163320
H19   H     H_    0.570731 0.055743 0.633429 0.130680
H20   H     H_    0.571617 0.944208 0.366401 0.146194
H21   H     H_    0.581959 0.217370 0.636025 0.147391
H22   H     H_    0.586150 0.782676 0.365148 0.141836
H23   H     H_    0.389735 0.228559 0.364038 0.180503
H24   H     H_    0.392309 0.771612 0.635458 0.128945
N1    N     N_R   0.500000 0.500020 0.258690 -0.170772
N2    N     N_R   0.500000 0.499980 0.741310 -0.167348
O1    O     O_R   0.500010 0.371450 0.581430 -0.593292
O2    O     O_R   0.499990 0.628550 0.418570 -0.584301
O3    O     O_R   0.500010 0.371460 0.418560 -0.583885
O4    O     O_R   0.499990 0.628540 0.581440 -0.599395
O5    O     O_R   0.319640 0.500000 0.581430 -0.586677
O6    O     O_R   0.680360 0.500000 0.418570 -0.592395
O7    O     O_R   0.319640 0.500010 0.418560 -0.578738
O8    O     O_R   0.680360 0.499990 0.581440 -0.570169
C45   C     C_2   0.344046 0.053453 0.343672 0.360664
H25   H     H_    0.321745 0.983447 0.347566 0.108702
O9    O     O_2   0.307694 0.095169 0.273762 -0.545809
C46   C     C_2   0.341142 0.942329 0.654529 0.358498
H26   H     H_    0.322317 0.904546 0.719339 0.060052
O10   O     O_2   0.295763 0.015994 0.646678 -0.522211
C47   C     C_2   0.158972 0.725173 0.449188 0.305842
H27   H     H_    0.122387 0.692132 0.512234 0.078491
O11   O     O_2   0.188696 0.803033 0.456585 -0.543871
C48   C     C_2   0.863454 0.273307 0.572901 0.325065
H28   H     H_    0.901861 0.301930 0.507948 0.088960
O12   O     O_2   0.836994 0.194577 0.572215 -0.538128

loop_
_geom_bond_atom_site_label_1
_geom_bond_atom_site_label_2
_ccdc_geom_bond_type
C47   H27   S    
C8    H20   S    
C27   C29   A    
C26   N2    A    
C1    C11   S    
C32   H12   S    
C2    C12   S    
C9    H21   S    
C45   H25   S    
C28   H10   S    
C43   H17   S    
C39   C41   A    
C20   C30   A    
Cu1   Cu2   S    
C44   H18   S    
C3    C43   A    
C21   N1    A    
Cu1   O4    S    
C19   C21   A    
C46   O10   D    
Cu2   O7    S    
C27   H9    S    
C5    C36   S    
C16   C46   S    
C40   H16   S    
C6    C35   S    
Cu1   O1    S    
C20   H4    S    
C24   O8    A    
C7    C17   A    
C31   C33   A    
C25   N1    A    
C2    O2    A    
C40   C42   A    
C25   H7    S    
Cu1   N2    S    
C14   H24   S    
C3    C24   S    
C26   H8    S    
C22   N2    A    
Cu2   O3    S    
C45   O9    D    
C39   H15   S    
C1    O3    A    
C46   H26   S    
C15   C45   S    
Cu2   O6    S    
C4    C23   S    
C4    C44   A    
C8    C18   A    
C32   C34   A    
C34   C48   S    
C29   C30   S    
C7    H19   S    
C19   H3    S    
C48   O12   D    
C17   C18   S    
C41   H1    S    
C16   C18   A    
C42   H2    S    
C23   O5    A    
C9    C11   A    
Cu2   O2    S    
Cu2   N1    S    
C37   H13   S    
C10   C12   A    
C38   H14   S    
C24   O6    A    
C5    C44   A    
C20   C22   A    
C6    C43   A    
C13   C15   A    
C14   C16   A    
C4    C6    A    
C19   C29   A    
C21   H5    S    
C2    O4    A    
C22   H6    S    
C15   C17   A    
C31   C41   A    
C35   C37   A    
C12   C14   A    
C3    C5    A    
C10   H22   S    
C25   C27   A    
C26   C28   A    
C1    O1    A    
C31   H11   S    
C28   C30   A    
C33   C47   S    
C37   C39   A    
C38   C40   A    
C11   C13   A    
C48   H28   S    
C13   H23   S    
C36   C38   A    
C33   C35   A    
Cu1   O8    S    
C34   C36   A    
C7    C9    A    
C8    C10   A    
C47   O11   D    
C32   C42   A    
Cu1   O5    S    
C23   O7    A    
