data_mof_unit_pretest_855.cif
_audit_creation_date              2012-12-10T17:40:55-0500
_audit_creation_method            fapswitch 2.2
_symmetry_space_group_name_H-M    P1
_symmetry_Int_Tables_number       1
_space_group_crystal_system       triclinic
_cell_length_a                    14.80579
_cell_length_b                    15.436576
_cell_length_c                    9.937922
_cell_angle_alpha                 90.009779
_cell_angle_beta                  93.973022
_cell_angle_gamma                 89.997565
_cell_volume                      2265.86055281

loop_
_atom_site_label
_atom_site_type_symbol
_atom_type_description
_atom_site_fract_x
_atom_site_fract_y
_atom_site_fract_z
_atom_type_partial_charge
C1    C     C_R   0.385163 0.875665 0.497553 0.903513
C2    C     C_R   0.385184 0.124352 0.497591 0.903561
C3    C     C_R   0.885163 0.375666 0.497552 0.903514
C4    C     C_R   0.885183 0.624352 0.497591 0.903546
C5    C     C_R   0.254472 0.195705 0.390014 -0.256853
C6    C     C_R   0.254249 0.804505 0.390134 -0.257172
C7    C     C_R   0.754459 0.695692 0.390025 -0.256844
C8    C     C_R   0.754254 0.304500 0.390128 -0.257208
C9    C     C_R   0.681058 0.750372 0.397697 0.462477
C10   C     C_R   0.680904 0.249751 0.397827 0.462557
C11   C     C_R   0.181072 0.250386 0.397682 0.462436
C12   C     C_R   0.180897 0.749758 0.397834 0.462551
C13   C     C_R   0.675538 0.801581 0.513917 -0.100623
C14   C     C_R   0.675586 0.198388 0.513895 -0.099906
C15   C     C_R   0.175541 0.301583 0.513912 -0.100617
C16   C     C_R   0.175583 0.698389 0.513898 -0.099910
C17   C     C_R   0.327722 0.999182 0.113674 0.394264
C18   C     C_R   0.827721 0.499211 0.113678 0.394284
C19   C     C_R   0.248620 0.998140 0.026734 -0.295700
C20   C     C_R   0.748618 0.498210 0.026741 -0.295706
C21   C     C_R   0.252966 0.998319 0.889975 0.405884
C22   C     C_R   0.752964 0.498384 0.889983 0.405876
C23   C     C_R   0.336065 0.999395 0.836759 -0.216068
C24   C     C_R   0.836062 0.499418 0.836763 -0.216039
C25   C     C_R   0.418335 0.999682 0.917392 0.052587
C26   C     C_R   0.918334 0.499693 0.917393 0.052594
C27   C     C_R   0.416693 0.999622 0.061962 0.123146
C28   C     C_R   0.916693 0.499635 0.061964 0.123131
C29   C     C_R   0.577791 0.000252 0.079684 0.039148
C30   C     C_R   0.077791 0.500243 0.079683 0.039165
C31   C     C_R   0.615658 0.124336 0.503776 0.896355
C32   C     C_R   0.615642 0.875655 0.503772 0.896595
C33   C     C_R   0.115657 0.624336 0.503776 0.896366
C34   C     C_R   0.115642 0.375654 0.503772 0.896586
C35   C     C_R   0.577651 0.000207 0.937041 0.095930
C36   C     C_R   0.077651 0.500200 0.937041 0.095923
C37   C     C_R   0.398652 0.268789 0.691686 -0.241653
C38   C     C_R   0.399072 0.730657 0.690594 -0.241860
C39   C     C_R   0.898651 0.768789 0.691686 -0.241648
C40   C     C_R   0.899083 0.230646 0.690565 -0.241860
C41   C     C_R   0.390472 0.316605 0.809757 0.390539
C42   C     C_R   0.391137 0.682403 0.808296 0.390807
C43   C     C_R   0.890471 0.816605 0.809758 0.390546
C44   C     C_R   0.891155 0.182380 0.808254 0.390823
C45   C     C_R   0.804342 0.837713 0.848728 0.287569
C46   C     C_R   0.805103 0.161401 0.847704 0.286820
C47   C     C_R   0.304342 0.337714 0.848726 0.287560
C48   C     C_R   0.305083 0.661424 0.847735 0.286824
C49   C     C_R   0.728303 0.821481 0.759957 0.302269
C50   C     C_R   0.728876 0.178063 0.759539 0.302072
C51   C     C_R   0.228304 0.321480 0.759955 0.302261
C52   C     C_R   0.228860 0.678076 0.759552 0.302088
C53   C     C_R   0.739982 0.792453 0.626362 -0.106288
C54   C     C_R   0.740267 0.207324 0.626050 -0.105722
C55   C     C_R   0.239983 0.292452 0.626359 -0.106275
C56   C     C_R   0.240258 0.707330 0.626059 -0.105725
C57   C     C_R   0.321807 0.252356 0.603084 -0.036267
C58   C     C_R   0.322027 0.747430 0.602586 -0.036150
C59   C     C_R   0.821805 0.752355 0.603085 -0.036267
C60   C     C_R   0.822034 0.247424 0.602573 -0.036161
C61   C     C_R   0.323510 0.195787 0.492514 -0.073399
C62   C     C_R   0.323487 0.804242 0.492347 -0.072978
C63   C     C_R   0.823505 0.695784 0.492516 -0.073394
C64   C     C_R   0.823490 0.304241 0.492342 -0.072983
H1    H     H_    0.256904 0.152518 0.304738 0.181502
H2    H     H_    0.256502 0.847856 0.305060 0.180502
H3    H     H_    0.756888 0.652503 0.304752 0.181487
H4    H     H_    0.756506 0.347854 0.305060 0.180512
H5    H     H_    0.331461 0.999960 0.730702 0.241508
H6    H     H_    0.831456 0.499964 0.730692 0.241501
H7    H     H_    0.641383 0.000331 0.890091 0.187215
H8    H     H_    0.141383 0.500320 0.890090 0.187205
H9    H     H_    0.464913 0.246631 0.667308 0.223216
H10   H     H_    0.465273 0.752791 0.665912 0.222597
H11   H     H_    0.964911 0.746631 0.667308 0.223221
H12   H     H_    0.965282 0.252780 0.665877 0.222582
H13   H     H_    0.641586 0.000458 0.139685 0.199959
H14   H     H_    0.141586 0.500442 0.139684 0.199964
H15   H     H_    0.182192 0.997512 0.066246 0.215009
H16   H     H_    0.682190 0.497608 0.066255 0.215005
N1    N     N_R   0.498810 0.000000 0.142780 -0.111244
N2    N     N_R   0.998810 0.500000 0.142780 -0.111245
N3    N     N_R   0.498740 0.000000 0.857170 -0.097981
N4    N     N_R   0.998740 0.500000 0.857170 -0.097978
O1    O     O_R   0.408390 0.908380 0.614690 -0.641315
O2    O     O_R   0.408390 0.091620 0.614690 -0.642074
O3    O     O_R   0.908390 0.408380 0.614690 -0.641310
O4    O     O_R   0.908390 0.591620 0.614690 -0.642073
O5    O     O_R   0.408370 0.908380 0.385360 -0.544024
O6    O     O_R   0.408370 0.091620 0.385360 -0.543195
O7    O     O_R   0.908370 0.408380 0.385360 -0.544027
O8    O     O_R   0.908370 0.591620 0.385360 -0.543198
O9    O     O_R   0.591620 0.091610 0.614640 -0.606763
O10   O     O_R   0.591620 0.908390 0.614640 -0.606597
O11   O     O_R   0.091620 0.591610 0.614640 -0.606773
O12   O     O_R   0.091620 0.408390 0.614640 -0.606591
O13   O     O_R   0.591610 0.091610 0.385310 -0.564064
O14   O     O_R   0.591610 0.908390 0.385310 -0.563597
O15   O     O_R   0.091610 0.591610 0.385310 -0.564034
O16   O     O_R   0.091610 0.408390 0.385310 -0.563614
Zn1   Zn    Zn3+2 0.500010 0.000000 0.653130 1.008549
Zn2   Zn    Zn3+2 0.000010 0.500000 0.653130 1.008550
Zn3   Zn    Zn3+2 0.499980 0.000000 0.346870 1.083383
Zn4   Zn    Zn3+2 0.999980 0.500000 0.346870 1.083384
Cl1   Cl    Cl    0.153227 0.997491 0.783245 -0.466729
Cl2   Cl    Cl    0.653225 0.497594 0.783251 -0.466744
Cl3   Cl    Cl    0.487457 0.344529 0.912692 -0.385672
Cl4   Cl    Cl    0.488343 0.653602 0.910094 -0.385852
Cl5   Cl    Cl    0.987454 0.844529 0.912696 -0.385641
Cl6   Cl    Cl    0.988367 0.153563 0.910017 -0.385842
Cl7   Cl    Cl    0.791461 0.879629 0.011671 -0.469630
Cl8   Cl    Cl    0.792585 0.119097 0.010467 -0.469938
Cl9   Cl    Cl    0.291462 0.379635 0.011666 -0.469699
Cl10  Cl    Cl    0.292554 0.619132 0.010505 -0.469895
Cl11  Cl    Cl    0.624368 0.806616 0.833144 -0.516781
Cl12  Cl    Cl    0.625250 0.193333 0.833393 -0.516245
Cl13  Cl    Cl    0.124369 0.306609 0.833141 -0.516832
Cl14  Cl    Cl    0.125224 0.693340 0.833386 -0.516182
O17   O     O_3   0.612770 0.753050 0.295318 -0.701239
H17   H     H_    0.628028 0.713692 0.221302 0.374839
O18   O     O_3   0.612465 0.247177 0.295666 -0.701261
H18   H     H_    0.627739 0.286440 0.221537 0.374682
O19   O     O_3   0.112794 0.253070 0.295288 -0.701243
H19   H     H_    0.128122 0.213798 0.221206 0.374865
O20   O     O_3   0.112457 0.747188 0.295674 -0.701307
H20   H     H_    0.127660 0.786540 0.221653 0.374693
O21   O     O_3   0.315499 0.000083 0.247831 -0.724071
H21   H     H_    0.250383 0.000049 0.265905 0.309881
O22   O     O_3   0.815498 0.500080 0.247834 -0.724081
H22   H     H_    0.750385 0.500039 0.265917 0.309880

loop_
_geom_bond_atom_site_label_1
_geom_bond_atom_site_label_2
_ccdc_geom_bond_type
C58   C62   A    
C32   O10   A    
C40   C60   A    
O12   Zn2   S    
N4    Zn2   S    
C23   H5    S    
C13   C32   S    
O7    Zn4   S    
C10   O18   S    
C1    C62   S    
O11   Zn2   S    
C53   C59   A    
C24   H6    S    
O19   H19   S    
C54   C60   A    
C3    C64   S    
C4    C63   S    
C50   C54   A    
C19   C21   A    
C34   O12   A    
C5    C11   A    
C48   C52   A    
C46   Cl8   S    
C6    C12   A    
O14   Zn3   S    
O16   Zn4   S    
C3    O7    A    
C2    O6    A    
C9    C13   A    
C17   C19   A    
C38   C58   A    
C11   C15   A    
C12   C16   A    
O10   Zn1   S    
C32   O14   A    
C34   O16   A    
C39   H11   S    
C41   Cl3   S    
C14   C31   S    
C15   C34   S    
C51   C55   A    
C2    C61   S    
C23   C25   A    
O15   Zn4   S    
C35   H7    S    
C47   Cl9   S    
O5    Zn3   S    
C33   O11   A    
C44   C46   A    
C46   C50   A    
C13   C53   A    
C1    O1    A    
C20   H16   S    
C3    O3    A    
C17   C27   A    
C27   N1    A    
C18   C28   A    
C5    H1    S    
C10   C14   A    
O9    Zn1   S    
C35   N3    A    
C17   O21   S    
C39   C43   A    
C12   O20   S    
C38   H10   S    
C22   Cl2   S    
C28   N2    A    
C40   H12   S    
C33   O15   A    
C15   C55   A    
C30   N2    A    
C16   C56   A    
C29   N1    A    
C16   C33   S    
O3    Zn2   S    
O4    Zn2   S    
C45   C49   A    
C39   C59   A    
C50   Cl12  S    
C41   C47   A    
C5    C61   A    
C42   C48   A    
C19   H15   S    
C43   C45   A    
C7    C63   A    
O18   H18   S    
O13   Zn3   S    
C8    C64   A    
C14   C54   A    
C20   C22   A    
C8    H4    S    
C21   C23   A    
O20   H20   S    
C9    O17   S    
C22   C24   A    
C40   C44   A    
O21   H21   S    
O1    Zn1   S    
C48   Cl10  S    
O22   H22   S    
N1    Zn3   S    
C7    C9    A    
C37   H9    S    
C1    O5    A    
N3    Zn1   S    
C49   Cl11  S    
C59   C63   A    
C11   O19   S    
C24   C26   A    
C47   C51   A    
O17   H17   S    
C45   Cl7   S    
C57   C61   A    
C4    O4    A    
C25   C27   A    
C29   C35   A    
C26   C28   A    
C30   C36   A    
C60   C64   A    
C6    C62   A    
C55   C57   A    
C31   O9    A    
C26   N4    A    
C36   N4    A    
C49   C53   A    
C51   Cl13  S    
C56   C58   A    
C2    O2    A    
C18   C20   A    
C31   O13   A    
C37   C41   A    
C37   C57   A    
O6    Zn3   S    
O8    Zn4   S    
C7    H3    S    
C30   H14   S    
C38   C42   A    
C36   H8    S    
C6    H2    S    
C29   H13   S    
C8    C10   A    
C25   N3    A    
N2    Zn4   S    
C18   O22   S    
C43   Cl5   S    
O2    Zn1   S    
C42   Cl4   S    
C21   Cl1   S    
C52   C56   A    
C52   Cl14  S    
C4    O8    A    
C44   Cl6   S    
