data_mof_unit_pretest_821.cif
_audit_creation_date              2012-12-11T15:30:37-0500
_audit_creation_method            fapswitch 2.2
_symmetry_space_group_name_H-M    P1
_symmetry_Int_Tables_number       1
_space_group_crystal_system       triclinic
_cell_length_a                    6.951421
_cell_length_b                    20.436323
_cell_length_c                    24.453406
_cell_angle_alpha                 89.638941
_cell_angle_beta                  90.204119
_cell_angle_gamma                 89.138818
_cell_volume                      3473.40256909

loop_
_atom_site_label
_atom_site_type_symbol
_atom_type_description
_atom_site_fract_x
_atom_site_fract_y
_atom_site_fract_z
_atom_type_partial_charge
O1    O     O_R   0.507310 0.423620 0.460450 -0.533356
O2    O     O_R   0.170760 0.556060 0.437190 -0.537553
O3    O     O_R   0.004040 0.576380 0.539550 -0.536657
C1    C     C_R   0.338779 0.576200 0.421220 0.722161
O4    O     O_R   0.177350 0.422870 0.454070 -0.537676
O5    O     O_R   0.010680 0.442240 0.556560 -0.535659
C2    C     C_R   0.347228 0.398785 0.443728 0.700233
O6    O     O_R   0.500670 0.557760 0.443440 -0.535700
O7    O     O_3   0.340380 0.506510 0.533610 -0.367809
V1    V     V_3+5 0.064130 0.498790 0.493770 1.429144
O8    O     O_R   0.681170 0.443940 0.562810 -0.536473
C3    C     C_R   0.850901 0.423753 0.578592 0.730173
O9    O     O_R   0.674570 0.577130 0.545930 -0.538802
C4    C     C_R   0.842110 0.600995 0.556797 0.690119
V2    V     V_3+5 0.564560 0.501210 0.506230 1.433197
O10   O     O_3   0.838170 0.493490 0.466390 -0.366667
C5    C     C_R   0.979105 0.838267 0.910953 -0.038508
C6    C     C_R   0.845083 0.661724 0.589185 -0.043303
C7    C     C_R   0.054070 0.722681 0.904932 -0.163230
C8    C     C_R   0.042121 0.779869 0.935370 -0.170967
C9    C     C_R   0.929261 0.839276 0.855105 -0.215550
C10   C     C_R   0.944476 0.781677 0.822585 0.086750
C11   C     C_R   0.007322 0.723080 0.849026 0.141458
C12   C     C_R   0.902300 0.780138 0.764956 0.059932
C13   C     C_R   0.922926 0.719975 0.735164 0.057807
C14   C     C_R   0.984838 0.663430 0.764011 -0.188218
C15   C     C_R   0.025729 0.665145 0.819585 -0.199037
C16   C     C_R   0.841140 0.836750 0.736078 -0.187011
C17   C     C_R   0.800069 0.835034 0.680521 -0.198723
C18   C     C_R   0.817861 0.777032 0.651117 0.138055
C19   C     C_R   0.880367 0.718396 0.677555 0.087088
C20   C     C_R   0.771151 0.777434 0.595223 -0.157588
C21   C     C_R   0.782876 0.720236 0.564765 -0.166668
C22   C     C_R   0.894780 0.660720 0.645063 -0.215081
H1    H     H_    0.073633 0.620368 0.839772 0.126506
H2    H     H_    0.939094 0.614038 0.661909 0.093227
H3    H     H_    0.742081 0.721511 0.521956 0.107237
H4    H     H_    0.752660 0.879865 0.660316 0.130839
H5    H     H_    0.103046 0.678020 0.925064 0.114633
H6    H     H_    0.083480 0.778725 0.978137 0.100661
H7    H     H_    0.884180 0.885910 0.838317 0.090843
H8    H     H_    0.004094 0.616582 0.744769 0.122624
H9    H     H_    0.823075 0.883669 0.755265 0.117067
H10   H     H_    0.722587 0.822147 0.575097 0.120669
C23   C     C_3   0.831977 0.271372 0.809327 -0.292945
C24   C     C_3   0.125377 0.221125 0.765970 -0.387564
C25   C     C_3   0.107764 0.272199 0.718796 -0.327514
H11   H     H_    0.888059 0.366272 0.770662 0.155963
H12   H     H_    0.922286 0.293362 0.841869 0.149400
H13   H     H_    0.193352 0.175446 0.750273 0.177384
H14   H     H_    0.221910 0.240206 0.798397 0.179100
H15   H     H_    0.187136 0.316974 0.730376 0.149028
H16   H     H_    0.179044 0.253113 0.681479 0.194090
C26   C     C_1   0.863484 0.377789 0.623961 -0.170147
C27   C     C_3   0.924956 0.205782 0.790342 0.189326
C28   C     C_3   0.811178 0.320448 0.760691 -0.365056
C29   C     C_3   0.893410 0.290347 0.707319 0.151722
C30   C     C_3   0.776782 0.226923 0.695465 -0.158598
C31   C     C_3   0.798213 0.176459 0.743976 0.274042
C32   C     C_1   0.876314 0.338730 0.661525 -0.053504
C33   C     C_1   0.945722 0.159177 0.837171 -0.055938
C34   C     C_1   0.960245 0.121167 0.875403 -0.195186
H17   H     H_    0.875699 0.131706 0.729026 0.064612
H18   H     H_    0.622337 0.242330 0.692595 0.141677
H19   H     H_    0.688050 0.262509 0.827460 0.179792
H20   H     H_    0.656676 0.333937 0.754881 0.149979
C35   C     C_3   0.596683 0.704726 0.268686 -0.336668
C36   C     C_3   0.249142 0.692727 0.243155 -0.350692
C37   C     C_3   0.271369 0.743191 0.195309 0.351870
H21   H     H_    0.666751 0.726997 0.183270 0.179744
H22   H     H_    0.631223 0.654312 0.254414 0.148111
H23   H     H_    0.097899 0.694010 0.258002 0.099330
H24   H     H_    0.277780 0.642154 0.228276 0.168843
H25   H     H_    0.132432 0.771399 0.192495 0.025521
C38   C     C_1   0.475088 0.878943 0.125049 -0.193677
C39   C     C_3   0.388043 0.707854 0.291096 0.232457
C40   C     C_3   0.622514 0.753981 0.220533 -0.324489
C41   C     C_3   0.432992 0.792823 0.208936 0.222183
C42   C     C_3   0.375554 0.828719 0.262358 -0.411735
C43   C     C_3   0.346402 0.779001 0.310069 -0.345456
C44   C     C_1   0.458756 0.840630 0.163055 -0.063670
C45   C     C_1   0.363924 0.660316 0.337296 -0.074067
C46   C     C_1   0.348665 0.621805 0.375273 -0.193720
H26   H     H_    0.443496 0.791379 0.344651 0.158142
H27   H     H_    0.196092 0.783241 0.325312 0.147155
H28   H     H_    0.489298 0.863903 0.273817 0.174944
H29   H     H_    0.700505 0.716124 0.301918 0.143481
H30   H     H_    0.740159 0.788312 0.230544 0.131718
H31   H     H_    0.240438 0.857630 0.255709 0.149361
C47   C     C_R   0.464393 0.160692 0.090226 -0.129101
C48   C     C_R   0.358539 0.337504 0.412505 -0.048433
C49   C     C_R   0.402049 0.277753 0.092458 0.003554
C50   C     C_R   0.418028 0.219181 0.063663 -0.285583
C51   C     C_R   0.492155 0.159389 0.147368 0.328419
C52   C     C_R   0.450014 0.216926 0.179217 -0.026313
C53   C     C_R   0.423972 0.277200 0.150248 0.021200
C54   C     C_R   0.431631 0.217446 0.238133 0.049605
C55   C     C_R   0.424281 0.278221 0.266932 0.069780
C56   C     C_R   0.430240 0.336536 0.236026 -0.184604
C57   C     C_R   0.425473 0.335940 0.179424 -0.130252
C58   C     C_R   0.406673 0.159513 0.268647 -0.260871
C59   C     C_R   0.386977 0.159040 0.325399 -0.044400
C60   C     C_R   0.379290 0.218764 0.354160 0.062059
C61   C     C_R   0.402447 0.279001 0.325371 0.075874
C62   C     C_R   0.338682 0.219846 0.410759 -0.107934
C63   C     C_R   0.327719 0.278389 0.439272 -0.157859
C64   C     C_R   0.396757 0.338004 0.356245 -0.200322
H32   H     H_    0.425886 0.382819 0.158701 0.152456
H33   H     H_    0.419797 0.385357 0.338117 0.091064
H34   H     H_    0.295274 0.277527 0.482589 0.125549
H35   H     H_    0.395088 0.219058 0.019748 0.152437
H36   H     H_    0.429679 0.384355 0.254142 0.118244
H37   H     H_    0.395323 0.112906 0.249091 0.208603
H38   H     H_    0.309149 0.175745 0.433590 0.161392
O11   O     O_R   0.323590 0.942280 0.056590 -0.536847
O12   O     O_R   0.647030 0.077140 0.045940 -0.544979
O13   O     O_R   0.813570 0.057750 0.943430 -0.533554
C65   C     C_R   0.477173 0.100539 0.057238 0.770550
O14   O     O_R   0.653510 0.943950 0.062820 -0.540916
O15   O     O_R   0.820100 0.923600 0.960440 -0.535412
C66   C     C_R   0.485395 0.924118 0.078938 0.736002
O16   O     O_R   0.317060 0.076430 0.039590 -0.541143
O17   O     O_3   0.483830 0.993520 0.966410 -0.367186
V3    V     V_3+5 0.760140 0.001200 0.006230 1.402259
O18   O     O_R   0.149560 0.922820 0.954030 -0.537904
C67   C     C_R   0.982021 0.898958 0.943260 0.693329
O19   O     O_R   0.143080 0.056020 0.937150 -0.538354
C68   C     C_R   0.973303 0.076057 0.921297 0.727959
V4    V     V_3+5 0.259690 0.998730 0.993720 1.410382
O20   O     O_3   0.986120 0.006480 0.033580 -0.374958
O21   O     O_3   0.611699 0.162768 0.764638 -0.579574
C69   C     C_3   0.573981 0.094915 0.766145 0.050157
H39   H     H_    0.455023 0.087438 0.795660 0.152070
H40   H     H_    0.698938 0.065516 0.781861 0.107988
C70   C     C_3   0.509495 0.070621 0.709840 -0.315290
H41   H     H_    0.390624 0.102434 0.693970 0.224037
H42   H     H_    0.631069 0.073035 0.680593 0.199362
C71   C     C_3   0.440522 0.000168 0.712992 -0.818416
H43   H     H_    0.557272 0.967434 0.728758 0.224314
H44   H     H_    0.398460 0.983519 0.671563 0.241694
H45   H     H_    0.313651 0.996780 0.740313 0.227766
C72   C     C_2   0.827209 0.195740 0.641138 0.708121
O22   O     O_2   0.709505 0.197022 0.603837 -0.550276
O23   O     O_R   0.005745 0.164662 0.633775 -0.679145
H46   H     H_    0.020889 0.145669 0.595811 0.306546
O24   O     O_3   0.318447 0.709052 0.146427 -0.571432
C73   C     C_3   0.180788 0.720573 0.104525 0.074982
H47   H     H_    0.251512 0.710427 0.064740 0.140073
H48   H     H_    0.131748 0.772748 0.102524 0.104179
C74   C     C_3   0.011020 0.674143 0.110814 -0.327784
H49   H     H_    0.062221 0.622912 0.104831 0.205598
H50   H     H_    0.951291 0.677820 0.152693 0.183154
C75   C     C_3   0.851794 0.690040 0.069496 -0.816888
H51   H     H_    0.797956 0.741043 0.074986 0.230550
H52   H     H_    0.730149 0.656224 0.075735 0.248120
H53   H     H_    0.906236 0.684042 0.027164 0.229097
C76   C     C_2   0.375389 0.094018 0.352731 0.750219
O25   O     O_2   0.469518 0.082231 0.394069 -0.554528
O26   O     O_R   0.263964 0.045041 0.329336 -0.671677
H54   H     H_    0.270373 0.002509 0.350881 0.295887
C77   C     C_2   0.349655 0.337711 0.060738 0.754105
O27   O     O_2   0.423763 0.347634 0.016212 -0.557219
O28   O     O_R   0.209448 0.381257 0.080420 -0.668598
H55   H     H_    0.185073 0.419652 0.054734 0.297070
O29   O     O_3   0.556573 0.100896 0.170335 -0.594344
C78   C     C_3   0.745742 0.106902 0.191310 0.035055
H56   H     H_    0.749686 0.083046 0.232270 0.163116
H57   H     H_    0.793124 0.158374 0.197238 0.123320
C79   C     C_3   0.887894 0.071194 0.153993 -0.284854
H58   H     H_    0.834993 0.021329 0.145019 0.213000
H59   H     H_    0.901279 0.099116 0.115171 0.209010
C80   C     C_3   0.086181 0.065593 0.180126 -0.789990
H60   H     H_    0.139379 0.115398 0.188293 0.235074
H61   H     H_    0.186930 0.040329 0.151825 0.245897
H62   H     H_    0.080103 0.037308 0.218999 0.248129

loop_
_geom_bond_atom_site_label_1
_geom_bond_atom_site_label_2
_ccdc_geom_bond_type
C49   C77   S    
C13   C19   A    
C70   C71   S    
C18   C20   A    
O29   C78   S    
O11   C66   A    
C27   C31   S    
C58   H37   S    
C79   H58   S    
C4    C6    S    
O2    C1    A    
C52   C53   A    
C35   C40   S    
C1    O6    A    
C43   H27   S    
C77   O27   D    
C70   H41   S    
C26   C32   T    
O14   V3    S    
C31   O21   S    
C14   C15   A    
C58   C59   A    
C47   C65   S    
C16   C17   A    
C73   H48   S    
O13   V3    S    
O24   C73   S    
O11   V4    S    
C18   C19   A    
C8    H6    S    
O15   C67   A    
C5    C67   S    
V2    O10   S    
C27   C33   S    
C49   C53   A    
C5    C8    A    
C28   C29   S    
C51   O29   S    
H11   C28   S    
C65   O16   A    
C73   H47   S    
O8    V2    S    
C76   O25   D    
C7    C8    A    
C40   H30   S    
C69   H39   S    
C74   C75   S    
C24   C27   S    
O19   C68   A    
C47   C51   A    
O1    V2    S    
C11   C15   A    
C75   H52   S    
O7    V1    S    
O16   V4    S    
C22   H2    S    
C80   H62   S    
C43   H26   S    
C25   H16   S    
C76   O26   S    
C38   C66   S    
O9    C4    A    
O17   V4    S    
H21   C40   S    
C78   H57   S    
C37   O24   S    
C64   H33   S    
C48   C63   A    
C37   C41   S    
C51   C52   A    
C59   C76   S    
C77   O28   S    
C80   H61   S    
C54   C55   A    
O14   C66   A    
C30   H18   S    
C57   H32   S    
C59   C60   A    
C48   C64   A    
C62   H38   S    
O17   V3    S    
C73   C74   S    
C12   C13   A    
C23   C28   S    
C39   C45   S    
O4    C2    A    
C41   C42   S    
C36   C37   S    
C29   C32   S    
C15   H1    S    
C36   H24   S    
C40   C41   S    
C24   H14   S    
C21   H3    S    
O13   C68   A    
C17   H4    S    
C7    C11   A    
O19   V4    S    
C17   C18   A    
C74   H50   S    
C25   C29   S    
C30   C72   S    
O26   H54   S    
C23   H12   S    
C36   H23   S    
C2    C48   S    
C20   H10   S    
C19   C22   A    
V3    O20   S    
C37   H25   S    
C60   C62   A    
C75   H53   S    
C6    C22   A    
O3    C4    A    
C7    H5    S    
C50   H35   S    
C9    H7    S    
C69   H40   S    
C45   C46   T    
O6    V2    S    
O9    V2    S    
C23   H19   S    
O18   C67   A    
C79   C80   S    
C10   C12   A    
C30   C31   S    
C39   C43   S    
O21   C69   S    
O2    V1    S    
O5    C3    A    
C72   O23   S    
C80   H60   S    
C14   H8    S    
C47   C50   A    
V4    O20   S    
C79   H59   S    
C70   H42   S    
C24   C25   S    
O12   V3    S    
O1    C2    A    
C31   H17   S    
C10   C11   A    
C38   C44   T    
C12   C16   A    
O23   H46   S    
C71   H45   S    
O5    V1    S    
O8    C3    A    
C52   C54   A    
C25   H15   S    
C71   H44   S    
C36   C39   S    
C62   C63   A    
C24   H13   S    
C16   H9    S    
C35   H29   S    
C74   H49   S    
C56   C57   A    
C20   C21   A    
C13   C14   A    
O4    V1    S    
O3    V1    S    
V1    O10   S    
C34   C68   S    
C41   C44   S    
C29   C30   S    
C78   H56   S    
C1    C46   S    
C69   C70   S    
C28   H20   S    
C56   H36   S    
C53   C57   A    
C49   C50   A    
O12   C65   A    
C35   H22   S    
C42   H28   S    
O7    V2    S    
C33   C34   T    
C6    C21   A    
C54   C58   A    
C42   H31   S    
O28   H55   S    
C71   H43   S    
C42   C43   S    
O18   V4    S    
C23   C27   S    
C78   C79   S    
C63   H34   S    
C55   C56   A    
C60   C61   A    
C72   O22   D    
C35   C39   S    
C75   H51   S    
C9    C10   A    
C55   C61   A    
C61   C64   A    
C3    C26   S    
O15   V3    S    
C5    C9    A    
