data_mof_unit_pretest_1018.cif
_audit_creation_date              2012-12-10T17:57:26-0500
_audit_creation_method            fapswitch 2.2
_symmetry_space_group_name_H-M    P1
_symmetry_Int_Tables_number       1
_space_group_crystal_system       triclinic
_cell_length_a                    9.620446
_cell_length_b                    10.766186
_cell_length_c                    13.524465
_cell_angle_alpha                 91.416786
_cell_angle_beta                  74.013853
_cell_angle_gamma                 90.611485
_cell_volume                      1346.20938728

loop_
_atom_site_label
_atom_site_type_symbol
_atom_type_description
_atom_site_fract_x
_atom_site_fract_y
_atom_site_fract_z
_atom_type_partial_charge
C1    C     C_R   0.500495 0.737538 0.499449 0.780691
C2    C     C_R   0.437283 0.531361 0.978506 -0.035687
C3    C     C_R   0.484841 0.541784 0.870326 -0.045411
C4    C     C_R   0.541921 0.507420 0.032164 0.085812
C5    C     C_R   0.686421 0.481314 0.975668 0.065739
C6    C     C_R   0.732246 0.508652 0.871962 -0.309517
C7    C     C_R   0.635032 0.558971 0.825038 0.507000
C8    C     C_R   0.509646 0.511897 0.139410 -0.230761
C9    C     C_R   0.752257 0.445490 0.132466 -0.171528
C10   C     C_R   0.381979 0.536662 0.812289 -0.187495
C11   C     C_R   0.614878 0.935067 0.432736 -0.196112
C12   C     C_R   0.423938 0.511594 0.699245 0.825374
C13   C     C_R   0.615942 0.063857 0.434132 -0.194472
C14   C     C_R   0.498641 0.128708 0.497908 0.001599
C15   C     C_R   0.380251 0.065191 0.559941 -0.198248
C16   C     C_R   0.381537 0.936533 0.560813 -0.180062
C17   C     C_R   0.499924 0.871547 0.498338 0.000306
C18   C     C_R   0.916586 0.603035 0.531892 0.567217
C19   C     C_R   0.060496 0.597386 0.542202 0.488529
C20   C     C_R   0.087789 0.401042 0.460850 -0.163024
C21   C     C_R   0.938954 0.399762 0.463318 -0.166731
C22   C     C_R   0.499577 0.262558 0.499326 0.769042
C23   C     C_R   0.576107 0.495502 0.301206 0.775049
C24   C     C_R   0.787227 0.442201 0.025620 -0.093107
C25   C     C_R   0.615040 0.485325 0.189315 -0.068741
C26   C     C_R   0.235314 0.552736 0.864323 -0.272989
C27   C     C_R   0.189760 0.568698 0.970898 0.540910
C28   C     C_R   0.288421 0.546282 0.027974 -0.265935
Cu1   Cu    Cu3+1 0.359340 0.499980 0.500000 0.970577
Cu2   Cu    Cu3+1 0.640660 0.500020 0.500000 0.993527
H1    H     H_    0.833001 0.419722 0.170329 0.156301
H2    H     H_    0.288963 0.115132 0.609201 0.140501
H3    H     H_    0.291468 0.887996 0.611039 0.169133
H4    H     H_    0.895132 0.318960 0.433296 0.163497
H5    H     H_    0.845868 0.505145 0.831820 0.145437
H6    H     H_    0.894939 0.414518 0.981839 0.164293
H7    H     H_    0.245545 0.539252 0.109908 0.132584
N1    N     N_R   0.147940 0.499970 0.499970 -0.214589
N2    N     N_R   0.852060 0.500060 0.499990 -0.211148
O1    O     O_R   0.381250 0.680340 0.500010 -0.529559
O2    O     O_R   0.618820 0.680370 0.500010 -0.520235
O3    O     O_R   0.323240 0.499950 0.650980 -0.573869
O4    O     O_R   0.560810 0.499980 0.650980 -0.518003
O5    O     O_R   0.381180 0.319630 0.499990 -0.588608
O6    O     O_R   0.618750 0.319660 0.499990 -0.592413
O7    O     O_R   0.439190 0.500020 0.349020 -0.587234
O8    O     O_R   0.676760 0.500050 0.349020 -0.593759
H8    H     H_    0.706341 0.112785 0.384181 0.126695
O9    O     O_3   0.842456 0.713447 0.554921 -0.531412
C29   C     C_3   0.906616 0.801210 0.479641 -0.359236
H9    H     H_    0.899422 0.769653 0.402223 0.147593
H10   H     H_    0.020920 0.822249 0.476305 0.184410
H11   H     H_    0.848079 0.890188 0.500648 0.191905
O10   O     O_3   0.118020 0.695534 0.586195 -0.578685
C30   C     C_3   0.041487 0.713271 0.690460 -0.272473
H12   H     H_    0.115644 0.755791 0.731725 0.155344
H13   H     H_    0.001847 0.624977 0.728717 0.147086
H14   H     H_    0.951085 0.778999 0.698213 0.207573
H15   H     H_    0.154009 0.321609 0.428387 0.168888
H16   H     H_    0.405161 0.542141 0.185639 0.152503
H17   H     H_    0.154966 0.554855 0.822216 0.163626
O11   O     O_3   0.044713 0.593694 0.016340 -0.600206
C31   C     C_3   0.025806 0.682421 0.097590 -0.351249
H18   H     H_    0.106190 0.759649 0.079006 0.154747
H19   H     H_    0.028803 0.637149 0.169876 0.162983
H20   H     H_    0.916947 0.724068 0.111399 0.196088
O12   O     O_3   0.689332 0.639052 0.744824 -0.544683
C32   C     C_3   0.629352 0.758747 0.772093 -0.259269
H21   H     H_    0.692384 0.826915 0.717162 0.204703
H22   H     H_    0.634529 0.789608 0.850296 0.129252
H23   H     H_    0.516330 0.762137 0.766662 0.146142
H24   H     H_    0.702433 0.885127 0.379811 0.123790

loop_
_geom_bond_atom_site_label_1
_geom_bond_atom_site_label_2
_ccdc_geom_bond_type
Cu1   N1    S    
C13   H8    S    
C2    C4    A    
C30   H12   S    
C31   H19   S    
C9    C24   A    
C6    C7    A    
C21   H4    S    
C19   N1    A    
C16   H3    S    
C20   N1    A    
Cu2   O6    S    
C1    C17   S    
C21   N2    A    
Cu1   O7    S    
C4    C8    A    
C10   C26   A    
O11   C31   S    
C30   H13   S    
C2    C3    A    
C31   H20   S    
C9    C25   A    
C15   H2    S    
Cu2   O2    S    
C3    C10   A    
C24   H6    S    
C13   C14   A    
C8    H16   S    
C20   H15   S    
C8    C25   A    
C11   C13   A    
C14   C22   S    
C26   C27   A    
Cu1   Cu2   S    
C5    C24   A    
C10   C12   S    
C28   H7    S    
C32   H23   S    
C4    C5    A    
C19   O10   S    
C1    O2    A    
C27   O11   S    
C26   H17   S    
Cu2   N2    S    
O9    C29   S    
C12   O4    A    
C3    C7    A    
C23   C25   S    
Cu1   O5    S    
C5    C6    A    
Cu1   O3    S    
Cu2   O4    S    
C29   H11   S    
C23   O8    A    
C9    H1    S    
C12   O3    A    
C7    O12   S    
C15   C16   A    
Cu2   O8    S    
C27   C28   A    
C22   O6    A    
C6    H5    S    
Cu1   O1    S    
C32   H22   S    
C18   C19   A    
C30   H14   S    
C29   H10   S    
C23   O7    A    
C18   N2    A    
O10   C30   S    
C11   C17   A    
C2    C28   A    
C14   C15   A    
C1    O1    A    
C29   H9    S    
C20   C21   A    
C11   H24   S    
C32   H21   S    
C22   O5    A    
O12   C32   S    
C18   O9    S    
C16   C17   A    
C31   H18   S    
