data_mof_unit_pretest_328.cif
_audit_creation_date              2012-12-11T14:35:59-0500
_audit_creation_method            fapswitch 2.2
_symmetry_space_group_name_H-M    P1
_symmetry_Int_Tables_number       1
_space_group_crystal_system       triclinic
_cell_length_a                    14.528002
_cell_length_b                    16.007664
_cell_length_c                    6.923753
_cell_angle_alpha                 89.992054
_cell_angle_beta                  80.98506
_cell_angle_gamma                 90.001928
_cell_volume                      1590.29388246

loop_
_atom_site_label
_atom_site_type_symbol
_atom_type_description
_atom_site_fract_x
_atom_site_fract_y
_atom_site_fract_z
_atom_type_partial_charge
O1    O     O_R   0.337460 0.413110 0.524760 -0.542657
O2    O     O_R   0.662540 0.913110 0.475240 -0.539562
O3    O     O_R   0.348690 0.587910 0.191230 -0.541878
O4    O     O_R   0.651310 0.087910 0.808770 -0.542806
O5    O     O_R   0.166530 0.586890 0.082470 -0.532775
O6    O     O_R   0.833470 0.086890 0.917530 -0.535770
C1    C     C_R   0.370717 0.616563 0.353401 0.764688
C2    C     C_R   0.629270 0.116550 0.646591 0.760518
O7    O     O_R   0.348700 0.413830 0.191250 -0.551068
O8    O     O_R   0.651300 0.913830 0.808750 -0.547959
O9    O     O_R   0.166530 0.411570 0.082490 -0.550753
O10   O     O_R   0.833470 0.911570 0.917510 -0.553091
C3    C     C_R   0.370944 0.385259 0.353324 0.760977
C4    C     C_R   0.629025 0.885278 0.646696 0.769427
O11   O     O_R   0.337460 0.588430 0.524740 -0.549043
O12   O     O_R   0.662540 0.088430 0.475260 -0.550282
O13   O     O_3   0.192230 0.499460 0.407330 -0.363477
O14   O     O_3   0.807770 0.999460 0.592670 -0.366761
V1    V     V_3+5 0.263080 0.500100 0.108540 1.441539
V2    V     V_3+5 0.736920 0.000100 0.891460 1.457147
O15   O     O_R   0.155290 0.412090 0.756570 -0.503046
O16   O     O_R   0.844710 0.912090 0.243430 -0.503778
C5    C     C_R   0.133270 0.382528 0.932747 0.767866
C6    C     C_R   0.866708 0.882486 0.067312 0.821129
O17   O     O_R   0.155290 0.586170 0.756550 -0.549669
O18   O     O_R   0.844710 0.086170 0.243450 -0.550692
C7    C     C_R   0.133100 0.615660 0.932740 0.768049
C8    C     C_R   0.866981 0.115601 0.067202 0.757191
V3    V     V_3+5 0.240910 0.499900 0.616030 1.476465
V4    V     V_3+5 0.759090 0.999900 0.383970 1.490482
O19   O     O_3   0.311760 0.500540 0.867100 -0.385468
O20   O     O_3   0.688240 0.000540 0.132900 -0.385119
C9    C     C_3   0.110118 0.769502 0.026740 0.103644
C10   C     C_3   0.889790 0.269762 0.976219 0.097160
H1    H     H_    0.157786 0.789976 0.893193 0.139848
H2    H     H_    0.843013 0.289964 0.111233 0.140109
C11   C     C_3   0.035572 0.840929 0.082920 0.557842
C12   C     C_3   0.964414 0.341036 0.919139 0.583310
H3    H     H_    0.005395 0.651853 0.270999 0.134180
H4    H     H_    0.993232 0.153737 0.726642 0.120841
C13   C     C_3   0.980017 0.663017 0.130021 -0.438637
C14   C     C_3   0.019322 0.163548 0.867385 -0.350096
C15   C     C_3   0.020471 0.707489 0.780322 -0.409938
C16   C     C_3   0.980748 0.206490 0.218823 -0.399578
C17   C     C_3   0.062797 0.687096 0.968167 -0.083879
C18   C     C_3   0.937337 0.187003 0.031750 -0.111109
H5    H     H_    0.981348 0.652416 0.737792 0.195018
H6    H     H_    0.020296 0.151210 0.258756 0.198992
H7    H     H_    0.076731 0.721159 0.655798 0.154412
H8    H     H_    0.925084 0.219525 0.344917 0.152898
C19   C     C_3   0.938023 0.811399 0.033854 0.000826
C20   C     C_3   0.062215 0.311250 0.966361 -0.039156
C21   C     C_3   0.901847 0.731708 0.156561 0.573142
C22   C     C_3   0.097794 0.231492 0.842337 0.559899
C23   C     C_3   0.954294 0.783783 0.813850 -0.399963
C24   C     C_3   0.046689 0.283004 0.185841 -0.395964
H9    H     H_    0.984373 0.836313 0.719354 0.207628
H10   H     H_    0.016704 0.335203 0.281502 0.211143
H11   H     H_    0.887117 0.767670 0.764961 0.213357
H12   H     H_    0.114156 0.266813 0.233372 0.205897
H13   H     H_    0.950570 0.602256 0.090866 0.173219
H14   H     H_    0.048838 0.102266 0.902948 0.189224
H15   H     H_    0.564736 0.807965 0.351249 0.159292
H16   H     H_    0.435046 0.307775 0.648815 0.150120
H17   H     H_    0.434741 0.694039 0.649023 0.156393
H18   H     H_    0.565175 0.194007 0.350993 0.155916
C25   C     C_2   0.439800 0.684481 0.342740 -0.308608
C26   C     C_2   0.560144 0.184425 0.657262 -0.307031
C27   C     C_2   0.465125 0.717227 0.505528 -0.128860
C28   C     C_2   0.534778 0.217161 0.494494 -0.124581
H19   H     H_    0.528966 0.794155 0.800572 0.129486
H20   H     H_    0.471031 0.294188 0.199468 0.128137
C29   C     C_2   0.559539 0.817689 0.657542 -0.325203
C30   C     C_2   0.440399 0.317656 0.342504 -0.328183
C31   C     C_2   0.534209 0.784914 0.494781 -0.113442
C32   C     C_2   0.465650 0.284805 0.505273 -0.118871
H21   H     H_    0.470251 0.708146 0.199754 0.129876
H22   H     H_    0.529686 0.208063 0.800252 0.127628
O21   O     O_3   0.168339 0.758251 0.169701 -0.639960
H23   H     H_    0.135521 0.723374 0.276837 0.288366
O22   O     O_3   0.830443 0.259269 0.835115 -0.641216
H24   H     H_    0.862525 0.224789 0.726442 0.287665
O23   O     O_3   0.821699 0.701592 0.087115 -0.657230
H25   H     H_    0.797848 0.652650 0.167873 0.284730
O24   O     O_3   0.176719 0.197991 0.910491 -0.652984
H26   H     H_    0.229473 0.237036 0.871566 0.276754
O25   O     O_3   0.063604 0.911970 0.968437 -0.667550
H27   H     H_    0.121420 0.933543 0.010597 0.318436
O26   O     O_3   0.936942 0.412052 0.034110 -0.667762
H28   H     H_    0.878960 0.433780 0.992978 0.308747
O27   O     O_3   0.028301 0.864966 0.281191 -0.618516
H29   H     H_    0.023769 0.814543 0.364332 0.304375
O28   O     O_3   0.971033 0.365156 0.721028 -0.619330
H30   H     H_    0.975668 0.314750 0.637831 0.302935
O29   O     O_3   0.877357 0.752765 0.355796 -0.660950
H31   H     H_    0.856931 0.700958 0.429058 0.273433
O30   O     O_3   0.122237 0.251922 0.642811 -0.671191
H32   H     H_    0.149646 0.201075 0.574371 0.295093

loop_
_geom_bond_atom_site_label_1
_geom_bond_atom_site_label_2
_ccdc_geom_bond_type
O25   H27   S    
O28   H30   S    
C23   H11   S    
C21   O29   S    
C9    C17   S    
O29   H31   S    
C25   H21   S    
C13   H13   S    
O4    C2    A    
V1    O19   S    
O30   H32   S    
H3    C13   S    
O24   H26   S    
C12   O26   S    
O9    V1    S    
C30   C32   D    
O3    C1    A    
C11   C19   S    
C12   C20   S    
O12   V4    S    
O13   V3    S    
C14   C18   S    
O7    C3    A    
O13   V1    S    
O5    C7    A    
O7    V1    S    
O6    C8    A    
O8    V2    S    
C22   O30   S    
O3    V1    S    
C10   C18   S    
C10   O22   S    
C14   H14   S    
C19   C23   S    
C7    C17   S    
C6    C19   S    
H4    C14   S    
C2    O12   A    
C26   H22   S    
C29   C31   D    
C20   C22   S    
O11   V3    S    
O17   V3    S    
C11   O27   S    
C4    C29   S    
H20   C30   S    
O8    C4    A    
O27   H29   S    
H19   C29   S    
C9    O21   S    
C1    O11   A    
C16   C18   S    
O15   V3    S    
O22   H24   S    
C24   H12   S    
C25   C27   D    
C16   C24   S    
O23   H25   S    
C8    C18   S    
O10   V2    S    
O1    V3    S    
H16   C32   S    
C15   C17   S    
C13   C21   S    
O14   V4    S    
C15   C23   S    
C2    C26   S    
O15   C5    A    
C28   C32   S    
O16   C6    A    
O1    C3    A    
V2    O20   S    
C16   H8    S    
O16   V4    S    
C10   C12   S    
C11   O25   S    
C15   H7    S    
C22   O24   S    
O18   V4    S    
O5    V1    S    
O17   C7    A    
O6    V2    S    
O10   C6    A    
O18   C8    A    
C21   O23   S    
O2    V4    S    
C23   H9    S    
V3    O19   S    
C14   C22   S    
V4    O20   S    
C5    C20   S    
H18   C28   S    
H15   C31   S    
H17   C27   S    
C12   O28   S    
O9    C5    A    
C9    H1    S    
C10   H2    S    
C24   H10   S    
C27   C31   S    
O14   V2    S    
O2    C4    A    
C9    C11   S    
C1    C25   S    
O21   H23   S    
O4    V2    S    
C16   H6    S    
C3    C30   S    
C26   C28   D    
C13   C17   S    
C19   C21   S    
O26   H28   S    
C15   H5    S    
C20   C24   S    
