data_mof_unit_pretest_1501.cif
_audit_creation_date              2012-12-10T19:51:09-0500
_audit_creation_method            fapswitch 2.2
_symmetry_space_group_name_H-M    P1
_symmetry_Int_Tables_number       1
_space_group_crystal_system       triclinic
_cell_length_a                    15.022484
_cell_length_b                    14.310471
_cell_length_c                    14.141893
_cell_angle_alpha                 90.000039
_cell_angle_beta                  91.733087
_cell_angle_gamma                 90.000013
_cell_volume                      3038.81678595

loop_
_atom_site_label
_atom_site_type_symbol
_atom_type_description
_atom_site_fract_x
_atom_site_fract_y
_atom_site_fract_z
_atom_type_partial_charge
C1    C     C_R   0.327962 0.499949 0.500117 0.875149
C2    C     C_R   0.951862 0.498494 0.500141 0.107766
C3    C     C_R   0.499894 0.499989 0.329292 0.909594
C4    C     C_R   0.500106 0.499989 0.670708 0.909594
C5    C     C_R   0.438752 0.105393 0.444063 -0.283129
C6    C     C_R   0.548497 0.894821 0.568481 -0.279871
C7    C     C_R   0.561248 0.105393 0.555937 -0.283129
C8    C     C_R   0.451502 0.894821 0.431519 -0.279871
C9    C     C_R   0.440827 0.203525 0.442985 0.273301
C10   C     C_R   0.549679 0.796675 0.566393 0.273234
C11   C     C_R   0.559172 0.203525 0.557015 0.273301
C12   C     C_R   0.672038 0.499949 0.499883 0.875150
C13   C     C_R   0.450321 0.796674 0.433607 0.273234
C14   C     C_1   0.499852 0.499979 0.227807 -0.152680
C15   C     C_1   0.500148 0.499979 0.772193 -0.152680
C16   C     C_1   0.499860 0.499993 0.142534 0.021621
C17   C     C_1   0.500139 0.499993 0.857465 0.021621
C18   C     C_1   0.499949 0.500007 0.042637 0.031982
C19   C     C_1   0.500051 0.500007 0.957363 0.031982
C20   C     C_R   0.500000 0.053353 0.500000 0.100912
C21   C     C_R   0.500000 0.946862 0.500000 0.099700
C22   C     C_R   0.093039 0.577802 0.468460 -0.165947
C23   C     C_R   0.184895 0.578684 0.469703 -0.162253
C24   C     C_R   0.904606 0.419616 0.468529 -0.160585
C25   C     C_R   0.906961 0.577803 0.531537 -0.165947
C26   C     C_R   0.095394 0.419617 0.531474 -0.160584
C27   C     C_R   0.812673 0.419888 0.468944 -0.163850
C28   C     C_R   0.815105 0.578685 0.530295 -0.162253
C29   C     C_R   0.187326 0.419889 0.531058 -0.163851
C30   C     C_R   0.232132 0.499577 0.500398 -0.031051
C31   C     C_R   0.767868 0.499577 0.499602 -0.031053
C32   C     C_R   0.048137 0.498494 0.499859 0.107766
H1    H     H_    0.388167 0.071631 0.400550 0.166732
H2    H     H_    0.776758 0.358517 0.444149 0.168558
H3    H     H_    0.781330 0.640623 0.554357 0.183741
H4    H     H_    0.223242 0.358519 0.555856 0.168557
H5    H     H_    0.586009 0.928638 0.624906 0.168222
H6    H     H_    0.611833 0.071631 0.599449 0.166732
H7    H     H_    0.413991 0.928638 0.375094 0.168222
H8    H     H_    0.057120 0.638685 0.442446 0.143685
H9    H     H_    0.938680 0.358441 0.442670 0.142879
H10   H     H_    0.942880 0.638687 0.557549 0.143685
H11   H     H_    0.061320 0.358443 0.557334 0.142879
H12   H     H_    0.218670 0.640621 0.445638 0.183742
I1    I     I_    0.349075 0.268371 0.347081 -0.327335
I2    I     I_    0.633785 0.732803 0.670441 -0.351589
I3    I     I_    0.650925 0.268371 0.652919 -0.327336
I4    I     I_    0.366215 0.732804 0.329558 -0.351589
N1    N     N_R   0.500000 0.252470 0.500000 -0.126067
N2    N     N_R   0.500000 0.747530 0.500000 -0.122074
O1    O     O_R   0.369060 0.579480 0.500010 -0.603487
O2    O     O_R   0.630940 0.420520 0.499990 -0.600383
O3    O     O_R   0.630940 0.579480 0.499990 -0.603487
O4    O     O_R   0.369060 0.420520 0.500010 -0.600383
O5    O     O_R   0.500000 0.579500 0.373720 -0.577595
O6    O     O_R   0.500000 0.420500 0.626280 -0.581955
O7    O     O_R   0.500000 0.579500 0.626280 -0.577596
O8    O     O_R   0.500000 0.420500 0.373720 -0.581955
Zn1   Zn    Zn3+2 0.500000 0.606140 0.500000 0.999989
Zn2   Zn    Zn3+2 0.500000 0.393860 0.500000 0.998033

loop_
_geom_bond_atom_site_label_1
_geom_bond_atom_site_label_2
_ccdc_geom_bond_type
C25   H10   S    
C6    C10   A    
C13   I4    S    
C7    C11   A    
C1    O4    A    
C3    O8    A    
C26   C32   A    
C8    C13   A    
C11   N1    A    
C8    H7    S    
O5    Zn1   S    
C11   I3    S    
C12   O3    A    
C24   C27   A    
C22   H8    S    
C4    C15   S    
C8    C21   A    
O3    Zn1   S    
C6    H5    S    
N1    Zn2   S    
C12   C31   S    
C5    C20   A    
O4    Zn2   S    
C4    O6    A    
C25   C28   A    
C9    I1    S    
C24   H9    S    
C1    O1    A    
C29   H4    S    
C5    C9    A    
C29   C30   A    
C3    C14   S    
C22   C32   A    
N2    Zn1   S    
C2    C32   S    
C1    C30   S    
C17   C19   S    
C7    H6    S    
C26   H11   S    
C18   C19   T    
C2    C25   A    
C27   H2    S    
C2    C24   A    
C14   C16   T    
O7    Zn1   S    
O1    Zn1   S    
C27   C31   A    
C13   N2    A    
C10   N2    A    
C23   C30   A    
C10   I2    S    
C9    N1    A    
C20   C21   S    
C28   H3    S    
C26   C29   A    
C16   C18   S    
C7    C20   A    
C15   C17   T    
C22   C23   A    
O2    Zn2   S    
C12   O2    A    
C3    O5    A    
C6    C21   A    
O8    Zn2   S    
C28   C31   A    
C23   H12   S    
O6    Zn2   S    
C4    O7    A    
C5    H1    S    
