data_mof_unit_pretest_1164.cif
_audit_creation_date              2012-12-11T14:44:11-0500
_audit_creation_method            fapswitch 2.2
_symmetry_space_group_name_H-M    P1
_symmetry_Int_Tables_number       1
_space_group_crystal_system       triclinic
_cell_length_a                    18.951264
_cell_length_b                    10.918614
_cell_length_c                    18.838623
_cell_angle_alpha                 89.67559
_cell_angle_beta                  90.288913
_cell_angle_gamma                 90.613939
_cell_volume                      3897.78217674

loop_
_atom_site_label
_atom_site_type_symbol
_atom_type_description
_atom_site_fract_x
_atom_site_fract_y
_atom_site_fract_z
_atom_type_partial_charge
C1    C     C_R   0.729195 0.375508 0.145250 0.593066
C2    C     C_R   0.993497 0.000541 0.036443 0.322509
C3    C     C_R   0.993633 0.775882 0.038495 -0.078060
C4    C     C_R   0.488249 0.052572 0.039444 0.273210
C5    C     C_R   0.499007 0.051083 0.965936 0.237840
C6    C     C_R   0.988280 0.552569 0.039430 0.273263
C7    C     C_R   0.999040 0.551083 0.965923 0.237876
C8    C     C_R   0.512845 0.499745 0.965046 0.315080
C9    C     C_R   0.493451 0.500540 0.036462 0.322442
C10   C     C_R   0.686561 0.905872 0.031324 0.389121
C11   C     C_R   0.292786 0.005873 0.974594 0.375592
C12   C     C_R   0.186584 0.405847 0.031332 0.389161
C13   C     C_R   0.792813 0.505822 0.974592 0.375574
C14   C     C_R   0.693634 0.875804 0.960199 0.389665
C15   C     C_R   0.285675 0.984924 0.046700 0.386379
C16   C     C_R   0.193654 0.375768 0.960210 0.389677
C17   C     C_R   0.268679 0.380474 0.852503 0.582994
C18   C     C_R   0.785704 0.484877 0.046699 0.386323
C19   C     C_R   0.744488 0.935854 0.918356 -0.066468
C20   C     C_R   0.239345 0.893966 0.070092 -0.061185
C21   C     C_R   0.244485 0.435848 0.918355 -0.066490
C22   C     C_R   0.739345 0.393967 0.070095 -0.061265
C23   C     C_R   0.783616 0.034432 0.946854 0.244898
C24   C     C_R   0.200204 0.821319 0.020797 0.198795
C25   C     C_R   0.283589 0.534467 0.946835 0.245060
C26   C     C_R   0.700177 0.321359 0.020806 0.198684
C27   C     C_R   0.783015 0.054749 0.019180 0.238088
C28   C     C_R   0.229194 0.875506 0.145249 0.593040
C29   C     C_R   0.208486 0.840790 0.948391 0.253651
C30   C     C_R   0.282994 0.554813 0.019158 0.238279
C31   C     C_R   0.708453 0.340824 0.948396 0.253527
C32   C     C_R   0.733485 0.990863 0.062994 -0.053908
C33   C     C_R   0.254444 0.934393 0.925654 -0.024442
C34   C     C_R   0.233488 0.490888 0.062991 -0.053836
C35   C     C_R   0.754442 0.434384 0.925654 -0.024498
C36   C     C_R   0.478496 0.083420 0.456772 0.435012
C37   C     C_R   0.460745 0.081754 0.527031 0.402476
C38   C     C_R   0.978519 0.583378 0.456779 0.435027
C39   C     C_R   0.768679 0.880477 0.852502 0.582998
C40   C     C_R   0.960774 0.581704 0.527039 0.402463
C41   C     C_R   0.493534 0.162457 0.575280 -0.010335
C42   C     C_R   0.528937 0.167412 0.432600 -0.055691
C43   C     C_R   0.993538 0.662451 0.575281 -0.010405
C44   C     C_R   0.028932 0.667413 0.432599 -0.055768
C45   C     C_R   0.528970 0.155322 0.147752 0.627309
C46   C     C_R   0.469262 0.155279 0.853644 0.648071
C47   C     C_R   0.028972 0.655322 0.147749 0.627233
C48   C     C_R   0.969268 0.655279 0.853639 0.648097
C49   C     C_R   0.542563 0.250888 0.551525 0.286988
C50   C     C_R   0.517307 0.387628 0.928735 0.351489
C51   C     C_R   0.557373 0.256495 0.479328 0.189291
C52   C     C_R   0.042539 0.750924 0.551518 0.286995
C53   C     C_R   0.057343 0.756535 0.479320 0.189253
C54   C     C_R   0.821541 0.892578 0.447535 0.245220
C55   C     C_R   0.214445 0.030929 0.523997 0.209551
C56   C     C_R   0.321543 0.392581 0.447535 0.245233
C57   C     C_R   0.714452 0.530942 0.523993 0.209509
C58   C     C_R   0.832072 0.869017 0.519773 0.295261
C59   C     C_R   0.220020 0.019829 0.450748 0.324388
C60   C     C_R   0.332074 0.369021 0.519773 0.295283
C61   C     C_R   0.483047 0.388923 0.072950 0.343126
C62   C     C_R   0.720027 0.519841 0.450744 0.324310
C63   C     C_R   0.774486 0.862933 0.566018 -0.020505
C64   C     C_R   0.252272 0.917299 0.422315 0.006092
C65   C     C_R   0.274487 0.362930 0.566018 -0.020505
C66   C     C_R   0.752278 0.417311 0.422311 0.006085
C67   C     C_R   0.705964 0.883032 0.540863 0.375400
C68   C     C_R   0.288752 0.834780 0.466831 0.405001
C69   C     C_R   0.205965 0.383020 0.540861 0.375379
C70   C     C_R   0.788761 0.334795 0.466827 0.405045
C71   C     C_R   0.694977 0.906622 0.469725 0.350156
C72   C     C_R   0.017342 0.887618 0.928719 0.351433
C73   C     C_R   0.288438 0.850793 0.539669 0.433666
C74   C     C_R   0.194978 0.406610 0.469723 0.350149
C75   C     C_R   0.788445 0.350807 0.539665 0.433705
C76   C     C_R   0.752662 0.914645 0.423172 0.002182
C77   C     C_R   0.251259 0.948025 0.568748 0.005905
C78   C     C_R   0.252664 0.414641 0.423171 0.002175
C79   C     C_R   0.751265 0.448037 0.568745 0.005906
C80   C     C_R   0.728554 0.017365 0.139463 0.536402
C81   C     C_R   0.259045 0.970169 0.852419 0.564348
C82   C     C_R   0.228552 0.517381 0.139462 0.536470
C83   C     C_R   0.983081 0.888929 0.072933 0.343140
C84   C     C_R   0.759044 0.470166 0.852419 0.564326
C85   C     C_R   0.730943 0.379081 0.351768 0.632445
C86   C     C_R   0.287658 0.334613 0.640019 0.609644
C87   C     C_R   0.230942 0.879077 0.351770 0.632447
C88   C     C_R   0.787657 0.834614 0.640019 0.609630
C89   C     C_R   0.557017 0.154464 0.361563 0.607005
C90   C     C_R   0.468221 0.157039 0.647193 0.558995
C91   C     C_R   0.057014 0.654465 0.361563 0.606961
C92   C     C_R   0.968221 0.657039 0.647193 0.558974
C93   C     C_R   0.741730 0.969130 0.353773 0.642182
C94   C     C_R   0.012891 0.999738 0.965028 0.315065
C95   C     C_R   0.259110 0.976579 0.643697 0.597917
C96   C     C_R   0.241731 0.469129 0.353773 0.642188
C97   C     C_R   0.759111 0.476584 0.643695 0.597914
C98   C     C_R   0.498086 0.161988 0.927001 0.111584
C99   C     C_R   0.495372 0.163269 0.076554 0.120697
C100  C     C_R   0.998110 0.661987 0.926989 0.111617
C101  C     C_R   0.995393 0.663268 0.076543 0.120659
C102  C     C_R   0.502269 0.275294 0.963819 -0.062870
C103  C     C_R   0.493604 0.275881 0.038508 -0.077939
C104  C     C_R   0.002299 0.775291 0.963806 -0.062919
Cr1   Cr    Cr6+3 0.772000 0.169640 0.250110 1.163660
Cr2   Cr    Cr6+3 0.383330 0.010620 0.749160 1.190870
Cr3   Cr    Cr6+3 0.116670 0.510620 0.250840 1.220783
Cr4   Cr    Cr6+3 0.883330 0.510620 0.749160 1.190864
Cr5   Cr    Cr6+3 0.228000 0.169640 0.749890 1.197507
Cr6   Cr    Cr6+3 0.272000 0.669640 0.250110 1.163588
Cr7   Cr    Cr6+3 0.728000 0.669640 0.749890 1.197505
Cr8   Cr    Cr6+3 0.614960 0.323350 0.249260 1.145534
Cr9   Cr    Cr6+3 0.385040 0.323350 0.750740 1.170352
Cr10  Cr    Cr6+3 0.114960 0.823350 0.249260 1.145491
Cr11  Cr    Cr6+3 0.885040 0.823350 0.750740 1.170363
Cr12  Cr    Cr6+3 0.616670 0.010620 0.250840 1.220753
F1    F     F_    0.898430 0.857240 0.545654 -0.629340
F2    F     F_    0.323442 0.770222 0.581890 -0.518920
F3    F     F_    0.128079 0.429505 0.447653 -0.561766
F4    F     F_    0.823448 0.270233 0.581886 -0.518875
F5    F     F_    0.542755 0.388187 0.861410 -0.618051
F6    F     F_    0.457457 0.390837 0.140220 -0.586176
F7    F     F_    0.042784 0.888166 0.861392 -0.618075
F8    F     F_    0.957481 0.890855 0.140200 -0.586126
F9    F     F_    0.636705 0.845051 0.069709 -0.527891
F10   F     F_    0.334591 0.100096 0.952204 -0.619702
F11   F     F_    0.136749 0.344991 0.069726 -0.527856
F12   F     F_    0.188680 0.103224 0.407218 -0.594819
F13   F     F_    0.834642 0.600010 0.952199 -0.619697
F14   F     F_    0.653560 0.782695 0.933759 -0.540257
F15   F     F_    0.321757 0.056043 0.093697 -0.554100
F16   F     F_    0.153603 0.282615 0.933787 -0.540238
F17   F     F_    0.821812 0.555959 0.093694 -0.554114
F18   F     F_    0.445249 0.003384 0.412468 -0.518914
F19   F     F_    0.409975 0.001232 0.547755 -0.570569
F20   F     F_    0.945293 0.503300 0.412485 -0.518858
F21   F     F_    0.910033 0.501129 0.547768 -0.570439
F22   F     F_    0.398433 0.357254 0.545656 -0.629355
F23   F     F_    0.688685 0.603233 0.407214 -0.594854
F24   F     F_    0.649627 0.884010 0.585196 -0.533819
F25   F     F_    0.321487 0.734719 0.440702 -0.524235
F26   F     F_    0.149626 0.383992 0.585193 -0.533812
F27   F     F_    0.821497 0.234734 0.440699 -0.524199
F28   F     F_    0.628079 0.929525 0.447656 -0.561797
H1    H     H_    0.446586 0.889085 0.044458 0.372870
H2    H     H_    0.974380 0.099615 0.119918 0.384409
H3    H     H_    0.537914 0.597286 0.881576 0.387572
H4    H     H_    0.474321 0.599606 0.119937 0.384366
H5    H     H_    0.802952 0.118396 0.858272 0.331321
H6    H     H_    0.158314 0.712670 0.091794 0.293975
H7    H     H_    0.302895 0.618398 0.858232 0.331305
H8    H     H_    0.658389 0.212547 0.091779 0.293880
H9    H     H_    0.813110 0.182658 0.083134 0.343525
H10   H     H_    0.186201 0.781518 0.852807 0.327655
H11   H     H_    0.313158 0.682580 0.083210 0.343693
H12   H     H_    0.528431 0.880377 0.964724 0.410229
H13   H     H_    0.686140 0.281581 0.852814 0.327690
H14   H     H_    0.569913 0.307844 0.645886 0.332701
H15   H     H_    0.572880 0.395342 0.420419 0.376956
H16   H     H_    0.069906 0.807879 0.645872 0.332680
H17   H     H_    0.072818 0.895371 0.420386 0.376972
H18   H     H_    0.946627 0.389073 0.044439 0.372879
H19   H     H_    0.028476 0.380385 0.964708 0.410184
H20   H     H_    0.921734 0.878597 0.425201 0.372712
H21   H     H_    0.141318 0.155260 0.515540 0.417824
H22   H     H_    0.421738 0.378613 0.425203 0.372712
H23   H     H_    0.641325 0.655273 0.515537 0.417802
H24   H     H_    0.037967 0.097269 0.881556 0.387567
O1    O     O_R   0.787540 0.042690 0.170470 -0.466525
O2    O     O_R   0.454130 0.051100 0.669160 -0.428140
O3    O     O_R   0.045870 0.551100 0.330840 -0.378463
O4    O     O_R   0.954130 0.551100 0.669160 -0.428129
O5    O     O_R   0.681340 0.959300 0.325510 -0.455928
O6    O     O_R   0.318660 0.959300 0.674490 -0.437474
O7    O     O_R   0.181340 0.459300 0.325510 -0.455916
O8    O     O_R   0.818660 0.459300 0.674490 -0.437499
O9    O     O_3   0.667880 0.167870 0.250070 -0.390855
O10   O     O_3   0.332120 0.167870 0.749930 -0.350622
O11   O     O_3   0.167880 0.667870 0.250070 -0.390849
O12   O     O_R   0.212460 0.042690 0.829530 -0.452417
O13   O     O_3   0.832120 0.667870 0.749930 -0.350632
O14   O     O_R   0.765660 0.292160 0.175050 -0.541977
O15   O     O_R   0.234340 0.292160 0.824950 -0.420853
O16   O     O_R   0.265660 0.792160 0.175050 -0.541979
O17   O     O_R   0.734340 0.792160 0.824950 -0.420862
O18   O     O_R   0.670190 0.408980 0.168550 -0.472694
O19   O     O_R   0.329810 0.408980 0.831450 -0.495662
O20   O     O_R   0.170190 0.908980 0.168550 -0.472793
O21   O     O_R   0.829810 0.908980 0.831450 -0.495651
O22   O     O_R   0.556580 0.251450 0.175160 -0.469399
O23   O     O_R   0.287540 0.542690 0.170470 -0.466770
O24   O     O_R   0.443420 0.251450 0.824840 -0.454025
O25   O     O_R   0.056580 0.751450 0.175160 -0.469512
O26   O     O_R   0.943420 0.751450 0.824840 -0.454028
O27   O     O_R   0.545920 0.049510 0.170320 -0.435880
O28   O     O_R   0.454080 0.049510 0.829680 -0.434235
O29   O     O_R   0.045920 0.549510 0.170320 -0.435867
O30   O     O_R   0.954080 0.549510 0.829680 -0.434221
O31   O     O_R   0.681390 0.957840 0.176710 -0.412926
O32   O     O_R   0.318610 0.957840 0.823290 -0.475300
O33   O     O_R   0.181390 0.457840 0.176710 -0.412860
O34   O     O_R   0.712460 0.542690 0.829530 -0.452429
O35   O     O_R   0.818610 0.457840 0.823290 -0.475280
O36   O     O_R   0.787500 0.044280 0.330990 -0.406697
O37   O     O_R   0.212500 0.044280 0.669010 -0.449947
O38   O     O_R   0.287500 0.544280 0.330990 -0.406692
O39   O     O_R   0.712500 0.544280 0.669010 -0.449933
O40   O     O_R   0.765610 0.293630 0.323860 -0.442744
O41   O     O_R   0.234390 0.293630 0.676140 -0.433864
O42   O     O_R   0.265610 0.793630 0.323860 -0.442743
O43   O     O_R   0.734390 0.793630 0.676140 -0.433862
O44   O     O_R   0.670140 0.410570 0.329080 -0.447009
O45   O     O_R   0.556540 0.252920 0.323970 -0.501928
O46   O     O_R   0.329860 0.410570 0.670920 -0.433880
O47   O     O_R   0.170140 0.910570 0.329080 -0.446974
O48   O     O_R   0.829860 0.910570 0.670920 -0.433869
O49   O     O_3   0.472093 0.946243 0.076526 -0.583385
O50   O     O_3   0.509727 0.941833 0.930860 -0.619640
O51   O     O_3   0.972127 0.446236 0.076510 -0.583354
O52   O     O_3   0.009766 0.441838 0.930845 -0.619687
O53   O     O_3   0.877086 0.897758 0.400179 -0.602210
O54   O     O_3   0.172568 0.120671 0.552715 -0.595508
O55   O     O_3   0.377088 0.397767 0.400180 -0.602193
O56   O     O_R   0.443460 0.252920 0.676030 -0.476119
O57   O     O_3   0.672575 0.620682 0.552712 -0.595545
O58   O     O_3   0.026425 0.110853 0.932091 -0.541418
O59   O     O_3   0.986497 0.112528 0.069332 -0.548852
O60   O     O_3   0.526373 0.610865 0.932111 -0.541414
O61   O     O_3   0.486442 0.612523 0.069352 -0.548923
O62   O     O_3   0.825475 0.110750 0.905700 -0.594121
O63   O     O_3   0.153726 0.729407 0.040625 -0.706746
O64   O     O_3   0.325421 0.610800 0.905661 -0.594065
O65   O     O_3   0.653670 0.229507 0.040645 -0.706642
O66   O     O_3   0.832942 0.136953 0.043722 -0.600712
O67   O     O_R   0.056540 0.752920 0.323970 -0.501937
O68   O     O_3   0.171220 0.765722 0.902265 -0.623270
O69   O     O_3   0.332895 0.637109 0.043659 -0.600908
O70   O     O_3   0.671165 0.265783 0.902273 -0.623264
O71   O     O_3   0.575838 0.334040 0.595903 -0.584907
O72   O     O_3   0.600724 0.348890 0.455917 -0.660581
O73   O     O_3   0.075788 0.834116 0.595890 -0.584816
O74   O     O_3   0.100667 0.848968 0.455903 -0.660487
O75   O     O_R   0.943460 0.752920 0.676030 -0.476098
O76   O     O_R   0.545870 0.051100 0.330840 -0.378485

loop_
_geom_bond_atom_site_label_1
_geom_bond_atom_site_label_2
_ccdc_geom_bond_type
C3    C104  A    
C95   O37   A    
C99   C103  A    
Cr12  O76   S    
C25   O64   S    
C45   O27   A    
C16   C21   A    
C47   C101  S    
C96   O7    A    
C55   C59   A    
C82   O23   A    
Cr2   O6    S    
Cr11  O26   S    
C57   C79   A    
C44   C53   A    
C36   C42   A    
C85   O44   A    
C86   O41   A    
Cr7   O13   S    
C49   O71   S    
C24   O63   S    
C81   O32   A    
C8    O60   S    
Cr10  O20   S    
C57   C62   A    
C29   O68   S    
C12   F11   S    
Cr3   O3    S    
C1    O18   A    
C90   O56   A    
C74   F3    S    
C59   C64   A    
Cr1   O1    S    
C13   C18   A    
C9    C61   A    
H5    O62   S    
Cr8   O44   S    
C89   O45   A    
C36   C37   A    
C61   C103  A    
C95   O6    A    
C92   O4    A    
C13   C35   A    
Cr4   O35   S    
C28   O20   A    
Cr8   O18   S    
C71   C76   A    
C55   C77   A    
C92   O75   A    
C43   C52   A    
H23   O57   S    
H2    O59   S    
Cr9   O19   S    
C91   O67   A    
Cr6   O23   S    
C100  C104  A    
C56   C78   A    
C18   F17   S    
C9    O61   S    
C6    C101  A    
H13   O70   S    
C93   O36   A    
C24   C29   A    
C27   O66   S    
Cr12  O27   S    
C11   C15   A    
Cr5   O10   S    
C40   C43   A    
C12   C16   A    
C29   C33   A    
C78   C96   S    
C8    C9    A    
C49   C51   A    
C88   O43   A    
H21   O54   S    
C83   F8    S    
H15   O72   S    
C37   F19   S    
C51   O72   S    
C38   F20   S    
H16   O73   S    
C10   F9    S    
C64   C87   S    
C67   C71   A    
C74   C78   A    
C42   C51   A    
Cr8   O9    S    
C57   O57   S    
H19   O52   S    
Cr5   O15   S    
Cr9   O10   S    
C46   C98   S    
Cr6   O16   S    
C1    C22   S    
Cr10  O11   S    
C97   O8    A    
Cr12  O9    S    
Cr4   O30   S    
Cr2   O2    S    
C90   O2    A    
C2    C83   A    
Cr6   O42   S    
C50   F5    S    
Cr9   O46   S    
C66   C85   S    
Cr5   O41   S    
H20   O53   S    
Cr7   O34   S    
C41   C49   A    
Cr11  O13   S    
C79   C97   S    
C2    O59   S    
C80   O1    A    
C5    O50   S    
C2    C94   A    
C15   C20   A    
C48   C100  S    
C63   C67   A    
Cr7   O17   S    
C7    C100  A    
C62   C66   A    
C68   C73   A    
C20   C24   A    
C65   C86   S    
C11   F10   S    
C53   O74   S    
C56   O55   S    
C10   C14   A    
Cr1   O9    S    
Cr3   O29   S    
Cr12  O31   S    
C30   C34   A    
Cr11  O48   S    
C14   C19   A    
C54   O53   S    
Cr2   O28   S    
H8    O65   S    
C72   C104  A    
C69   F26   S    
C98   C102  A    
C80   O31   A    
C77   C95   S    
C58   F1    S    
C17   C21   S    
H6    O63   S    
C56   C60   A    
C48   O30   A    
C61   F6    S    
Cr11  O21   S    
C19   C23   A    
C86   O46   A    
Cr9   O56   S    
C38   C44   A    
C35   C84   S    
C76   C93   S    
C32   C80   S    
C63   C88   S    
C17   O15   A    
C96   O38   A    
H7    O64   S    
C11   C33   A    
C1    O14   A    
C40   F21   S    
C59   F12   S    
C54   C58   A    
C70   F27   S    
C89   O76   A    
C15   F15   S    
C69   C74   A    
Cr6   O38   S    
Cr8   O45   S    
C97   O39   A    
Cr5   O37   S    
C67   F24   S    
H17   O74   S    
C6    C7    A    
C44   C91   S    
C19   C39   S    
C55   O54   S    
C54   C76   A    
C7    O52   S    
Cr12  O5    S    
C26   O65   S    
C62   F23   S    
C31   O70   S    
C60   C65   A    
C50   C102  A    
C23   C27   A    
Cr4   O4    S    
C72   F7    S    
C45   C99   S    
Cr1   O14   S    
C87   O42   A    
Cr11  O75   S    
C75   C79   A    
C30   O69   S    
C12   C34   A    
C64   C68   A    
Cr7   O39   S    
C52   C53   A    
C84   O35   A    
Cr1   O40   S    
Cr2   O32   S    
C14   F14   S    
Cr10  O25   S    
C84   O34   A    
C25   C30   A    
Cr9   O24   S    
C21   C25   A    
H18   O51   S    
C87   O47   A    
C73   F2    S    
C88   O48   A    
C48   O26   A    
C27   C32   A    
C18   C22   A    
Cr10  O47   S    
C47   O25   A    
C3    C83   A    
C75   F4    S    
C58   C63   A    
C81   O12   A    
C46   O24   A    
C4    C5    A    
Cr1   O36   S    
C36   F18   S    
H22   O55   S    
C82   O33   A    
H3    O60   S    
C46   O28   A    
Cr10  O67   S    
C20   C28   S    
H14   O71   S    
Cr3   O11   S    
C43   C92   S    
C91   O3    A    
C42   C89   S    
C28   O16   A    
C72   C94   A    
C52   O73   S    
C38   C40   A    
Cr5   O12   S    
C3    C101  A    
C66   C70   A    
Cr3   O7    S    
Cr6   O11   S    
C17   O19   A    
C65   C69   A    
Cr4   O8    S    
C93   O5    A    
H9    O66   S    
C41   C90   S    
C8    C50   A    
C31   C35   A    
Cr3   O33   S    
C37   C41   A    
C102  C103  A    
C16   F16   S    
Cr7   O43   S    
C23   O62   S    
C94   O58   S    
Cr8   O22   S    
C6    O51   S    
C39   O17   A    
C10   C32   A    
C45   O22   A    
C26   C31   A    
H1    O49   S    
C5    C98   A    
H11   O69   S    
H10   O68   S    
C4    O49   S    
C22   C26   A    
C4    C99   A    
Cr4   O13   S    
C70   C75   A    
C39   O21   A    
C73   C77   A    
C47   O29   A    
H24   O58   S    
H12   O50   S    
H4    O61   S    
C34   C82   S    
C33   C81   S    
Cr2   O10   S    
C13   F13   S    
C68   F25   S    
C85   O40   A    
C60   F22   S    
C71   F28   S    
