data_mof_unit_pretest_2.cif
_audit_creation_date              2012-12-10T19:05:23-0500
_audit_creation_method            fapswitch 2.2
_symmetry_space_group_name_H-M    P1
_symmetry_Int_Tables_number       1
_space_group_crystal_system       triclinic
_cell_length_a                    9.586975
_cell_length_b                    10.883175
_cell_length_c                    17.216352
_cell_angle_alpha                 91.54295
_cell_angle_beta                  85.804777
_cell_angle_gamma                 89.018294
_cell_volume                      1790.50643684

loop_
_atom_site_label
_atom_site_type_symbol
_atom_type_description
_atom_site_fract_x
_atom_site_fract_y
_atom_site_fract_z
_atom_type_partial_charge
C1    C     C_R   0.499271 0.737013 0.499751 0.810804
C2    C     C_R   0.529824 0.512456 0.266356 -0.051723
C3    C     C_R   0.380150 0.941093 0.502422 0.084849
C4    C     C_R   0.481464 0.504274 0.649994 0.805171
C5    C     C_R   0.500933 0.869370 0.500059 -0.129890
C6    C     C_R   0.629323 0.930353 0.500539 -0.180683
C7    C     C_R   0.634596 0.059370 0.504481 -0.007473
C8    C     C_R   0.506847 0.129803 0.505082 -0.193794
C9    C     C_R   0.383124 0.064939 0.505193 0.105914
C10   C     C_3   0.227347 0.078720 0.508138 -0.190887
C11   C     C_3   0.224471 0.936876 0.505177 -0.433096
C12   C     C_R   0.348799 0.496673 0.779239 -0.152569
C13   C     C_R   0.933012 0.416768 0.455055 0.148430
C14   C     C_R   0.915659 0.571828 0.550874 -0.026274
C15   C     C_R   0.064017 0.572285 0.552194 0.060690
C16   C     C_R   0.501607 0.262828 0.502339 0.788184
C17   C     C_R   0.080287 0.416488 0.453483 0.078286
C18   C     C_3   0.086739 0.398465 0.364515 0.362028
C19   C     C_3   0.927682 0.398337 0.370296 -0.417930
C20   C     C_R   0.518686 0.502001 0.350337 0.769832
C21   C     C_R   0.471142 0.524713 0.734400 -0.035065
C22   C     C_R   0.581333 0.581794 0.769602 -0.275459
C23   C     C_R   0.452623 0.608407 0.151958 -0.075810
C24   C     C_R   0.571348 0.610185 0.849337 0.028474
C25   C     C_R   0.451203 0.573244 0.895141 0.149566
C26   C     C_R   0.339428 0.520091 0.859258 -0.168792
C27   C     C_2   0.774416 0.113573 0.511613 0.372240
C28   C     C_2   0.164694 0.136877 0.583386 0.489204
C29   C     C_2   0.122076 0.654629 0.611483 0.341925
C30   C     C_2   0.136037 0.507084 0.317271 0.320213
C31   C     C_3   0.278298 0.268955 0.316667 0.089238
C32   C     C_3   0.313961 0.139056 0.284393 -0.352675
C33   C     C_3   0.471667 0.119351 0.268892 -0.908123
C34   C     C_R   0.446244 0.599339 0.232356 -0.153083
C35   C     C_2   0.685671 0.682505 0.880718 0.351440
C36   C     C_R   0.624326 0.437653 0.219933 -0.202263
C37   C     C_R   0.629808 0.445615 0.139174 -0.140176
C38   C     C_R   0.541866 0.529128 0.104588 0.156327
C39   C     C_2   0.442707 0.578547 0.980523 -0.151040
C40   C     C_2   0.547300 0.532443 0.019169 -0.146843
Cu1   Cu    Cu3+1 0.359330 0.500020 0.500000 0.918256
Cu2   Cu    Cu3+1 0.640670 0.499980 0.500000 0.942150
H1    H     H_    0.673361 0.608959 0.734237 0.157700
H2    H     H_    0.881350 0.308233 0.355897 0.217200
H3    H     H_    0.690845 0.371291 0.246028 0.149321
H4    H     H_    0.638364 0.491090 0.986427 0.147073
H5    H     H_    0.246410 0.493035 0.893700 0.148047
H6    H     H_    0.388620 0.678252 0.127609 0.138562
H7    H     H_    0.261694 0.454609 0.752679 0.168152
H8    H     H_    0.343879 0.607346 0.010826 0.146052
H9    H     H_    0.787607 0.192076 0.550266 0.099006
H10   H     H_    0.082759 0.206580 0.581790 0.060296
H11   H     H_    0.230156 0.678397 0.609235 0.148860
H12   H     H_    0.700994 0.385234 0.103639 0.141543
H13   H     H_    0.165559 0.591332 0.346382 0.073331
H14   H     H_    0.334966 0.283730 0.369182 0.169729
H15   H     H_    0.313287 0.334369 0.271205 0.185643
H16   H     H_    0.273818 0.070241 0.326509 0.225527
H17   H     H_    0.262743 0.123783 0.229161 0.244003
H18   H     H_    0.513599 0.183755 0.224414 0.263082
H19   H     H_    0.494152 0.023724 0.246835 0.270416
H20   H     H_    0.525100 0.134110 0.323421 0.252529
H21   H     H_    0.786655 0.685426 0.847931 0.095710
H22   H     H_    0.726405 0.877725 0.500341 0.198642
H23   H     H_    0.189606 0.121737 0.455697 0.171387
H24   H     H_    0.178919 0.895263 0.559277 0.225549
H25   H     H_    0.187063 0.898113 0.450208 0.188791
H26   H     H_    0.850489 0.631760 0.590063 0.176393
H27   H     H_    0.377181 0.661138 0.268148 0.138569
H28   H     H_    0.878387 0.477605 0.342624 0.188821
N1    N     N_R   0.852130 0.499070 0.499500 -0.210644
N2    N     N_R   0.148040 0.499110 0.499500 -0.262720
O1    O     O_R   0.381190 0.680360 0.500000 -0.614834
O2    O     O_2   0.203928 0.106525 0.646149 -0.531676
O3    O     O_2   0.046660 0.699419 0.665582 -0.577349
O4    O     O_2   0.133723 0.503719 0.246420 -0.541065
O5    O     O_3   0.132950 0.279366 0.335625 -0.590195
O6    O     O_2   0.667278 0.743779 0.941158 -0.516077
O7    O     O_R   0.618770 0.680320 0.499990 -0.586522
O8    O     O_R   0.367430 0.500040 0.613600 -0.603861
O9    O     O_R   0.605020 0.500000 0.613590 -0.583920
O10   O     O_R   0.381230 0.319680 0.500010 -0.589941
O11   O     O_R   0.618810 0.319640 0.500000 -0.593226
O12   O     O_R   0.394980 0.500000 0.386410 -0.623090
O13   O     O_R   0.632570 0.499960 0.386400 -0.573350
O14   O     O_2   0.878120 0.067873 0.475866 -0.571036

loop_
_geom_bond_atom_site_label_1
_geom_bond_atom_site_label_2
_ccdc_geom_bond_type
C14   N1    A    
C32   H16   S    
C28   O2    D    
Cu1   O8    S    
C12   H7    S    
C7    C8    A    
C40   H4    S    
C15   N2    A    
C1    C5    S    
C36   C37   A    
C4    O8    A    
C5    C6    A    
C10   C28   S    
C7    C27   S    
C18   C19   S    
Cu1   Cu2   S    
C6    H22   S    
C4    O9    A    
C22   H1    S    
C27   H9    S    
C8    C9    A    
C15   C29   S    
C18   C30   S    
C31   H14   S    
C9    C10   S    
C11   H24   S    
C2    C34   A    
Cu2   O7    S    
C8    C16   S    
C21   C22   A    
Cu2   O9    S    
C11   H25   S    
C31   O5    S    
C24   C35   S    
C13   C19   S    
C2    C20   S    
C24   C25   A    
C39   C40   D    
C33   H20   S    
C13   N1    A    
C25   C26   A    
Cu1   O12   S    
C12   C21   A    
C16   O11   A    
C12   C26   A    
C27   O14   D    
C37   C38   A    
C3    C9    A    
C30   O4    D    
C31   C32   S    
C23   C34   A    
C20   O13   A    
C16   O10   A    
C17   C18   S    
C36   H3    S    
Cu2   O13   S    
C34   H27   S    
C26   H5    S    
Cu1   N2    S    
C37   H12   S    
C33   H18   S    
C20   O12   A    
C1    O7    A    
C22   C24   A    
C19   H2    S    
C10   H23   S    
C2    C36   A    
C23   H6    S    
Cu2   O11   S    
C3    C5    A    
C6    C7    A    
C29   O3    D    
C23   C38   A    
C30   H13   S    
C35   O6    D    
C13   C17   A    
C1    O1    A    
C32   C33   S    
C31   H15   S    
C25   C39   S    
C38   C40   S    
C4    C21   S    
C28   H10   S    
C29   H11   S    
C18   O5    S    
Cu1   O10   S    
Cu2   N1    S    
C3    C11   S    
C10   C11   S    
Cu1   O1    S    
C39   H8    S    
C17   N2    A    
C33   H19   S    
C14   H26   S    
C14   C15   A    
C19   H28   S    
C35   H21   S    
C32   H17   S    
