data_mof_unit_pretest_1866.cif
_audit_creation_date              2012-12-10T19:31:51-0500
_audit_creation_method            fapswitch 2.2
_symmetry_space_group_name_H-M    P1
_symmetry_Int_Tables_number       1
_space_group_crystal_system       triclinic
_cell_length_a                    18.90413
_cell_length_b                    18.596934
_cell_length_c                    18.664079
_cell_angle_alpha                 109.030255
_cell_angle_beta                  109.918125
_cell_angle_gamma                 109.562934
_cell_volume                      5044.7357923

loop_
_atom_site_label
_atom_site_type_symbol
_atom_type_description
_atom_site_fract_x
_atom_site_fract_y
_atom_site_fract_z
_atom_type_partial_charge
C1    C     C_R   0.379848 0.379769 0.499507 0.881456
C2    C     C_R   0.255734 0.180973 0.500513 0.135577
C3    C     C_3   0.300637 0.128983 0.505229 -0.489231
C4    C     C_R   0.619246 0.498785 0.621108 0.830847
C5    C     C_3   0.370984 0.199169 0.503242 -0.500089
C6    C     C_R   0.313994 0.495544 0.239469 0.131755
C7    C     C_R   0.311163 0.496967 0.312920 -0.098311
C8    C     C_R   0.240234 0.497780 0.321613 -0.216048
C9    C     C_R   0.174821 0.497155 0.256342 -0.218555
C10   C     C_R   0.182099 0.498605 0.184139 -0.098615
C11   C     C_R   0.253099 0.498199 0.178706 0.135123
C12   C     C_3   0.809346 0.499374 0.807504 0.181889
C13   C     C_3   0.296498 0.499774 0.125531 -0.495077
C14   C     C_3   0.367006 0.497734 0.195899 -0.490263
C15   C     C_R   0.764891 0.689580 0.520475 0.101887
C16   C     C_R   0.619652 0.620541 0.499965 0.880382
C17   C     C_R   0.686833 0.688447 0.503437 -0.085624
C18   C     C_R   0.678005 0.759295 0.499789 -0.220020
C19   C     C_R   0.742352 0.823632 0.499758 -0.220853
C20   C     C_R   0.816121 0.817868 0.506106 -0.093313
C21   C     C_R   0.829416 0.754320 0.522759 0.149330
C22   C     C_3   0.853208 0.691767 0.477753 -0.499308
C23   C     C_3   0.847231 0.549155 0.765008 -0.375398
C24   C     C_3   0.781719 0.620216 0.475115 -0.481061
C25   C     C_R   0.997911 0.379773 0.878307 0.882159
C26   C     C_R   0.876926 0.498944 0.875085 0.831083
C27   C     C_R   0.997775 0.620609 0.117412 0.880555
C28   C     C_R   0.379128 0.499460 0.379094 0.881394
C29   C     C_R   0.117521 0.499571 0.117922 0.881826
C30   C     C_R   0.999719 0.119933 0.619739 0.881725
C31   C     C_R   0.119515 0.119939 0.499601 0.882240
C32   C     C_R   0.000073 0.879796 0.380073 0.873946
C33   C     C_R   0.880286 0.879984 0.500588 0.873662
C34   C     C_3   0.768184 0.545296 0.850140 -0.416007
C35   C     C_R   0.923810 0.241855 0.742267 0.131172
C36   C     C_R   0.999990 0.313928 0.815364 -0.096581
C37   C     C_R   0.079818 0.321674 0.825073 -0.219876
C38   C     C_R   0.080270 0.256691 0.760949 -0.217994
C39   C     C_R   0.000969 0.185862 0.686194 -0.099363
C40   C     C_3   0.664466 0.403347 0.665995 -0.397845
C41   C     C_R   0.924320 0.181386 0.679431 0.135784
C42   C     C_3   0.827824 0.129771 0.623011 -0.489486
C43   C     C_3   0.827305 0.199919 0.694844 -0.500186
C44   C     C_R   0.923240 0.690406 0.169035 0.100134
C45   C     C_R   0.316447 0.241487 0.497906 0.131378
C46   C     C_R   0.999479 0.688487 0.182881 -0.085326
C47   C     C_R   0.079294 0.758005 0.257084 -0.216733
C48   C     C_R   0.080163 0.821838 0.322846 -0.222112
C49   C     C_R   0.001357 0.816889 0.312427 -0.094045
C50   C     C_R   0.924346 0.754662 0.232835 0.151786
C51   C     C_3   0.838534 0.692187 0.215972 -0.499191
C52   C     C_3   0.737990 0.403463 0.734590 -0.398623
C53   C     C_3   0.837497 0.621137 0.145539 -0.480936
C54   C     C_3   0.774398 0.546786 0.693203 -0.416091
C55   C     C_3   0.697616 0.547509 0.780644 -0.375762
C56   C     C_R   0.312254 0.313935 0.496963 -0.097240
C57   C     C_3   0.687321 0.499232 0.689067 0.181859
C58   C     C_R   0.240360 0.322012 0.495332 -0.217085
C59   C     C_R   0.175210 0.256998 0.494739 -0.217967
C60   C     C_R   0.183778 0.185797 0.498591 -0.099514
H1    H     H_    0.655149 0.366091 0.600091 0.185054
H2    H     H_    0.374535 0.173858 0.442527 0.212547
H3    H     H_    0.235226 0.498272 0.377879 0.155630
H4    H     H_    0.602470 0.368716 0.664035 0.149182
H5    H     H_    0.120180 0.497396 0.263063 0.158071
H6    H     H_    0.257621 0.438951 0.060368 0.196598
H7    H     H_    0.319950 0.562557 0.124429 0.211211
H8    H     H_    0.369372 0.436003 0.171297 0.212121
H9    H     H_    0.430943 0.559602 0.235791 0.199208
H10   H     H_    0.619725 0.762139 0.492199 0.153646
H11   H     H_    0.733540 0.875951 0.492351 0.156532
H12   H     H_    0.818908 0.613609 0.904165 0.159240
H13   H     H_    0.839712 0.682863 0.411695 0.191309
H14   H     H_    0.919506 0.706635 0.521335 0.208042
H15   H     H_    0.726611 0.569751 0.407452 0.217033
H16   H     H_    0.710204 0.365148 0.762676 0.184984
H17   H     H_    0.806742 0.593779 0.517167 0.195095
H18   H     H_    0.140936 0.376964 0.881799 0.153249
H19   H     H_    0.141763 0.262579 0.768727 0.159461
H20   H     H_    0.805270 0.130410 0.560011 0.209475
H21   H     H_    0.805073 0.241409 0.673427 0.190361
H22   H     H_    0.798374 0.174449 0.730204 0.212672
H23   H     H_    0.790806 0.615118 0.707563 0.159908
H24   H     H_    0.139856 0.760157 0.266107 0.154404
H25   H     H_    0.141399 0.873317 0.382054 0.156714
H26   H     H_    0.843633 0.681867 0.272560 0.191339
H27   H     H_    0.766554 0.370035 0.702479 0.148933
H28   H     H_    0.787427 0.708254 0.189055 0.208170
H29   H     H_    0.842077 0.569543 0.161291 0.217566
H30   H     H_    0.785802 0.596185 0.077964 0.195343
H31   H     H_    0.769160 0.512176 0.628816 0.173546
H32   H     H_    0.879238 0.518465 0.735924 0.165627
H33   H     H_    0.716101 0.617226 0.799867 0.183399
H34   H     H_    0.897273 0.618889 0.815608 0.182839
H35   H     H_    0.738857 0.509603 0.879333 0.174580
H36   H     H_    0.799787 0.063820 0.617216 0.197286
H37   H     H_    0.634864 0.515633 0.778404 0.165092
H38   H     H_    0.234462 0.377593 0.493958 0.155164
H39   H     H_    0.119772 0.263162 0.493148 0.159364
H40   H     H_    0.323732 0.129271 0.568689 0.209623
H41   H     H_    0.263004 0.063164 0.445373 0.197387
H42   H     H_    0.434427 0.240326 0.565793 0.190432
O1    O     O_R   0.408690 0.356690 0.448570 -0.620396
O2    O     O_R   0.947510 0.091650 0.539220 -0.625945
O3    O     O_R   0.143610 0.091630 0.552030 -0.625826
O4    O     O_R   0.408080 0.460090 0.551420 -0.626475
O5    O     O_R   0.039620 0.091690 0.448080 -0.622485
O6    O     O_R   0.052490 0.908450 0.460880 -0.625325
O7    O     O_R   0.948500 0.908500 0.356930 -0.618766
O8    O     O_R   0.960380 0.908410 0.552020 -0.618688
O9    O     O_R   0.856390 0.908470 0.448070 -0.625716
O10   O     O_R   0.592400 0.448300 0.540680 -0.633021
O11   O     O_R   0.591790 0.551700 0.643540 -0.630690
O12   O     O_R   0.049530 0.460080 0.906210 -0.625540
O13   O     O_R   0.591920 0.539910 0.448580 -0.624691
O14   O     O_R   0.591310 0.643310 0.551430 -0.620654
O15   O     O_R   0.408210 0.448300 0.356460 -0.619718
O16   O     O_R   0.407600 0.551700 0.459320 -0.626712
O17   O     O_R   0.946090 0.356720 0.906270 -0.620189
O18   O     O_R   0.853510 0.448360 0.905260 -0.632914
O19   O     O_R   0.956950 0.551730 0.905200 -0.630827
O20   O     O_R   0.945130 0.540000 0.088470 -0.625138
O21   O     O_R   0.048570 0.643360 0.088400 -0.621637
O22   O     O_R   0.037700 0.448350 0.089480 -0.621763
O23   O     O_R   0.141150 0.551720 0.089410 -0.625036
O24   O     O_R   0.051500 0.091600 0.643170 -0.622821
Zn1   Zn    Zn3+2 0.500410 0.430960 0.431320 0.936071
Zn2   Zn    Zn3+2 0.499590 0.569040 0.568680 0.941338
Zn3   Zn    Zn3+2 0.928260 0.431020 0.997380 0.937702
Zn4   Zn    Zn3+2 0.066400 0.569060 0.997290 0.939753
Zn5   Zn    Zn3+2 0.069430 0.000010 0.569450 0.944805
Zn6   Zn    Zn3+2 0.930570 0.000090 0.430650 0.944644

loop_
_geom_bond_atom_site_label_1
_geom_bond_atom_site_label_2
_ccdc_geom_bond_type
C18   H10   S    
C30   O24   A    
C42   H20   S    
C29   O23   A    
O12   Zn4   S    
C41   C42   S    
C19   H11   S    
C35   C36   A    
C58   H38   S    
O19   Zn4   S    
C55   H33   S    
C7    C8    A    
C39   C41   A    
O11   Zn2   S    
C12   C23   S    
C42   H36   S    
C36   C37   A    
C1    C56   S    
C26   O18   A    
C28   O15   A    
C38   C39   A    
C2    C60   A    
C38   H19   S    
C29   O22   A    
O4    Zn2   S    
O13   Zn1   S    
C18   C19   A    
O10   Zn1   S    
C5    H42   S    
C3    H40   S    
C19   C20   A    
C45   C56   A    
C8    C9    A    
O6    Zn5   S    
C4    C57   S    
O22   Zn3   S    
C33   O9    A    
C26   O19   A    
C35   C43   S    
C9    C10   A    
C1    O1    A    
O20   Zn3   S    
C1    O4    A    
C3    H41   S    
C4    O10   A    
O14   Zn2   S    
C59   C60   A    
C21   C22   S    
C31   O3    A    
O16   Zn2   S    
O23   Zn4   S    
C51   H26   S    
C54   H23   S    
C12   C52   S    
C27   O20   A    
C44   C46   A    
C50   C51   S    
C13   H6    S    
C2    C45   A    
C32   O7    A    
O18   Zn3   S    
C4    O11   A    
C34   H35   S    
O3    Zn5   S    
C6    C11   A    
C27   O21   A    
C16   C17   S    
C8    H3    S    
C3    C5    S    
C58   C59   A    
C40   C52   S    
C5    C45   S    
C7    C28   S    
C12   C26   S    
C51   C53   S    
C31   C60   S    
C37   C38   A    
C6    C14   S    
C24   H17   S    
C47   C48   A    
C55   H37   S    
O7    Zn6   S    
C17   C18   A    
C44   C53   S    
C34   C55   S    
O8    Zn5   S    
C47   H24   S    
O15   Zn1   S    
C20   C33   S    
C27   C46   S    
C48   C49   A    
C55   C57   S    
O21   Zn4   S    
C32   O6    A    
C43   H21   S    
C14   H9    S    
C22   C24   S    
C42   C43   S    
C22   H14   S    
C12   C34   S    
C16   O13   A    
C34   H12   S    
O1    Zn1   S    
C23   C54   S    
C13   H7    S    
C44   C50   A    
C30   C39   S    
C15   C17   A    
C46   C47   A    
C15   C24   S    
C40   C57   S    
C48   H25   S    
C31   O5    A    
C52   H27   S    
O5    Zn6   S    
C52   H16   S    
C51   H28   S    
C24   H15   S    
C6    C7    A    
C37   H18   S    
C25   O17   A    
C40   H4    S    
C23   H34   S    
C16   O14   A    
C2    C3    S    
C54   H31   S    
C28   O16   A    
C25   O12   A    
C53   H29   S    
C11   C13   S    
C10   C29   S    
O24   Zn5   S    
C59   H39   S    
O17   Zn3   S    
C56   C58   A    
C5    H2    S    
C35   C41   A    
C9    H5    S    
C32   C49   S    
C10   C11   A    
C40   H1    S    
C25   C36   S    
O9    Zn6   S    
C15   C21   A    
C20   C21   A    
C49   C50   A    
O2    Zn6   S    
C30   O2    A    
C53   H30   S    
C43   H22   S    
C14   H8    S    
C23   H32   S    
C33   O8    A    
C22   H13   S    
C13   C14   S    
C54   C57   S    
