data_mof_unit_pretest_439.cif
_audit_creation_date              2012-12-10T19:09:33-0500
_audit_creation_method            fapswitch 2.2
_symmetry_space_group_name_H-M    P1
_symmetry_Int_Tables_number       1
_space_group_crystal_system       triclinic
_cell_length_a                    14.637228
_cell_length_b                    15.477883
_cell_length_c                    9.680959
_cell_angle_alpha                 89.849463
_cell_angle_beta                  89.414527
_cell_angle_gamma                 89.732354
_cell_volume                      2193.10750112

loop_
_atom_site_label
_atom_site_type_symbol
_atom_type_description
_atom_site_fract_x
_atom_site_fract_y
_atom_site_fract_z
_atom_type_partial_charge
C1    C     C_R   0.127551 0.385581 0.499634 0.865258
C2    C     C_R   0.122424 0.619930 0.499303 0.851098
C3    C     C_R   0.627550 0.885581 0.499634 0.865267
C4    C     C_R   0.622418 0.119936 0.499303 0.851097
C5    C     C_3   0.911611 0.534391 0.082546 -0.219198
C6    C     C_3   0.911801 0.534557 0.919903 -0.250854
C7    C     C_3   0.411622 0.034421 0.082545 -0.219154
C8    C     C_3   0.411813 0.034591 0.919902 -0.250847
C9    C     C_R   0.874968 0.381868 0.501005 0.940715
C10   C     C_R   0.882252 0.624513 0.500133 0.927408
C11   C     C_R   0.374968 0.881868 0.501005 0.940726
C12   C     C_R   0.382259 0.124518 0.500133 0.927379
C13   C     C_3   0.853664 0.226588 0.532344 -0.487360
C14   C     C_3   0.759320 0.309080 0.359666 -0.458745
C15   C     C_3   0.837413 0.758871 0.378433 -0.450345
C16   C     C_3   0.824946 0.750053 0.633721 -0.503975
C17   C     C_3   0.353664 0.726591 0.532392 -0.487312
C18   C     C_3   0.259343 0.809059 0.359646 -0.458785
C19   C     C_3   0.337450 0.258904 0.378475 -0.450342
C20   C     C_3   0.324924 0.250036 0.633756 -0.503962
C21   C     C_3   0.285768 0.651804 0.517277 -0.442019
C22   C     C_3   0.184604 0.740970 0.361803 -0.425005
C23   C     C_3   0.264487 0.330734 0.375595 -0.413707
C24   C     C_3   0.252866 0.321836 0.634760 -0.422027
C25   C     C_3   0.785763 0.151807 0.517207 -0.442013
C26   C     C_3   0.684566 0.241005 0.361839 -0.425059
C27   C     C_3   0.764452 0.830702 0.375554 -0.413723
C28   C     C_3   0.752893 0.821859 0.634723 -0.422064
C29   C     C_3   0.728399 0.332572 0.617761 1.021864
C30   C     C_3   0.717337 0.656418 0.478871 1.009918
C31   C     C_3   0.228380 0.832585 0.617723 1.021836
C32   C     C_3   0.217352 0.156427 0.478795 1.009888
C33   C     C_3   0.804908 0.314419 0.504029 0.050097
C34   C     C_3   0.815941 0.695051 0.499857 0.051483
C35   C     C_3   0.304909 0.814418 0.504026 0.050083
C36   C     C_3   0.315951 0.195059 0.499857 0.051478
C37   C     C_3   0.188623 0.689363 0.499119 0.122979
C38   C     C_3   0.197011 0.318864 0.499245 0.109967
C39   C     C_3   0.688616 0.189370 0.499120 0.122974
C40   C     C_3   0.697007 0.818861 0.499244 0.109977
C41   C     C_3   0.167157 0.749805 0.622430 -0.517043
C42   C     C_3   0.146943 0.231815 0.485127 -0.516373
C43   C     C_3   0.667181 0.249788 0.622470 -0.517069
C44   C     C_3   0.646933 0.731812 0.485202 -0.516388
C45   C     C_3   0.010923 0.411511 0.081542 -0.239552
C46   C     C_3   0.010861 0.411507 0.918867 -0.234484
C47   C     C_3   0.073608 0.553810 0.917413 -0.229447
C48   C     C_3   0.073553 0.553862 0.079981 -0.239498
C49   C     C_3   0.510890 0.911505 0.081543 -0.239549
C50   C     C_3   0.510824 0.911501 0.918867 -0.234480
C51   C     C_3   0.573633 0.053783 0.917413 -0.229444
C52   C     C_3   0.573575 0.053838 0.079981 -0.239498
H1    H     H_    0.882613 0.225906 0.638191 0.201130
H2    H     H_    0.730055 0.372315 0.328495 0.189996
H3    H     H_    0.838893 0.725627 0.276718 0.209884
H4    H     H_    0.820217 0.711566 0.729953 0.182992
H5    H     H_    0.382604 0.725928 0.638245 0.201129
H6    H     H_    0.230068 0.872286 0.328457 0.189993
H7    H     H_    0.338958 0.225681 0.276742 0.209875
H8    H     H_    0.320180 0.211533 0.729970 0.182979
H9    H     H_    0.911663 0.216825 0.458534 0.167227
H10   H     H_    0.811094 0.291068 0.279459 0.188848
H11   H     H_    0.906245 0.787968 0.391372 0.152330
H12   H     H_    0.894092 0.779776 0.636631 0.173627
H13   H     H_    0.411669 0.716816 0.458597 0.167217
H14   H     H_    0.311132 0.791050 0.279460 0.188849
H15   H     H_    0.406279 0.288001 0.391469 0.152310
H16   H     H_    0.394068 0.279764 0.636712 0.173632
H17   H     H_    0.304918 0.611679 0.426087 0.169698
H18   H     H_    0.195284 0.697585 0.271416 0.183258
H19   H     H_    0.297992 0.395043 0.381198 0.153876
H20   H     H_    0.287153 0.385633 0.643851 0.165718
H21   H     H_    0.804893 0.111710 0.425981 0.169729
H22   H     H_    0.695207 0.197641 0.271424 0.183267
H23   H     H_    0.797961 0.895010 0.381102 0.153891
H24   H     H_    0.787186 0.885654 0.643759 0.165716
H25   H     H_    0.288962 0.609373 0.610202 0.163155
H26   H     H_    0.116445 0.772006 0.350189 0.161859
H27   H     H_    0.227556 0.327749 0.275755 0.186304
H28   H     H_    0.208112 0.314805 0.727462 0.175815
H29   H     H_    0.788976 0.109350 0.610095 0.163143
H30   H     H_    0.616412 0.272057 0.350297 0.161868
H31   H     H_    0.727498 0.827696 0.275740 0.186314
H32   H     H_    0.708161 0.814852 0.727451 0.175823
H33   H     H_    0.183228 0.713322 0.718649 0.179866
H34   H     H_    0.092670 0.761088 0.631294 0.126505
H35   H     H_    0.106943 0.234212 0.387887 0.166023
H36   H     H_    0.094136 0.223462 0.567071 0.137441
H37   H     H_    0.683281 0.213290 0.718658 0.179860
H38   H     H_    0.592697 0.261067 0.631383 0.126526
H39   H     H_    0.606911 0.734193 0.387985 0.166004
H40   H     H_    0.594144 0.723480 0.567175 0.137451
H41   H     H_    0.955621 0.368743 0.121050 0.145576
H42   H     H_    0.955547 0.368770 0.881371 0.179388
H43   H     H_    0.066439 0.621381 0.879443 0.142327
H44   H     H_    0.066246 0.621402 0.117676 0.140303
H45   H     H_    0.455572 0.868754 0.121053 0.145572
H46   H     H_    0.455487 0.868784 0.881377 0.179397
H47   H     H_    0.566493 0.121358 0.879441 0.142326
H48   H     H_    0.566292 0.121383 0.117671 0.140292
H49   H     H_    0.076223 0.383182 0.118531 0.145725
H50   H     H_    0.076140 0.383141 0.880207 0.136954
H51   H     H_    0.140624 0.529706 0.877806 0.137493
H52   H     H_    0.140555 0.529843 0.117894 0.137278
H53   H     H_    0.576182 0.883155 0.118529 0.145717
H54   H     H_    0.576090 0.883108 0.880203 0.136953
H55   H     H_    0.640640 0.029652 0.877808 0.137487
H56   H     H_    0.640570 0.029797 0.117898 0.137279
H57   H     H_    0.853321 0.495358 0.122374 0.154544
H58   H     H_    0.853848 0.495563 0.882041 0.174772
H59   H     H_    0.900511 0.601656 0.882431 0.135519
H60   H     H_    0.900049 0.601431 0.119941 0.155920
H61   H     H_    0.353316 0.995404 0.122370 0.154556
H62   H     H_    0.353841 0.995620 0.882037 0.174715
H63   H     H_    0.400552 0.101696 0.882433 0.135517
H64   H     H_    0.400083 0.101465 0.119944 0.155927
N1    N     N_3   0.998760 0.500000 0.138610 -0.033591
N2    N     N_3   0.998760 0.500000 0.861390 -0.029555
N3    N     N_3   0.498760 0.000000 0.138610 -0.033593
N4    N     N_3   0.498760 1.000000 0.861390 -0.029547
O1    O     O_R   0.092530 0.407440 0.616040 -0.640447
O2    O     O_R   0.092530 0.407440 0.383960 -0.637897
O3    O     O_R   0.092530 0.592560 0.383960 -0.646446
O4    O     O_R   0.092530 0.592560 0.616040 -0.646422
O5    O     O_R   0.592530 0.907440 0.616040 -0.640443
O6    O     O_R   0.592530 0.907440 0.383960 -0.637896
O7    O     O_R   0.592530 0.092560 0.383960 -0.646449
O8    O     O_R   0.592530 0.092560 0.616040 -0.646421
O9    O     O_R   0.907330 0.407420 0.616040 -0.571310
O10   O     O_R   0.907330 0.407420 0.383960 -0.640481
O11   O     O_R   0.907330 0.592580 0.383960 -0.612092
O12   O     O_R   0.907330 0.592580 0.616040 -0.626939
O13   O     O_R   0.407330 0.907420 0.616040 -0.571337
O14   O     O_R   0.407330 0.907420 0.383960 -0.640477
O15   O     O_R   0.407330 0.092580 0.383960 -0.612054
O16   O     O_R   0.407330 0.092580 0.616040 -0.626964
Zn1   Zn    Zn3+2 0.999890 0.500000 0.654960 0.923865
Zn2   Zn    Zn3+2 0.999890 0.500000 0.345040 0.906977
Zn3   Zn    Zn3+2 0.499890 0.000000 0.654960 0.923849
Zn4   Zn    Zn3+2 0.499890 0.000000 0.345040 0.906989
O17   O     O_3   0.772464 0.341501 0.747861 -0.636707
C53   C     C_3   0.712672 0.369611 0.854323 -0.371446
H65   H     H_    0.749881 0.366565 0.953503 0.168029
H66   H     H_    0.651692 0.327729 0.865917 0.140518
H67   H     H_    0.691943 0.437789 0.838501 0.201314
O18   O     O_3   0.684986 0.412668 0.579971 -0.587314
C54   C     C_3   0.588302 0.414822 0.586375 -0.391866
H68   H     H_    0.564406 0.481617 0.566930 0.218980
H69   H     H_    0.561542 0.396759 0.690079 0.146031
H70   H     H_    0.558302 0.375189 0.503212 0.143118
O19   O     O_3   0.716664 0.622666 0.341514 -0.646461
C55   C     C_3   0.640611 0.569256 0.315052 -0.309716
H71   H     H_    0.656997 0.501860 0.343676 0.221852
H72   H     H_    0.576948 0.589914 0.369529 0.145386
H73   H     H_    0.627025 0.570591 0.202571 0.149966
O20   O     O_3   0.698288 0.586722 0.572536 -0.586195
C56   C     C_3   0.682690 0.607521 0.713136 -0.374881
H74   H     H_    0.670237 0.675986 0.736759 0.136776
H75   H     H_    0.741281 0.584505 0.774578 0.187025
H76   H     H_    0.621444 0.572262 0.750231 0.177477
O21   O     O_3   0.272423 0.841522 0.747839 -0.636714
C57   C     C_3   0.212616 0.869650 0.854268 -0.371397
H77   H     H_    0.249788 0.866575 0.953484 0.168011
H78   H     H_    0.151600 0.827808 0.865807 0.140503
H79   H     H_    0.191932 0.937834 0.838430 0.201307
O22   O     O_3   0.184978 0.912679 0.579903 -0.587307
C58   C     C_3   0.088291 0.914832 0.586186 -0.391828
H80   H     H_    0.064397 0.981624 0.566677 0.218965
H81   H     H_    0.061481 0.896791 0.689873 0.146032
H82   H     H_    0.058336 0.875182 0.503006 0.143122
O23   O     O_3   0.216714 0.122705 0.341414 -0.646451
C59   C     C_3   0.140680 0.069278 0.314888 -0.309699
H83   H     H_    0.157077 0.001883 0.343508 0.221818
H84   H     H_    0.076995 0.089922 0.369326 0.145385
H85   H     H_    0.127124 0.070619 0.202394 0.149947
O24   O     O_3   0.198278 0.086712 0.572415 -0.586207
C60   C     C_3   0.182673 0.107482 0.713025 -0.374798
H86   H     H_    0.170191 0.175939 0.736677 0.136751
H87   H     H_    0.241271 0.084473 0.774459 0.187023
H88   H     H_    0.121438 0.072199 0.750102 0.177502

loop_
_geom_bond_atom_site_label_1
_geom_bond_atom_site_label_2
_ccdc_geom_bond_type
C16   C28   S    
C9    C33   S    
O23   C59   S    
C31   O21   S    
C56   H74   S    
C28   H32   S    
C6    H59   S    
C54   H68   S    
C45   H41   S    
C14   C33   S    
O21   C57   S    
C3    O6    A    
C7    C8    S    
C58   H81   S    
C45   C46   S    
O5    Zn3   S    
C41   H34   S    
C46   H50   S    
O3    Zn2   S    
O6    Zn4   S    
C43   H37   S    
C50   N4    S    
N3    Zn4   S    
C32   C36   S    
C17   C35   S    
O20   C56   S    
C54   H69   S    
O8    Zn3   S    
C38   C42   S    
C19   C36   S    
C11   O13   A    
O14   Zn4   S    
C5    C6    S    
C26   C39   S    
C14   H10   S    
C28   C40   S    
C48   H52   S    
C29   C33   S    
C46   N2    S    
O1    Zn1   S    
C49   C50   S    
C1    O2    A    
C8    H63   S    
C16   C34   S    
C10   O11   A    
C24   H28   S    
C47   N2    S    
C20   C24   S    
C60   H87   S    
C12   O15   A    
C24   C38   S    
O19   C55   S    
C55   H73   S    
C19   H15   S    
C12   C36   S    
N2    Zn1   S    
C48   H44   S    
C18   C35   S    
C15   C34   S    
C13   H1    S    
C44   H40   S    
C59   H85   S    
C8    H62   S    
C30   O20   S    
C56   H75   S    
C29   C43   S    
C25   H29   S    
C6    H58   S    
C53   H67   S    
C30   C44   S    
O16   Zn3   S    
C27   H23   S    
C59   H84   S    
C26   H30   S    
C58   H82   S    
C57   H78   S    
C51   H47   S    
O15   Zn4   S    
C50   H46   S    
C43   H38   S    
C47   H51   S    
C30   C34   S    
C51   C52   S    
C7    N3    S    
O4    Zn1   S    
C54   H70   S    
O2    Zn2   S    
C11   O14   A    
C58   H80   S    
C4    O8    A    
C49   H53   S    
C19   H7    S    
O12   Zn1   S    
C9    O10   A    
C22   C37   S    
C52   H48   S    
C17   C21   S    
C21   H17   S    
C15   H3    S    
C7    H64   S    
C19   C23   S    
C16   H4    S    
C13   C33   S    
C23   H19   S    
C57   H79   S    
C32   O24   S    
C15   C27   S    
C47   C48   S    
C46   H42   S    
C31   O22   S    
C27   C40   S    
C60   H88   S    
C29   O17   S    
C51   N4    S    
C21   C37   S    
C10   C34   S    
N4    Zn3   S    
C14   C26   S    
C22   H26   S    
C44   H39   S    
C45   H49   S    
C1    C38   S    
O24   C60   S    
C14   H2    S    
C32   O23   S    
C55   H72   S    
C3    C40   S    
O13   Zn3   S    
C56   H76   S    
C2    O4    A    
O22   C58   S    
C53   H66   S    
C20   H8    S    
O7    Zn4   S    
C21   H25   S    
O10   Zn2   S    
C29   O18   S    
C22   H18   S    
C59   H83   S    
C24   H20   S    
O18   C54   S    
C45   N1    S    
C8    N4    S    
C18   H14   S    
C15   H11   S    
C31   C41   S    
C4    O7    A    
C18   C22   S    
C20   H16   S    
C13   C25   S    
N1    Zn2   S    
C39   C43   S    
C3    O5    A    
C48   N1    S    
C5    H60   S    
C9    O9    A    
C57   H77   S    
C23   C38   S    
C41   H33   S    
C4    C39   S    
C17   H13   S    
C7    H61   S    
C27   H31   S    
O11   Zn2   S    
O17   C53   S    
C25   C39   S    
C42   H36   S    
C2    C37   S    
C30   O19   S    
C49   N3    S    
C5    H57   S    
C32   C42   S    
C31   C35   S    
C11   C35   S    
C26   H22   S    
C18   H6    S    
C25   H21   S    
C37   C41   S    
C10   O12   A    
C1    O1    A    
C49   H45   S    
C20   C36   S    
C52   N3    S    
C40   C44   S    
O9    Zn1   S    
C55   H71   S    
C52   H56   S    
C51   H55   S    
C60   H86   S    
C12   O16   A    
C5    N1    S    
C13   H9    S    
C50   H54   S    
C47   H43   S    
C53   H65   S    
C42   H35   S    
C16   H12   S    
C23   H27   S    
C6    N2    S    
C2    O3    A    
C17   H5    S    
C28   H24   S    
