data_mof_unit_pretest_456.cif
_audit_creation_date              2012-10-26T19:02:33-0400
_audit_creation_method            fapswitch 2.2
_symmetry_space_group_name_H-M    P1
_symmetry_Int_Tables_number       1
_space_group_crystal_system       triclinic
_cell_length_a                    17.297978
_cell_length_b                    8.688709
_cell_length_c                    7.440371
_cell_angle_alpha                 102.911736
_cell_angle_beta                  90.229636
_cell_angle_gamma                 93.002151
_cell_volume                      1088.35357003

loop_
_atom_site_label
_atom_site_type_symbol
_atom_type_description
_atom_site_fract_x
_atom_site_fract_y
_atom_site_fract_z
_atom_type_partial_charge
C1    C     C_R   0.497632 0.199750 0.453660 0.551421
C2    C     C_R   0.775377 0.456463 0.605483 -0.128186
C3    C     C_R   0.145067 0.551682 0.405487 -0.108283
C4    C     C_R   0.854933 0.448318 0.594513 -0.108284
C5    C     C_R   0.107104 0.531702 0.565482 0.044580
C6    C     C_R   0.892896 0.468298 0.434518 0.044580
C7    C     C_R   0.150199 0.513100 0.718392 -0.113885
C8    C     C_R   0.849801 0.486900 0.281608 -0.113885
C9    C     C_R   0.230386 0.505866 0.707868 -0.129099
C10   C     C_R   0.769614 0.494134 0.292132 -0.129099
C11   C     C_2   0.022561 0.528440 0.574916 -0.133421
C12   C     C_R   0.502367 0.800250 0.546340 0.551421
C13   C     C_2   0.977439 0.471559 0.425084 -0.133421
C14   C     C_2   0.496506 0.031917 0.427504 -0.154836
C15   C     C_2   0.503494 0.968083 0.572496 -0.154836
C16   C     C_R   0.351293 0.505377 0.526569 0.545768
C17   C     C_R   0.648707 0.494623 0.473431 0.545769
C18   C     C_R   0.267734 0.517902 0.544203 0.016997
C19   C     C_R   0.732266 0.482098 0.455796 0.016997
C20   C     C_R   0.224623 0.543537 0.394517 -0.128186
Cu1   Cu    Cu3+1 0.508700 0.517250 0.683000 0.955339
Cu2   Cu    Cu3+1 0.491300 0.482750 0.317000 0.955339
H1    H     H_    0.737217 0.512043 0.174274 0.121780
H2    H     H_    0.560823 0.620754 0.041865 0.237877
H3    H     H_    0.252295 0.557631 0.268371 0.128094
H4    H     H_    0.747705 0.442369 0.731629 0.128094
H5    H     H_    0.121599 0.500015 0.843858 0.096433
H6    H     H_    0.878400 0.499984 0.156141 0.096433
H7    H     H_    0.262783 0.487957 0.825726 0.121780
H8    H     H_    0.002662 0.429936 0.290752 0.114041
H9    H     H_    0.997338 0.570064 0.709248 0.114041
H10   H     H_    0.886350 0.426055 0.711387 0.099374
H11   H     H_    0.113650 0.573945 0.288612 0.099374
H12   H     H_    0.489922 0.960516 0.287689 0.134710
H13   H     H_    0.510078 0.039483 0.712311 0.134710
H14   H     H_    0.439177 0.379246 0.958135 0.237877
N1    N     N_2   0.478180 0.456750 0.041980 -0.259406
N2    N     N_2   0.521820 0.543250 0.958020 -0.259405
O1    O     O_R   0.505650 0.286040 0.618880 -0.505876
O2    O     O_R   0.494350 0.713960 0.381120 -0.505876
O3    O     O_R   0.490960 0.256910 0.309800 -0.496171
O4    O     O_R   0.509040 0.743090 0.690200 -0.496171
O5    O     O_R   0.394600 0.516230 0.672450 -0.509502
O6    O     O_R   0.605400 0.483770 0.327550 -0.509502
O7    O     O_R   0.379910 0.487100 0.363380 -0.507750
O8    O     O_R   0.620090 0.512900 0.636620 -0.507749

loop_
_geom_bond_atom_site_label_1
_geom_bond_atom_site_label_2
_ccdc_geom_bond_type
C16   O7    A    
C14   H12   S    
C2    C4    A    
C12   O2    A    
N1    N2    D    
C10   H1    S    
C13   H8    S    
H2    N2    S    
Cu1   O1    S    
C12   C15   S    
C9    H7    S    
C10   C19   A    
Cu2   O2    S    
C17   O6    A    
C11   H9    S    
C3    C20   A    
C2    H4    S    
Cu1   Cu2   S    
C6    C13   S    
C11   C13   D    
C16   O5    A    
C4    H10   S    
C1    O3    A    
H14   N1    S    
C17   C19   S    
C5    C11   S    
C18   C20   A    
C8    H6    S    
Cu2   O3    S    
C20   H3    S    
C3    H11   S    
C12   O4    A    
Cu1   O4    S    
Cu1   O8    S    
C7    C9    A    
C9    C18   A    
Cu2   O7    S    
C7    H5    S    
C17   O8    A    
C16   C18   S    
C4    C6    A    
C15   H13   S    
C5    C7    A    
C1    O1    A    
C14   C15   D    
C6    C8    A    
C1    C14   S    
C2    C19   A    
Cu1   O5    S    
Cu2   N1    S    
C8    C10   A    
Cu2   O6    S    
Cu1   N2    S    
C3    C5    A    
