data_mof_unit_pretest_1525.cif
_audit_creation_date              2012-12-10T17:54:44-0500
_audit_creation_method            fapswitch 2.2
_symmetry_space_group_name_H-M    P1
_symmetry_Int_Tables_number       1
_space_group_crystal_system       triclinic
_cell_length_a                    18.688405
_cell_length_b                    18.946949
_cell_length_c                    18.73034
_cell_angle_alpha                 109.56985
_cell_angle_beta                  108.980838
_cell_angle_gamma                 109.415437
_cell_volume                      5133.36029581

loop_
_atom_site_label
_atom_site_type_symbol
_atom_type_description
_atom_site_fract_x
_atom_site_fract_y
_atom_site_fract_z
_atom_type_partial_charge
C1    C     C_R   0.119035 0.000038 0.618794 0.780501
C2    C     C_R   0.317742 0.079368 0.826738 -0.189356
C3    C     C_R   0.316042 0.001470 0.814968 -0.068155
C4    C     C_R   0.123030 0.118124 0.503661 0.791904
C5    C     C_R   0.257675 0.927403 0.734058 0.130085
C6    C     C_3   0.196681 0.838871 0.710993 -0.467251
C7    C     C_3   0.128682 0.839077 0.639456 -0.433632
C8    C     C_R   0.810622 0.735563 0.482261 0.095854
C9    C     C_R   0.816130 0.816117 0.504162 -0.123940
C10   C     C_R   0.761309 0.834409 0.534826 -0.176951
C11   C     C_R   0.695859 0.769494 0.533299 -0.196258
C12   C     C_R   0.254903 0.264413 0.584532 0.086245
C13   C     C_R   0.686405 0.686735 0.503238 -0.053482
C14   C     C_R   0.747688 0.672417 0.483385 0.077770
C15   C     C_3   0.732512 0.602103 0.403711 -0.511703
C16   C     C_R   0.881801 0.000399 0.381426 0.813041
C17   C     C_3   0.800784 0.671399 0.401558 0.025158
C18   C     C_R   0.817385 0.999068 0.242895 0.083611
C19   C     C_R   0.813998 0.999268 0.315743 -0.119494
C20   C     C_R   0.742253 0.000119 0.324634 -0.210226
C21   C     C_R   0.676413 0.000179 0.260815 0.138512
C22   C     C_R   0.684091 0.002616 0.188519 -0.115530
C23   C     C_R   0.195762 0.183832 0.507959 -0.135705
C24   C     C_R   0.756711 0.003160 0.183703 0.035652
C25   C     C_3   0.801064 0.005774 0.130740 -0.461959
C26   C     C_3   0.871180 0.002235 0.198964 0.004289
C27   C     C_R   0.503048 0.621722 0.619069 0.815354
C28   C     C_R   0.880776 0.881500 0.500271 0.795471
C29   C     C_R   0.380726 0.383547 0.502142 0.858900
C30   C     C_R   0.499765 0.380958 0.381295 0.816351
C31   C     C_R   0.618793 0.618763 0.500279 0.786020
C32   C     C_R   0.499256 0.118117 0.118157 0.790183
C33   C     C_R   0.381328 0.000635 0.881861 0.789063
C34   C     C_R   0.200649 0.169064 0.431718 -0.198126
C35   C     C_R   0.499997 0.881943 0.880827 0.793236
C36   C     C_R   0.618496 0.001501 0.120254 0.816486
C37   C     C_R   0.484970 0.750710 0.671674 0.060670
C38   C     C_R   0.508706 0.692670 0.687644 -0.067896
C39   C     C_R   0.540520 0.705173 0.772818 -0.161142
C40   C     C_R   0.265637 0.277878 0.667087 -0.138006
C41   C     C_R   0.537136 0.767003 0.836393 -0.196275
C42   C     C_R   0.503837 0.818000 0.815848 -0.090488
C43   C     C_R   0.483831 0.813251 0.735313 0.116686
C44   C     C_3   0.403484 0.803488 0.671092 -0.050663
C45   C     C_R   0.261114 0.234218 0.429824 0.133254
C46   C     C_3   0.405051 0.735115 0.600944 -0.428803
C47   C     C_R   0.462671 0.294170 0.229077 0.077282
C48   C     C_R   0.499449 0.313478 0.315308 -0.090081
C49   C     C_R   0.537625 0.265047 0.336370 -0.163539
C50   C     C_R   0.536949 0.199803 0.271326 -0.171921
C51   C     C_R   0.499337 0.183208 0.185050 -0.059817
C52   C     C_R   0.314204 0.361099 0.738422 -0.161402
C53   C     C_R   0.463913 0.232818 0.167197 0.053286
C54   C     C_3   0.416739 0.245822 0.095939 -0.315262
C55   C     C_3   0.414223 0.315797 0.166722 -0.244378
C56   C     C_R   0.312298 0.317843 0.502504 -0.129194
C57   C     C_R   0.345547 0.431448 0.726402 -0.124217
C58   C     C_R   0.336125 0.418364 0.645105 0.117675
C59   C     C_R   0.303357 0.334549 0.577877 0.030791
C60   C     C_1   0.471959 0.277237 0.060217 0.295770
C61   C     C_1   0.465132 0.405628 0.188544 0.312814
C62   C     C_R   0.195821 0.927964 0.669486 0.155571
C63   C     C_R   0.188815 0.002146 0.684649 -0.091193
C64   C     C_R   0.253336 0.079543 0.762399 -0.197602
Cu1   Cu    Cu3+1 0.000020 0.938200 0.438210 1.041274
Cu2   Cu    Cu3+1 0.999980 0.061800 0.561790 0.973935
Cu3   Cu    Cu3+1 0.438170 0.500030 0.438220 1.013382
Cu4   Cu    Cu3+1 0.561770 0.500000 0.561810 0.994403
Cu5   Cu    Cu3+1 0.561810 0.061820 0.000030 1.017589
Cu6   Cu    Cu3+1 0.438190 0.938280 0.000080 1.011935
H1    H     H_    0.157079 0.106708 0.373128 0.191937
H2    H     H_    0.736851 0.999810 0.380408 0.175762
H3    H     H_    0.237341 0.224571 0.677087 0.141634
H4    H     H_    0.761884 0.947280 0.065216 0.214525
H5    H     H_    0.824976 0.068127 0.131196 0.198632
H6    H     H_    0.935249 0.062642 0.238829 0.142132
H7    H     H_    0.563023 0.663918 0.788929 0.173718
H8    H     H_    0.558339 0.773529 0.900538 0.151669
H9    H     H_    0.346816 0.777321 0.680778 0.141770
H10   H     H_    0.348869 0.669514 0.569751 0.217451
H11   H     H_    0.321221 0.371173 0.801269 0.152408
H12   H     H_    0.180667 0.837890 0.762994 0.217344
H13   H     H_    0.419022 0.754077 0.554854 0.220556
H14   H     H_    0.567272 0.276908 0.402407 0.176770
H15   H     H_    0.566599 0.163538 0.288553 0.171982
H16   H     H_    0.351816 0.188450 0.045593 0.149236
H17   H     H_    0.347755 0.298432 0.157778 0.169224
H18   H     H_    0.371101 0.495611 0.778354 0.160677
H19   H     H_    0.252944 0.139368 0.774034 0.154564
H20   H     H_    0.366124 0.138953 0.886932 0.155733
H21   H     H_    0.217235 0.791677 0.685686 0.207745
H22   H     H_    0.110969 0.792502 0.573190 0.239659
H23   H     H_    0.072713 0.837460 0.649317 0.203165
H24   H     H_    0.766189 0.897292 0.555870 0.170766
H25   H     H_    0.651768 0.783227 0.553721 0.149309
H26   H     H_    0.752230 0.556970 0.417839 0.228096
H27   H     H_    0.666041 0.570479 0.348069 0.205499
H28   H     H_    0.773605 0.680102 0.344800 0.164238
I1    I     I_    0.915854 0.661290 0.424374 -0.349160
I2    I     I_    0.571223 0.000122 0.281407 -0.347202
I3    I     I_    0.875486 0.885195 0.147943 -0.307118
I4    I     I_    0.428623 0.918195 0.662373 -0.333154
I5    I     I_    0.318175 0.510484 0.613844 -0.393346
I6    I     I_    0.270410 0.201443 0.314190 -0.338915
N1    N     N_1   0.515365 0.301880 0.032238 -0.255499
N2    N     N_1   0.504710 0.476107 0.205417 -0.285654
O1    O     O_R   0.090180 0.947810 0.537990 -0.564498
O2    O     O_R   0.447830 0.038100 0.090230 -0.565182
O3    O     O_R   0.462030 0.052220 0.909860 -0.561930
O4    O     O_R   0.090150 0.052180 0.642350 -0.596663
O5    O     O_R   0.357640 0.947890 0.909900 -0.592192
O6    O     O_R   0.552170 0.962000 0.909870 -0.566608
O7    O     O_R   0.447780 0.857670 0.909910 -0.582152
O8    O     O_R   0.642360 0.052210 0.090200 -0.586300
O9    O     O_R   0.537970 0.947880 0.090240 -0.558105
O10   O     O_R   0.090190 0.037990 0.447830 -0.574562
O11   O     O_R   0.090170 0.142360 0.552190 -0.585034
O12   O     O_R   0.552150 0.590170 0.642370 -0.590827
O13   O     O_R   0.909850 0.947820 0.357650 -0.553251
O14   O     O_R   0.909820 0.052190 0.462010 -0.585322
O15   O     O_R   0.909830 0.857640 0.447810 -0.567905
O16   O     O_R   0.909810 0.962010 0.552170 -0.588597
O17   O     O_R   0.447770 0.590190 0.538000 -0.572814
O18   O     O_R   0.357600 0.409850 0.447820 -0.546607
O19   O     O_R   0.461980 0.409830 0.552180 -0.577786
O20   O     O_R   0.447790 0.409860 0.357660 -0.576839
O21   O     O_R   0.552170 0.409840 0.462020 -0.589787
O22   O     O_R   0.537960 0.590200 0.447840 -0.581532
O23   O     O_R   0.642340 0.590180 0.552210 -0.579826
O24   O     O_R   0.552220 0.142430 0.090190 -0.578195

loop_
_geom_bond_atom_site_label_1
_geom_bond_atom_site_label_2
_ccdc_geom_bond_type
C30   O20   A    
C37   C43   A    
C6    H12   S    
C29   O19   A    
C41   C42   A    
C19   C20   A    
C18   C26   S    
C36   O8    A    
Cu3   O18   S    
C32   O24   A    
C7    C62   S    
C54   C60   S    
C53   C54   S    
C12   C23   A    
C62   C63   A    
C18   C24   A    
C39   H7    S    
C49   H14   S    
C30   C48   S    
C18   C19   A    
Cu5   Cu6   S    
C16   O14   A    
C26   I3    S    
C38   C39   A    
Cu5   O6    S    
C28   O16   A    
C10   H24   S    
C27   C38   S    
C6    H21   S    
C29   O18   A    
C40   H3    S    
C34   H1    S    
C15   C17   S    
C25   H4    S    
C2    H20   S    
C35   C42   S    
C50   H15   S    
Cu4   O12   S    
C30   O21   A    
C12   C59   A    
Cu5   O3    S    
C45   C56   A    
C44   C46   S    
Cu5   O24   S    
Cu2   O11   S    
C26   H6    S    
Cu2   O16   S    
C33   O5    A    
Cu1   O15   S    
C17   H28   S    
C47   C53   A    
Cu2   O14   S    
C21   C22   A    
C4    O10   A    
Cu4   O23   S    
C64   H19   S    
C15   H27   S    
C1    C63   S    
C2    C64   A    
Cu6   O7    S    
C7    H23   S    
Cu5   O8    S    
C31   O22   A    
Cu3   Cu4   S    
C24   C25   S    
C39   C41   A    
C10   C11   A    
Cu3   O20   S    
C15   H26   S    
C54   H16   S    
C21   I2    S    
C27   O17   A    
C28   O15   A    
C8    C9    A    
C25   C26   S    
C40   C52   A    
C63   C64   A    
C25   H5    S    
C12   C40   A    
C43   C44   S    
C32   C51   S    
C37   C38   A    
C45   I6    S    
C1    O4    A    
C47   C48   A    
C23   C34   A    
C50   C51   A    
Cu1   O13   S    
C34   C45   A    
Cu2   O4    S    
C61   N2    T    
C17   I1    S    
Cu4   O21   S    
C1    O1    A    
C48   C49   A    
Cu1   Cu2   S    
Cu1   O10   S    
C22   C24   A    
C4    O11   A    
C16   O13   A    
C33   O3    A    
C42   C43   A    
C52   C57   A    
C41   H8    S    
C47   C55   S    
C9    C10   A    
C27   O12   A    
C11   H25   S    
C4    C23   S    
C54   C55   S    
C8    C14   A    
C13   C31   S    
C44   H9    S    
C3    C5    A    
Cu3   O17   S    
C56   C59   A    
C6    C7    S    
C29   C56   S    
Cu6   O9    S    
C22   C36   S    
C8    C17   S    
C57   H18   S    
C2    C3    A    
C58   C59   A    
C31   O23   A    
Cu6   O2    S    
Cu3   O22   S    
C46   H10   S    
C11   C13   A    
C57   C58   A    
C5    C6    S    
C16   C19   S    
C7    H22   S    
C55   C61   S    
C5    C62   A    
C35   O7    A    
C55   H17   S    
C52   H11   S    
Cu6   O5    S    
C35   O6    A    
C46   H13   S    
C20   C21   A    
C49   C50   A    
C32   O2    A    
C3    C33   S    
C14   C15   S    
C20   H2    S    
C58   I5    S    
C51   C53   A    
C37   C46   S    
C13   C14   A    
C36   O9    A    
Cu4   O19   S    
Cu1   O1    S    
C60   N1    T    
C9    C28   S    
C44   I4    S    
