data_mof_unit_pretest_1755.cif
_audit_creation_date              2012-10-26T17:57:14-0400
_audit_creation_method            fapswitch 2.2
_symmetry_space_group_name_H-M    P1
_symmetry_Int_Tables_number       1
_space_group_crystal_system       triclinic
_cell_length_a                    27.791164
_cell_length_b                    27.815231
_cell_length_c                    27.766259
_cell_angle_alpha                 109.412838
_cell_angle_beta                  109.428671
_cell_angle_gamma                 109.557845
_cell_volume                      16525.7402829

loop_
_atom_site_label
_atom_site_type_symbol
_atom_type_description
_atom_site_fract_x
_atom_site_fract_y
_atom_site_fract_z
_atom_type_partial_charge
C1    C     C_R   0.419995 0.419977 0.500073 0.553503
C2    C     C_1   0.339007 0.500039 0.336502 0.003214
C3    C     C_2   0.958314 0.739756 0.131818 0.534822
C4    C     C_2   0.062369 0.373303 0.773853 0.569409
C5    C     C_2   0.932772 0.625849 0.222106 0.569302
C6    C     C_3   0.118034 0.353283 0.845336 -0.362539
C7    C     C_3   0.881732 0.649536 0.151629 -0.362937
C8    C     C_3   0.079936 0.281791 0.696346 -0.365995
C9    C     C_3   0.915966 0.718149 0.299600 -0.366647
C10   C     C_3   0.885946 0.230055 0.733070 -0.375645
C11   C     C_3   0.114065 0.767111 0.269789 -0.376981
C12   C     C_3   0.930771 0.307020 0.711583 -0.371180
C13   C     C_1   0.624483 0.499932 0.624905 0.032223
C14   C     C_3   0.064406 0.688899 0.287685 -0.372402
C15   C     C_3   0.888415 0.162066 0.629876 -0.406336
C16   C     C_3   0.109856 0.834318 0.372029 -0.406139
C17   C     C_3   0.955138 0.131979 0.738054 -0.404522
C18   C     C_3   0.050051 0.869443 0.265749 -0.404852
C19   C     C_2   0.656039 0.519059 0.771422 0.577549
C20   C     C_2   0.344329 0.476343 0.226302 0.621093
C21   C     C_2   0.795921 0.584494 0.879753 0.544631
C22   C     C_2   0.209551 0.422988 0.118539 0.567211
C23   C     C_3   0.853895 0.514110 0.740831 -0.386543
C24   C     C_1   0.375798 0.500172 0.374970 0.048264
C25   C     C_3   0.144374 0.480922 0.255383 -0.388556
C26   C     C_3   0.242431 0.243040 0.434881 -0.221224
C27   C     C_3   0.757596 0.756903 0.565090 -0.220682
C28   C     C_3   0.261791 0.318535 0.530532 -0.225165
C29   C     C_3   0.738151 0.681431 0.469377 -0.225067
C30   C     C_3   0.207104 0.269091 0.523030 -0.045572
C31   C     C_3   0.792837 0.730866 0.476866 -0.045434
C32   C     C_1   0.124569 0.125027 0.500083 0.088095
C33   C     C_R   0.580002 0.580022 0.499923 0.552226
C34   C     C_1   0.875428 0.874962 0.499904 0.088045
C35   C     C_3   0.290678 0.291527 0.499156 -0.024547
C36   C     C_3   0.709313 0.708454 0.500815 -0.023398
C37   C     C_R   0.580031 0.500035 0.580055 0.556725
C38   C     C_R   0.419971 0.499947 0.419941 0.554921
C39   C     C_3   0.194742 0.189438 0.432387 0.058449
C40   C     C_3   0.805291 0.810505 0.567590 0.058485
C41   C     C_3   0.206786 0.208849 0.498297 -0.000866
C42   C     C_3   0.793205 0.791129 0.501672 -0.000681
C43   C     C_3   0.269541 0.218551 0.536142 -0.137222
C44   C     C_3   0.819001 0.537879 0.765816 0.002718
C45   C     C_3   0.730459 0.781480 0.463888 -0.136474
C46   C     C_3   0.317135 0.263233 0.531580 -0.202765
C47   C     C_3   0.682869 0.736796 0.468451 -0.204286
C48   C     C_1   0.161524 0.162700 0.499479 0.063698
C49   C     C_1   0.838469 0.837282 0.500496 0.063590
C50   C     C_1   0.337259 0.337646 0.499775 -0.052354
C51   C     C_1   0.662732 0.662340 0.500202 -0.054395
C52   C     C_1   0.375114 0.375267 0.500013 0.003749
C53   C     C_1   0.624879 0.624728 0.499974 0.000615
C54   C     C_R   0.000059 0.420122 0.920160 0.560714
C55   C     C_3   0.181976 0.460724 0.231970 -0.003651
C56   C     C_R   0.999947 0.579879 0.079846 0.558013
C57   C     C_R   0.919975 0.500184 0.920154 0.560198
C58   C     C_R   0.080023 0.499853 0.079869 0.555595
C59   C     C_R   0.999978 0.920140 0.420070 0.555231
C60   C     C_R   0.000023 0.079861 0.579931 0.555187
C61   C     C_3   0.694139 0.435511 0.693365 -0.105896
C62   C     C_3   0.307365 0.564460 0.305680 -0.067249
C63   C     C_R   0.080022 0.080216 0.500153 0.562609
C64   C     C_R   0.919977 0.919781 0.499844 0.562551
C65   C     C_3   0.001448 0.243339 0.807165 -0.050235
C66   C     C_3   0.767538 0.532831 0.714390 -0.233102
C67   C     C_3   0.001730 0.758243 0.194451 -0.050072
C68   C     C_3   0.059489 0.322191 0.785924 0.047704
C69   C     C_3   0.938794 0.678434 0.211735 0.047918
C70   C     C_3   0.059420 0.269623 0.738649 -0.126933
C71   C     C_3   0.939131 0.731122 0.259162 -0.126826
C72   C     C_1   0.000255 0.124709 0.624606 -0.021634
C73   C     C_1   0.999738 0.875285 0.375398 -0.021541
C74   C     C_3   0.001811 0.293572 0.791514 0.028747
C75   C     C_3   0.998096 0.706419 0.208410 0.029139
C76   C     C_3   0.001497 0.194685 0.758064 -0.124277
C77   C     C_3   0.233496 0.466738 0.284077 -0.241022
C78   C     C_3   0.001644 0.806875 0.243534 -0.124124
C79   C     C_3   0.000445 0.209369 0.707690 0.039842
C80   C     C_3   0.999478 0.790589 0.292284 0.039717
C81   C     C_3   0.947180 0.218835 0.680048 -0.054864
C82   C     C_3   0.050840 0.778878 0.320271 -0.054863
C83   C     C_3   0.942001 0.262423 0.729509 0.019687
C84   C     C_3   0.056299 0.735299 0.271080 0.020555
C85   C     C_3   0.713892 0.534396 0.771367 -0.066449
C86   C     C_3   0.287041 0.465489 0.227007 -0.060328
C87   C     C_1   0.000373 0.162573 0.661963 -0.058072
C88   C     C_1   0.837726 0.501437 0.839183 0.013947
C89   C     C_1   0.999600 0.837408 0.338036 -0.057945
C90   C     C_1   0.000980 0.338749 0.838066 0.010159
C91   C     C_1   0.998990 0.661257 0.161906 0.010423
C92   C     C_1   0.000336 0.375684 0.875599 0.047453
C93   C     C_1   0.999659 0.624320 0.124397 0.046145
C94   C     C_3   0.757570 0.528679 0.819302 -0.066863
C95   C     C_3   0.245772 0.475331 0.181198 -0.056197
C96   C     C_1   0.875305 0.500747 0.876049 0.045401
C97   C     C_1   0.124769 0.499394 0.123967 0.047817
C98   C     C_3   0.707078 0.499802 0.709637 -0.055649
C99   C     C_1   0.162746 0.499062 0.160781 0.032676
C100  C     C_3   0.294092 0.499913 0.289083 -0.054042
C101  C     C_3   0.744087 0.436513 0.742514 -0.096839
C102  C     C_3   0.255884 0.564146 0.258695 -0.082382
C103  C     C_3   0.791472 0.502066 0.793620 0.009565
C104  C     C_3   0.209695 0.498923 0.206146 0.005311
C105  C     C_2   0.722375 0.393820 0.763738 0.536372
C106  C     C_2   0.276850 0.610510 0.241243 0.593307
C107  C     C_3   0.863497 0.603956 0.812476 -0.359056
C108  C     C_3   0.139709 0.394667 0.184005 -0.361204
C109  C     C_2   0.132029 0.173345 0.390391 0.566313
C110  C     C_1   0.661666 0.499899 0.662836 -0.023872
C111  C     C_2   0.868001 0.826543 0.609531 0.566190
C112  C     C_2   0.199939 0.286375 0.577329 0.560735
C113  C     C_2   0.799945 0.713597 0.422530 0.560651
C114  C     C_2   0.632235 0.395611 0.677778 0.578665
C115  C     C_2   0.369077 0.604394 0.319762 0.612273
C116  C     C_2   0.198984 0.133664 0.407052 0.565058
C117  C     C_2   0.801100 0.866300 0.592994 0.564966
C118  C     C_3   0.288073 0.236864 0.601156 -0.400752
C119  C     C_3   0.711891 0.763208 0.398875 -0.400991
C120  C     C_2   0.047017 0.264009 0.869758 0.534938
Cu1   Cu    Cu3+1 0.500000 0.458680 0.458690 1.019333
Cu2   Cu    Cu3+1 0.500000 0.541320 0.541310 1.020776
Cu3   Cu    Cu3+1 0.958690 0.458820 0.000140 1.028840
Cu4   Cu    Cu3+1 0.041310 0.541180 0.999860 1.028581
Cu5   Cu    Cu3+1 0.958680 0.000140 0.458820 1.010200
Cu6   Cu    Cu3+1 0.041320 0.999860 0.541180 1.009896
H1    H     H_    0.696304 0.417070 0.652269 0.125716
H2    H     H_    0.752381 0.655627 0.488008 0.124797
H3    H     H_    0.418518 0.471471 0.255624 0.350502
H4    H     H_    0.854479 0.622525 0.966056 0.369248
H5    H     H_    0.156832 0.391952 0.032229 0.365968
H6    H     H_    0.825071 0.469635 0.701275 0.121452
H7    H     H_    0.876339 0.542702 0.726246 0.140018
H8    H     H_    0.888313 0.513143 0.774600 0.144669
H9    H     H_    0.171073 0.525305 0.294997 0.122296
H10   H     H_    0.109079 0.480357 0.220954 0.140905
H11   H     H_    0.122686 0.450961 0.269215 0.141595
H12   H     H_    0.167612 0.264043 0.488996 0.130979
H13   H     H_    0.832332 0.735875 0.510855 0.130862
H14   H     H_    0.334381 0.240033 0.507129 0.164188
H15   H     H_    0.665657 0.760004 0.492945 0.161709
H16   H     H_    0.355661 0.298311 0.575967 0.145439
H17   H     H_    0.644321 0.701744 0.424067 0.141827
H18   H     H_    0.268466 0.175812 0.517570 0.166200
H19   H     H_    0.731569 0.824233 0.482509 0.165766
H20   H     H_    0.263373 0.229040 0.409406 0.176843
H21   H     H_    0.306883 0.583107 0.347749 0.113696
H22   H     H_    0.736689 0.770911 0.590604 0.176756
H23   H     H_    0.043584 0.194770 0.777140 0.192721
H24   H     H_    0.960546 0.808304 0.223917 0.192932
H25   H     H_    0.094722 0.262653 0.763418 0.132785
H26   H     H_    0.905439 0.739756 0.234359 0.132834
H27   H     H_    0.733612 0.581307 0.782409 0.160222
H28   H     H_    0.264914 0.418146 0.213916 0.142954
H29   H     H_    0.960392 0.222692 0.808026 0.122545
H30   H     H_    0.043806 0.778377 0.195143 0.122472
H31   H     H_    0.958897 0.240944 0.655672 0.147866
H32   H     H_    0.766486 0.419092 0.721225 0.114762
H33   H     H_    0.036843 0.755945 0.343188 0.147916
H34   H     H_    0.731441 0.497123 0.828659 0.207888
H35   H     H_    0.274595 0.510682 0.177221 0.223243
H36   H     H_    0.764481 0.509500 0.671264 0.129262
H37   H     H_    0.236224 0.490533 0.326908 0.127048
H38   H     H_    0.776174 0.577157 0.720540 0.129195
H39   H     H_    0.225058 0.422637 0.278566 0.131027
H40   H     H_    0.672877 0.363776 0.797479 0.356808
H41   H     H_    0.280533 0.630209 0.178347 0.357110
H42   H     H_    0.887728 0.626589 0.794736 0.131833
H43   H     H_    0.233000 0.579373 0.280724 0.091058
H44   H     H_    0.841130 0.628083 0.824780 0.169966
H45   H     H_    0.896525 0.609252 0.852774 0.162493
H46   H     H_    0.115856 0.369843 0.200574 0.133651
H47   H     H_    0.106271 0.389310 0.143933 0.159126
H48   H     H_    0.163583 0.372724 0.171387 0.168088
H49   H     H_    0.079231 0.185530 0.330918 0.354994
H50   H     H_    0.920792 0.814277 0.668920 0.355025
H51   H     H_    0.147036 0.267268 0.611424 0.338812
H52   H     H_    0.852785 0.732719 0.388373 0.339032
H53   H     H_    0.618286 0.309776 0.650744 0.323882
H54   H     H_    0.222792 0.264919 0.414617 0.172357
H55   H     H_    0.424719 0.630441 0.290325 0.355268
H56   H     H_    0.165278 0.047090 0.381271 0.338979
H57   H     H_    0.834853 0.952890 0.618837 0.338879
H58   H     H_    0.300789 0.283423 0.627151 0.192597
H59   H     H_    0.252446 0.208282 0.605187 0.153763
H60   H     H_    0.327135 0.232488 0.621183 0.141623
H61   H     H_    0.747513 0.791789 0.394838 0.153992
H62   H     H_    0.699139 0.716644 0.372839 0.192551
H63   H     H_    0.672844 0.767622 0.378899 0.140060
H64   H     H_    0.113113 0.259231 0.923345 0.362312
H65   H     H_    0.777220 0.734989 0.585308 0.172575
H66   H     H_    0.895205 0.747626 0.078105 0.360881
H67   H     H_    0.063738 0.410004 0.722166 0.349241
H68   H     H_    0.927010 0.587013 0.271488 0.349325
H69   H     H_    0.117373 0.383604 0.882791 0.184314
H70   H     H_    0.128583 0.322256 0.856718 0.154570
H71   H     H_    0.156037 0.379662 0.842420 0.142234
H72   H     H_    0.873314 0.681872 0.141087 0.154640
H73   H     H_    0.882742 0.619377 0.114364 0.184482
H74   H     H_    0.842321 0.623414 0.152876 0.141159
H75   H     H_    0.045364 0.279182 0.659456 0.189805
H76   H     H_    0.295850 0.350229 0.577657 0.181007
H77   H     H_    0.120887 0.325201 0.721143 0.188215
H78   H     H_    0.091675 0.248888 0.676386 0.118703
H79   H     H_    0.948799 0.719035 0.336439 0.189561
H80   H     H_    0.904897 0.751665 0.319633 0.118941
H81   H     H_    0.874138 0.675333 0.273341 0.188172
H82   H     H_    0.879361 0.188651 0.732736 0.124196
H83   H     H_    0.887505 0.258958 0.773047 0.142693
H84   H     H_    0.844553 0.216932 0.694795 0.140099
H85   H     H_    0.122685 0.809348 0.271338 0.124808
H86   H     H_    0.154157 0.778564 0.308423 0.139528
H87   H     H_    0.704065 0.649760 0.422256 0.180075
H88   H     H_    0.113051 0.738519 0.230049 0.139459
H89   H     H_    0.885289 0.285241 0.674366 0.121535
H90   H     H_    0.936162 0.344123 0.748545 0.155605
H91   H     H_    0.958390 0.324698 0.694311 0.171132
H92   H     H_    0.109062 0.709145 0.325614 0.120570
H93   H     H_    0.035083 0.671074 0.303394 0.171776
H94   H     H_    0.059013 0.651930 0.250586 0.153178
H95   H     H_    0.871415 0.130849 0.644210 0.147325
H96   H     H_    0.854457 0.173461 0.611895 0.135386
H97   H     H_    0.893801 0.138902 0.592615 0.145495
H98   H     H_    0.247553 0.344311 0.511860 0.124920
H99   H     H_    0.129086 0.866203 0.359258 0.147392
H100  H     H_    0.103777 0.857276 0.408802 0.145674
H101  H     H_    0.142318 0.821353 0.390086 0.135690
H102  H     H_    0.910279 0.125364 0.723054 0.128447
H103  H     H_    0.954638 0.097941 0.702542 0.160631
H104  H     H_    0.966583 0.124020 0.775910 0.171585
H105  H     H_    0.050475 0.903429 0.301235 0.160166
H106  H     H_    0.094440 0.874721 0.281618 0.128192
H107  H     H_    0.040886 0.878799 0.228777 0.171779
H108  H     H_    0.587935 0.463258 0.772156 0.354958
O1    O     O_R   0.439720 0.404830 0.465110 -0.496723
O2    O     O_R   0.560280 0.525390 0.465110 -0.504478
O3    O     O_R   0.560290 0.465110 0.525390 -0.500573
O4    O     O_R   0.439710 0.534890 0.474610 -0.506489
O5    O     O_R   0.560280 0.534890 0.595170 -0.490618
O6    O     O_R   0.439720 0.465110 0.404830 -0.487063
O7    O     O_R   0.965090 0.404940 0.939860 -0.503694
O8    O     O_R   0.034910 0.595060 0.060140 -0.505422
O9    O     O_R   0.034870 0.474700 0.939830 -0.486547
O10   O     O_R   0.965130 0.525300 0.060170 -0.487782
O11   O     O_R   0.904830 0.465240 0.939850 -0.487903
O12   O     O_R   0.560280 0.595170 0.534890 -0.496950
O13   O     O_R   0.095170 0.534760 0.060150 -0.486318
O14   O     O_R   0.974610 0.535000 0.939830 -0.510741
O15   O     O_R   0.025390 0.465000 0.060170 -0.513977
O16   O     O_R   0.965090 0.939850 0.404950 -0.496871
O17   O     O_R   0.034910 0.060150 0.595050 -0.496964
O18   O     O_2   0.738673 0.357697 0.761009 -0.516185
O19   O     O_R   0.683675 0.394665 0.785374 -0.673199
O20   O     O_2   0.304517 0.662647 0.278829 -0.483977
O21   O     O_R   0.264106 0.594785 0.183264 -0.672948
O22   O     O_2   0.089190 0.134889 0.384735 -0.465018
O23   O     O_R   0.034870 0.939830 0.474700 -0.505647
O24   O     O_R   0.122582 0.200711 0.356821 -0.718098
O25   O     O_2   0.910842 0.864997 0.615187 -0.465227
O26   O     O_R   0.877443 0.799127 0.643049 -0.717864
O27   O     O_2   0.238222 0.331819 0.623796 -0.523760
O28   O     O_R   0.147306 0.251302 0.573001 -0.701209
O29   O     O_2   0.761634 0.668166 0.376063 -0.524365
O30   O     O_R   0.852554 0.748669 0.426820 -0.701230
O31   O     O_2   0.591646 0.360623 0.626662 -0.364368
O32   O     O_R   0.600720 0.334512 0.635398 -0.521584
O33   O     O_2   0.407367 0.640347 0.371126 -0.494701
O34   O     O_R   0.965130 0.060170 0.525300 -0.505563
O35   O     O_R   0.382187 0.601271 0.274791 -0.644623
O36   O     O_2   0.237956 0.134653 0.395409 -0.528762
O37   O     O_R   0.158007 0.080714 0.397710 -0.675585
O38   O     O_2   0.762149 0.865325 0.604670 -0.529513
O39   O     O_R   0.842096 0.919253 0.602359 -0.675682
O40   O     O_2   0.047780 0.297913 0.911906 -0.518628
O41   O     O_R   0.085935 0.242323 0.879847 -0.713312
O42   O     O_2   0.957986 0.706092 0.089868 -0.518657
O43   O     O_R   0.921015 0.763190 0.121586 -0.713318
O44   O     O_2   0.066811 0.416448 0.810613 -0.516006
O45   O     O_R   0.025390 0.060420 0.465240 -0.475586
O46   O     O_R   0.061128 0.373090 0.723053 -0.736088
O47   O     O_2   0.928014 0.582669 0.185062 -0.516298
O48   O     O_R   0.931498 0.624784 0.271642 -0.735997
O49   O     O_2   0.636511 0.552556 0.772185 -0.476493
O50   O     O_R   0.625619 0.467927 0.771926 -0.668862
O51   O     O_2   0.355758 0.492736 0.193695 -0.455676
O52   O     O_R   0.382437 0.463461 0.260288 -0.686048
O53   O     O_2   0.793204 0.629220 0.887311 -0.503066
O54   O     O_R   0.831867 0.583430 0.928105 -0.681617
O55   O     O_2   0.209896 0.376798 0.108074 -0.509251
O56   O     O_R   0.974610 0.939580 0.534760 -0.475674
O57   O     O_R   0.178463 0.429100 0.071858 -0.664776
O58   O     O_R   0.095170 0.060400 0.535000 -0.520594
O59   O     O_R   0.904830 0.939600 0.465000 -0.520632
O60   O     O_R   0.439720 0.474610 0.534890 -0.502282

loop_
_geom_bond_atom_site_label_1
_geom_bond_atom_site_label_2
_ccdc_geom_bond_type
C77   H37   S    
C88   C96   T    
C16   H101  S    
Cu4   O14   S    
C98   C110  S    
C31   C42   S    
C4    O44   D    
C22   C95   S    
C106  O20   D    
C44   C66   S    
C61   C98   S    
C67   H30   S    
C76   C79   S    
C14   C84   S    
C74   C83   S    
C36   C51   S    
Cu5   O59   S    
C88   C103  S    
C6    H70   S    
C1    C52   S    
C118  H60   S    
C18   H107  S    
C3    O42   D    
C46   H16   S    
C107  H45   S    
C77   H39   S    
C19   O50   S    
C67   C78   S    
C29   C36   S    
C16   H100  S    
C65   C76   S    
C1    O60   A    
C77   C100  S    
C30   H12   S    
C37   O3    A    
C46   H14   S    
Cu5   O16   S    
C1    O1    A    
Cu3   O15   S    
C9    H80   S    
C95   H35   S    
C55   C77   S    
C17   H102  S    
C78   C80   S    
C75   C84   S    
H57   O39   S    
C26   H54   S    
C38   O4    A    
C21   C94   S    
C60   C72   S    
C68   C74   S    
C47   H17   S    
C10   C83   S    
C7    H74   S    
H40   O19   S    
C66   H36   S    
C36   C47   S    
C64   O56   A    
C97   C99   T    
C113  O29   D    
C111  O25   D    
C80   C89   S    
C69   C71   S    
C25   H10   S    
C10   H82   S    
C119  H62   S    
Cu3   O10   S    
C5    C69   S    
C85   C98   S    
C11   H85   S    
C43   C118  S    
Cu6   O56   S    
C90   C92   T    
C10   H84   S    
C35   C50   S    
Cu2   O5    S    
C28   C35   S    
C27   H22   S    
Cu1   O1    S    
C57   C96   S    
C108  H48   S    
C60   O17   A    
C50   C52   T    
C17   C76   S    
H3    O52   S    
C64   O59   A    
Cu2   O60   S    
C105  O19   S    
C28   H98   S    
C116  O37   S    
C86   C100  S    
C25   H11   S    
C59   C73   S    
C13   C37   S    
Cu6   O23   S    
C75   C91   S    
H66   O43   S    
Cu2   O12   S    
C45   C119  S    
C102  H43   S    
C6    C68   S    
C40   C117  S    
C56   O10   A    
C2    C100  S    
C101  C103  S    
C101  C105  S    
C32   C48   T    
C14   H94   S    
C43   H18   S    
C58   C97   S    
C27   H65   S    
C60   O34   A    
C57   O14   A    
C116  O36   D    
C79   C87   S    
C6    H69   S    
C21   O54   S    
C44   C103  S    
C115  O33   D    
C40   C111  S    
H55   O35   S    
C45   C47   S    
Cu4   O13   S    
C33   C53   S    
C56   C93   S    
C3    C67   S    
C16   H99   S    
C15   C81   S    
C81   H31   S    
C23   H7    S    
C39   C109  S    
C5    O48   S    
C62   H21   S    
C54   O7    A    
C119  H63   S    
Cu3   Cu4   S    
H41   O21   S    
C105  O18   D    
H4    O54   S    
C9    H81   S    
C114  O31   D    
C79   C81   S    
C17   H103  S    
H50   O26   S    
C85   H27   S    
H49   O24   S    
C117  O39   S    
C26   H20   S    
C55   C104  S    
C65   C74   S    
C12   C83   S    
C20   C86   S    
Cu6   O17   S    
C51   C53   T    
C42   C45   S    
C15   H95   S    
C61   C101  S    
H51   O28   S    
C54   C92   S    
C13   C110  T    
C11   H86   S    
C91   C93   T    
C99   C104  S    
C85   C94   S    
C10   H83   S    
C24   C38   S    
C71   H26   S    
C7    H73   S    
C8    H78   S    
C27   C40   S    
C18   C78   S    
Cu1   O2    S    
C108  H47   S    
C59   O16   A    
C34   C64   S    
C66   H38   S    
C33   O12   A    
C30   C41   S    
C20   O52   S    
Cu4   O9    S    
C102  C104  S    
C22   O57   S    
C21   O53   D    
Cu1   Cu2   S    
C113  O30   S    
C33   O2    A    
C65   C120  S    
Cu5   O45   S    
C62   C100  S    
C57   O11   A    
C58   O15   A    
C94   C103  S    
C39   C116  S    
C82   C84   S    
H64   O41   S    
C108  H46   S    
Cu5   O34   S    
C2    C24   T    
C63   O58   A    
C4    O46   S    
C45   H19   S    
C14   H93   S    
C29   H2    S    
C37   O5    A    
C67   C75   S    
C101  H32   S    
C12   H90   S    
Cu4   O8    S    
C111  O26   S    
Cu3   O7    S    
C117  O38   D    
C95   C104  S    
C78   H24   S    
C120  O41   S    
C4    C68   S    
C72   C87   T    
Cu2   O4    S    
C44   C107  S    
C56   O8    A    
C107  H42   S    
C8    H75   S    
C34   C49   T    
C94   H34   S    
C23   H8    S    
C70   C79   S    
C8    C70   S    
C106  O21   S    
C8    H77   S    
C59   O23   A    
C41   C43   S    
C9    C71   S    
C32   C63   S    
C29   H87   S    
C19   C85   S    
Cu3   O11   S    
C12   H91   S    
C81   C83   S    
C6    H71   S    
C71   C80   S    
C17   H104  S    
C115  O35   S    
H68   O48   S    
C120  O40   D    
C118  H59   S    
C61   H1    S    
C118  H58   S    
C11   C84   S    
Cu1   O6    S    
C19   O49   D    
C47   H15   S    
C109  O22   D    
H108  O50   S    
H5    O57   S    
C55   C108  S    
C18   H105  S    
C27   C36   S    
C28   H76   S    
C54   O9    A    
C66   C98   S    
C15   H96   S    
C114  O32   S    
C7    C69   S    
C86   H28   S    
C73   C89   T    
C58   O13   A    
C29   C31   S    
C9    H79   S    
C25   C55   S    
C41   C48   S    
C82   H33   S    
C5    O47   D    
C22   O55   D    
C11   H88   S    
Cu5   Cu6   S    
C18   H106  S    
C76   H23   S    
H67   O46   S    
Cu1   O3    S    
C74   C90   S    
C112  O27   D    
C40   C42   S    
C80   C82   S    
C28   C30   S    
C23   H6    S    
C69   C75   S    
C20   O51   D    
H56   O37   S    
C15   H97   S    
C26   C39   S    
C43   C46   S    
C119  H61   S    
C3    O43   S    
C86   C95   S    
C23   C44   S    
C42   C49   S    
C38   O6    A    
H53   O32   S    
C26   C35   S    
C62   C115  S    
C39   C41   S    
C25   H9    S    
C65   H29   S    
C16   C82   S    
C102  C106  S    
C30   C112  S    
C61   C114  S    
C109  O24   S    
C68   C70   S    
C14   H92   S    
Cu6   O58   S    
H52   O30   S    
C63   O45   A    
C12   H89   S    
C7    H72   S    
C70   H25   S    
C35   C46   S    
C31   H13   S    
C31   C113  S    
C112  O28   S    
C62   C102  S    
C107  H44   S    
