data_mof_unit_pretest_215.cif
_audit_creation_date              2013-03-05T16:00:26-0500
_audit_creation_method            fapswitch 2.2
_symmetry_space_group_name_H-M    P1
_symmetry_Int_Tables_number       1
_space_group_crystal_system       triclinic
_cell_length_a                    6.923781
_cell_length_b                    28.813846
_cell_length_c                    32.029121
_cell_angle_alpha                 101.178749
_cell_angle_beta                  89.810685
_cell_angle_gamma                 90.460613
_cell_volume                      6268.3879821

loop_
_atom_site_label
_atom_site_type_symbol
_atom_site_description
_atom_site_fract_x
_atom_site_fract_y
_atom_site_fract_z
_atom_type_partial_charge
O1    O     O_R   0.494350 0.453160 0.452490 -0.609808
O2    O     O_R   0.820990 0.455850 0.538220 -0.586753
O3    O     O_R   0.994300 0.546840 0.547510 -0.587885
C1    C     C_R   0.651144 0.444607 0.550856 0.943178
O4    O     O_R   0.823860 0.447580 0.452250 -0.599535
O5    O     O_R   0.997190 0.538510 0.460920 -0.593806
C2    C     C_R   0.654611 0.434756 0.436305 0.953774
O6    O     O_R   0.491450 0.461490 0.539080 -0.590465
O7    O     O_3   0.661790 0.529840 0.502950 -0.233101
V1    V     V_3+5 0.935470 0.494460 0.499450 1.197953
O8    O     O_R   0.327090 0.544150 0.461780 -0.567169
C3    C     C_R   0.158222 0.555576 0.449299 0.973736
O9    O     O_R   0.324210 0.552420 0.547750 -0.565170
C4    C     C_R   0.155457 0.566034 0.563032 1.013403
V2    V     V_3+5 0.435840 0.505540 0.500550 1.230320
O10   O     O_3   0.159650 0.470160 0.497050 -0.281948
C5    C     C_R   0.994390 0.607414 0.629810 -0.103440
H1    H     H_    0.884518 0.579924 0.625300 0.149138
C6    C     C_R   0.983232 0.643640 0.665716 -0.075404
H2    H     H_    0.865010 0.642985 0.687829 0.145898
C7    C     C_R   0.123768 0.679684 0.673638 -0.089220
C8    C     C_R   0.276317 0.679245 0.643867 0.242333
C9    C     C_R   0.287219 0.642567 0.607381 0.231935
C10   C     C_R   0.146198 0.605962 0.600436 -0.328005
N1    N     N_R   0.270127 0.738835 0.732016 -0.032662
N2    N     N_R   0.257222 0.772068 0.767216 -0.061333
C11   C     C_R   0.083012 0.784841 0.785384 0.097491
N3    N     N_R   0.922238 0.762511 0.766837 -0.062784
N4    N     N_R   0.935218 0.729214 0.731611 -0.038234
C12   C     C_R   0.109443 0.716888 0.713175 0.222198
C13   C     C_R   0.889417 0.837156 0.842829 -0.119171
H3    H     H_    0.756963 0.820861 0.829035 0.119171
C14   C     C_R   0.877799 0.873171 0.879190 -0.152028
H4    H     H_    0.736774 0.883521 0.892306 0.127338
C15   C     C_R   0.045933 0.895595 0.898192 -0.133434
C16   C     C_R   0.225766 0.880823 0.879876 -0.149885
H5    H     H_    0.358567 0.897158 0.893454 0.131304
C17   C     C_R   0.237311 0.844932 0.843590 -0.122486
H6    H     H_    0.378556 0.834818 0.830481 0.118042
C18   C     C_R   0.069436 0.822615 0.824440 0.124798
C19   C     C_R   0.169663 0.659334 0.283814 0.472606
N5    N     N_R   0.130636 0.677838 0.325820 -0.177180
C20   C     C_R   0.082566 0.724682 0.338382 0.483819
C21   C     C_R   0.068748 0.754400 0.308368 -0.064364
C22   C     C_R   0.108778 0.735844 0.265280 -0.009427
C23   C     C_R   0.161027 0.688024 0.252827 -0.051419
C24   C     C_R   0.015905 0.802168 0.320433 -0.103927
C25   C     C_R   0.002365 0.831004 0.290129 -0.112577
C26   C     C_R   0.042324 0.812893 0.247003 -0.050302
C27   C     C_R   0.096350 0.765177 0.234573 -0.009094
C28   C     C_R   0.137884 0.746728 0.191509 -0.047849
C29   C     C_R   0.190875 0.698975 0.179465 -0.117121
C30   C     C_R   0.201861 0.669975 0.209711 -0.116192
C31   C     C_R   0.030385 0.841368 0.215938 0.463134
N6    N     N_R   0.071696 0.822995 0.174083 -0.187086
C32   C     C_R   0.124962 0.776578 0.161555 0.461225
O11   O     O_2   0.214153 0.613163 0.271855 -0.549447
O12   O     O_2   0.049690 0.742689 0.379882 -0.518348
H7    H     H_    0.984125 0.817433 0.353338 0.182609
H8    H     H_    0.960745 0.867564 0.300650 0.178386
O13   O     O_2   0.979656 0.887171 0.227581 -0.543611
O14   O     O_2   0.164008 0.759217 0.120212 -0.545163
H9    H     H_    0.223606 0.683785 0.146592 0.175589
H10   H     H_    0.242596 0.633357 0.199162 0.175761
C33   C     C_R   0.229744 0.866699 0.123966 -0.065977
H11   H     H_    0.368890 0.854417 0.132477 0.108582
C34   C     C_R   0.220236 0.896563 0.094350 -0.172950
H12   H     H_    0.353451 0.906516 0.080496 0.134666
C35   C     C_R   0.041234 0.913302 0.082811 -0.136937
C36   C     C_R   0.872083 0.899219 0.101711 -0.171169
H13   H     H_    0.731941 0.911431 0.093754 0.129937
C37   C     C_R   0.882085 0.869556 0.131545 -0.061334
H14   H     H_    0.750499 0.859343 0.145866 0.109757
C38   C     C_R   0.060965 0.853093 0.142912 0.226343
C39   C     C_R   0.973557 0.642132 0.381735 -0.110910
H15   H     H_    0.841669 0.660425 0.377024 0.152977
C40   C     C_R   0.979234 0.614808 0.413491 0.509024
C41   C     C_R   0.149498 0.589246 0.419180 -0.311890
C42   C     C_R   0.313032 0.595046 0.394295 -0.152649
H16   H     H_    0.445724 0.576563 0.397867 0.181216
C43   C     C_R   0.307436 0.624137 0.363995 -0.045607
H17   H     H_    0.436050 0.628247 0.345686 0.135827
C44   C     C_R   0.137144 0.647618 0.357121 0.120744
C45   C     C_R   0.635774 0.223366 0.838372 0.461002
N7    N     N_R   0.581644 0.176824 0.825917 -0.187513
C46   C     C_R   0.536879 0.158470 0.784250 0.464909
C47   C     C_R   0.545442 0.187154 0.753303 -0.052427
C48   C     C_R   0.599833 0.235046 0.765670 -0.009577
C49   C     C_R   0.645501 0.253430 0.808533 -0.046864
C50   C     C_R   0.501268 0.169114 0.710384 -0.108581
C51   C     C_R   0.510903 0.198211 0.680204 -0.110300
C52   C     C_R   0.564017 0.246149 0.692213 -0.058146
C53   C     C_R   0.608333 0.264628 0.735104 -0.010584
C54   C     C_R   0.660933 0.312618 0.747503 -0.051159
C55   C     C_R   0.706027 0.330596 0.790407 -0.118079
C56   C     C_R   0.698837 0.301351 0.820517 -0.116946
C57   C     C_R   0.574245 0.276108 0.662326 0.477922
N8    N     N_R   0.623158 0.323060 0.674848 -0.176401
C58   C     C_R   0.665972 0.341518 0.716661 0.472513
O15   O     O_2   0.678370 0.240651 0.879547 -0.545072
O16   O     O_2   0.485566 0.112509 0.772701 -0.536423
H18   H     H_    0.459233 0.132423 0.699934 0.180649
H19   H     H_    0.475937 0.183012 0.647449 0.179791
O17   O     O_2   0.537341 0.258227 0.620975 -0.539527
O18   O     O_2   0.711067 0.387825 0.728556 -0.552681
H20   H     H_    0.747177 0.367342 0.800890 0.174958
H21   H     H_    0.734675 0.316482 0.853239 0.175474
C59   C     C_R   0.799671 0.376786 0.636057 -0.051974
H22   H     H_    0.929100 0.372700 0.653850 0.136569
C60   C     C_R   0.805115 0.405720 0.605672 -0.180056
H23   H     H_    0.938700 0.424135 0.601552 0.186580
C61   C     C_R   0.640687 0.411369 0.581336 -0.320710
C62   C     C_R   0.469126 0.386008 0.587857 0.500550
C63   C     C_R   0.463801 0.358798 0.619724 -0.119661
H24   H     H_    0.331299 0.340518 0.625034 0.149411
C64   C     C_R   0.628652 0.353349 0.643630 0.126619
C65   C     C_R   0.391623 0.130233 0.868904 -0.061100
H25   H     H_    0.260147 0.140426 0.854957 0.109662
C66   C     C_R   0.380985 0.100587 0.898713 -0.167689
H26   H     H_    0.240353 0.088366 0.907027 0.130800
C67   C     C_R   0.549933 0.086563 0.917155 -0.137411
C68   C     C_R   0.729547 0.103306 0.905162 -0.171944
H27   H     H_    0.862520 0.093360 0.918680 0.134059
C69   C     C_R   0.739714 0.133176 0.875517 -0.061393
H28   H     H_    0.879180 0.145521 0.866614 0.108679
C70   C     C_R   0.570946 0.146714 0.857064 0.225153
C71   C     C_R   0.466363 0.388379 0.374970 -0.198368
H29   H     H_    0.340075 0.409203 0.386036 0.156923
C72   C     C_R   0.451910 0.354743 0.337061 0.542390
C73   C     C_R   0.614092 0.326364 0.321795 -0.080979
C74   C     C_R   0.789459 0.335164 0.344232 -0.120936
H30   H     H_    0.916017 0.314345 0.333484 0.179885
C75   C     C_R   0.803650 0.370177 0.381211 -0.124594
H31   H     H_    0.941236 0.375862 0.397464 0.151727
C76   C     C_R   0.641747 0.396965 0.397291 -0.232851
N9    N     N_R   0.762293 0.273687 0.259612 -0.060246
N10   N     N_R   0.752534 0.238772 0.225541 -0.072682
C77   C     C_R   0.583313 0.215494 0.214176 0.098820
N11   N     N_R   0.425052 0.228303 0.238810 -0.071407
N12   N     N_R   0.435003 0.263081 0.272939 -0.058408
C78   C     C_R   0.603132 0.287012 0.283830 0.129100
C79   C     C_R   0.391368 0.157539 0.160651 -0.126729
H32   H     H_    0.259080 0.170008 0.177027 0.117106
C80   C     C_R   0.379612 0.121715 0.124210 -0.151725
H33   H     H_    0.238828 0.107491 0.113774 0.126780
C81   C     C_R   0.547370 0.104225 0.101837 -0.132018
C82   C     C_R   0.727067 0.123766 0.116831 -0.151398
H34   H     H_    0.859466 0.111306 0.100487 0.131249
C83   C     C_R   0.738668 0.159806 0.153076 -0.129489
H35   H     H_    0.879530 0.173924 0.163556 0.114943
C84   C     C_R   0.571066 0.177124 0.175584 0.122822
O19   O     O_R   0.699050 0.038480 0.960880 -0.593247
O20   O     O_R   0.366680 0.052470 0.047720 -0.595677
O21   O     O_R   0.193410 0.961530 0.039110 -0.594006
C85   C     C_R   0.535868 0.065485 0.063523 0.930210
O22   O     O_R   0.369510 0.044100 0.961740 -0.596579
O23   O     O_R   0.196260 0.953110 0.952520 -0.593447
C86   C     C_R   0.538903 0.054350 0.948294 0.942086
O24   O     O_R   0.696210 0.046900 0.047470 -0.593990
O25   O     O_3   0.528780 0.970170 0.997070 -0.272284
V3    V     V_3+5 0.255080 0.005530 0.000540 1.150267
O26   O     O_R   0.866350 0.947520 0.952280 -0.595960
C87   C     C_R   0.035208 0.934450 0.936479 0.931926
O27   O     O_R   0.863520 0.955880 0.038260 -0.596003
C88   C     C_R   0.031976 0.945605 0.051696 0.939280
V4    V     V_3+5 0.754720 0.994440 0.999470 1.150328
O28   O     O_3   0.030880 0.029830 0.002930 -0.271930
O29   O     O_3   0.817261 0.615074 0.438651 -0.722908
H36   H     H_    0.860308 0.614604 0.468014 0.350141
O30   O     O_3   0.305634 0.385785 0.563410 -0.752425
H37   H     H_    0.346905 0.386025 0.533829 0.323784
N13   N     N_R   0.411094 0.717934 0.648494 0.255773
O31   O     O_R   0.593342 0.711129 0.654793 -0.348660
O32   O     O_R   0.350690 0.760399 0.647710 -0.322585
O33   O     O_3   0.278755 0.351991 0.315565 -0.775159
H38   H     H_    0.305594 0.343307 0.284680 0.322637
N14   N     N_R   0.432011 0.644999 0.575735 0.262527
O34   O     O_R   0.613063 0.639052 0.583899 -0.347100
O35   O     O_R   0.381547 0.649456 0.537619 -0.357957

loop_
_geom_bond_atom_site_label_1
_geom_bond_atom_site_label_2
_geom_bond_distance
_ccdc_geom_bond_type
N6    C32   1.372836 A    
C53   C54   1.407968 A    
C19   N5    1.374460 A    
O21   V3    1.977598 S    
C55   C56   1.398815 A    
C1    O6    1.297691 A    
C57   N8    1.374401 A    
C40   C41   1.425782 A    
C29   C30   1.399216 A    
C40   O29   1.378011 S    
N2    C11   1.359577 A    
N4    C12   1.360446 A    
C54   C58   1.410231 A    
C69   C70   1.402933 A    
N3    N4    1.335122 A    
C6    C7    1.404642 A    
C71   C76   1.406846 A    
C62   C63   1.402642 A    
C65   C66   1.400499 A    
O5    C3    1.297252 A    
C17   H6    1.082598 S    
C30   H10   1.082989 S    
O30   H37   0.989984 S    
V2    O10   2.152762 S    
N8    C58   1.374138 A    
C59   H22   1.082959 S    
C28   C32   1.410655 A    
C4    C10   1.493054 S    
C73   C78   1.494916 S    
C60   H23   1.082988 S    
C50   H18   1.083019 S    
C20   O12   1.349185 S    
C5    C6    1.397629 A    
C13   C18   1.408498 A    
O26   V4    1.981512 S    
N6    C38   1.446238 S    
O8    V2    1.975323 S    
C81   C85   1.492100 S    
C82   H34   1.082823 S    
C59   C60   1.399084 A    
N14   O35   1.301293 A    
C3    C41   1.496554 S    
C19   C23   1.411134 A    
C13   C14   1.404196 A    
O21   C88   1.297257 A    
C36   H13   1.082678 S    
O1    V2    1.978987 S    
O25   V4    1.704266 S    
O20   C85   1.300894 A    
O7    V1    2.151233 S    
O23   C87   1.297500 A    
C7    C12   1.495697 S    
C21   C24   1.406585 A    
C1    C61   1.495479 S    
C7    C8    1.419114 A    
C75   C76   1.404831 A    
C83   C84   1.406992 A    
N7    C70   1.444821 S    
C35   C36   1.409138 A    
C61   C62   1.425544 A    
C43   C44   1.403106 A    
N13   O32   1.301123 A    
C52   C57   1.409072 A    
C25   H8    1.083013 S    
C35   C88   1.491538 S    
C66   C67   1.408983 A    
C58   O18   1.349039 S    
O19   C86   1.297566 A    
C5    C10   1.403774 A    
C79   H32   1.082668 S    
N5    C44   1.450804 S    
C85   O24   1.297167 A    
C28   C29   1.406435 A    
C45   O15   1.349012 S    
C24   C25   1.398492 A    
N12   C78   1.359690 A    
C80   C81   1.407302 A    
C51   C52   1.406383 A    
C42   C43   1.400779 A    
C48   C53   1.418011 A    
C41   C42   1.409933 A    
C80   H33   1.082802 S    
C33   C34   1.400833 A    
N1    N2    1.333435 A    
C22   C23   1.408010 A    
C43   H17   1.082909 S    
C33   C38   1.402764 A    
C34   H12   1.082718 S    
O20   V3    1.976950 S    
C63   C64   1.403199 A    
C34   C35   1.409619 A    
C15   C16   1.408015 A    
C15   C87   1.493708 S    
C79   C84   1.408267 A    
O2    C1    1.301247 A    
C39   H15   1.083484 S    
C71   C72   1.402341 A    
C2    C76   1.492226 S    
N9    C78   1.359822 A    
C55   H20   1.082997 S    
N8    C64   1.449302 S    
C13   H3    1.082603 S    
C11   C18   1.493723 S    
C66   H26   1.082662 S    
C71   H29   1.083587 S    
C5    H1    1.083362 S    
C67   C68   1.409213 A    
C27   C28   1.408285 A    
C45   N7    1.372420 A    
C39   C40   1.402570 A    
N7    C46   1.372287 A    
V3    O28   1.703433 S    
O3    C4    1.298161 A    
C37   C38   1.403883 A    
O29   H36   0.990147 S    
C56   H21   1.083006 S    
O22   V3    1.980413 S    
N14   O34   1.300828 A    
O6    V2    1.974981 S    
C67   C86   1.489758 S    
O9    V2    1.981098 S    
C20   C21   1.409849 A    
C75   H31   1.083046 S    
O9    C4    1.299149 A    
C79   C80   1.402316 A    
C45   C49   1.409924 A    
C68   C69   1.400976 A    
C74   H30   1.082860 S    
O2    V1    1.980631 S    
O23   V3    1.976431 S    
N13   O31   1.300928 A    
C46   C47   1.409096 A    
O4    C2    1.301685 A    
C81   C82   1.408366 A    
C65   C70   1.402900 A    
N1    C12   1.359039 A    
C31   N6    1.372566 A    
O27   C88   1.300578 A    
C82   C83   1.401551 A    
O1    C2    1.296242 A    
C21   C22   1.407515 A    
C51   H19   1.083008 S    
C37   H14   1.082731 S    
C74   C75   1.402202 A    
C29   H9    1.082995 S    
O5    V1    1.977803 S    
O19   V4    1.976284 S    
N11   N12   1.333583 A    
C63   H24   1.083480 S    
C62   O30   1.377807 S    
C31   O13   1.349080 S    
C77   C84   1.492206 S    
O26   C87   1.301579 A    
N10   C77   1.360386 A    
O24   V4    1.979200 S    
O25   V3    2.151125 S    
C59   C64   1.402041 A    
C6    H2    1.083107 S    
O27   V4    1.974939 S    
C73   C74   1.408960 A    
C72   C73   1.422920 A    
C19   O11   1.348975 S    
O4    V1    1.976462 S    
O33   H38   0.989578 S    
V1    O10   1.703296 S    
C65   H25   1.082751 S    
C16   C17   1.400470 A    
C17   C18   1.407301 A    
C39   C44   1.403183 A    
C50   C51   1.398058 A    
V4    O28   2.152758 S    
C22   C27   1.418836 A    
C49   C56   1.406245 A    
C25   C26   1.406077 A    
C23   C30   1.406703 A    
O22   C86   1.299482 A    
C52   C53   1.407631 A    
C14   C15   1.408255 A    
C14   H4    1.082687 S    
C32   O14   1.348984 S    
C33   H11   1.082757 S    
O7    V2    1.704674 S    
C54   C55   1.406557 A    
C60   C61   1.410021 A    
C9    N14   1.434209 S    
C57   O17   1.349217 S    
C77   N11   1.359169 A    
C9    C10   1.417461 A    
C24   H7    1.082998 S    
C42   H16   1.083030 S    
C48   C49   1.408394 A    
C47   C48   1.408425 A    
C16   H5    1.082779 S    
C26   C27   1.408482 A    
N5    C20   1.374850 A    
C47   C50   1.405926 A    
C11   N3    1.360387 A    
O3    V1    1.976553 S    
C8    C9    1.417781 A    
C72   O33   1.378541 S    
C36   C37   1.402307 A    
C68   H27   1.082693 S    
C83   H35   1.082678 S    
C46   O16   1.349148 S    
C8    N13   1.433735 S    
N9    N10   1.334651 A    
C26   C31   1.410031 A    
O8    C3    1.302123 A    
C69   H28   1.082714 S    
