data_mof_unit_pretest_582.cif
_audit_creation_date              2012-12-10T17:23:45-0500
_audit_creation_method            fapswitch 2.2
_symmetry_space_group_name_H-M    P1
_symmetry_Int_Tables_number       1
_space_group_crystal_system       triclinic
_cell_length_a                    9.586313
_cell_length_b                    10.842822
_cell_length_c                    17.245389
_cell_angle_alpha                 94.141582
_cell_angle_beta                  86.119795
_cell_angle_gamma                 90.795425
_cell_volume                      1783.67994746

loop_
_atom_site_label
_atom_site_type_symbol
_atom_type_description
_atom_site_fract_x
_atom_site_fract_y
_atom_site_fract_z
_atom_type_partial_charge
C1    C     C_R   0.500302 0.737984 0.505637 0.857112
C2    C     C_R   0.346780 0.479292 0.777562 -0.137768
C3    C     C_R   0.416330 0.540451 0.147051 -0.200361
C4    C     C_R   0.407730 0.532106 0.227120 -0.169247
C5    C     C_R   0.656063 0.489044 0.222201 -0.223140
C6    C     C_R   0.665031 0.496231 0.141627 0.315682
C7    C     C_R   0.544413 0.522662 0.103900 0.046860
C8    C     C_2   0.467839 0.450129 0.977704 -0.295587
C9    C     C_2   0.548632 0.528512 0.019352 0.293677
C10   C     C_R   0.527563 0.506752 0.265314 -0.084584
C11   C     C_R   0.331420 0.891372 0.630584 0.174568
C12   C     C_R   0.482081 0.489081 0.649040 0.856647
C13   C     C_R   0.219504 0.956006 0.670457 0.306602
C14   C     C_R   0.198941 0.078758 0.657093 -0.213027
C15   C     C_R   0.291360 0.138214 0.606311 -0.244621
C16   C     C_R   0.396132 0.071516 0.559378 0.075016
C17   C     C_R   0.408053 0.942863 0.567175 0.001847
C18   C     C_R   0.502793 0.873127 0.514560 -0.073014
C19   C     C_R   0.597410 0.933145 0.464565 -0.189333
C20   C     C_R   0.595440 0.060132 0.462747 -0.191892
C21   C     C_R   0.494281 0.129639 0.507994 -0.058650
C22   C     C_R   0.866224 0.334325 0.394707 -0.156656
C23   C     C_R   0.498360 0.262781 0.502286 0.750720
C24   C     C_R   0.943765 0.253021 0.343451 -0.197702
C25   C     C_R   0.087597 0.252517 0.343907 -0.180098
C26   C     C_R   0.154813 0.333496 0.395517 -0.145544
C27   C     C_R   0.079958 0.418168 0.448529 0.200729
C28   C     C_R   0.930308 0.418418 0.448345 0.217555
C29   C     C_R   0.921303 0.577758 0.549203 -0.049855
C30   C     C_R   0.069325 0.577775 0.549157 -0.048324
C31   C     C_R   0.518128 0.500880 0.349986 0.788802
C32   C     C_R   0.474581 0.471417 0.732632 -0.029082
C33   C     C_R   0.597455 0.445453 0.768068 -0.169147
C34   C     C_R   0.593973 0.433618 0.847652 -0.059970
C35   C     C_R   0.468198 0.449577 0.893038 0.181668
C36   C     C_R   0.343736 0.468184 0.857735 -0.104236
Cu1   Cu    Cu3+1 0.359340 0.500010 0.500010 0.948069
Cu2   Cu    Cu3+1 0.640660 0.499990 0.499990 0.958627
H1    H     H_    0.696860 0.435567 0.734540 0.163658
H2    H     H_    0.671629 0.881028 0.425273 0.159039
H3    H     H_    0.116994 0.131030 0.690417 0.184193
H4    H     H_    0.278241 0.236511 0.606190 0.190888
H5    H     H_    0.670414 0.104058 0.423419 0.145989
H6    H     H_    0.862070 0.641460 0.589488 0.168640
H7    H     H_    0.756582 0.327109 0.389703 0.191174
H8    H     H_    0.891544 0.189800 0.303123 0.162822
H9    H     H_    0.307407 0.546570 0.259089 0.176139
H10   H     H_    0.147832 0.188889 0.303949 0.162592
H11   H     H_    0.265436 0.325840 0.391357 0.198632
H12   H     H_    0.120805 0.641524 0.589409 0.175607
H13   H     H_    0.749194 0.468078 0.250805 0.180402
H14   H     H_    0.245625 0.478440 0.892516 0.164298
H15   H     H_    0.322844 0.560736 0.118510 0.176220
H16   H     H_    0.250350 0.497141 0.751213 0.174101
H17   H     H_    0.398045 0.385652 0.006908 0.156811
H18   H     H_    0.690042 0.415303 0.874303 0.176259
N1    N     N_R   0.852190 0.498790 0.499250 -0.207436
N2    N     N_R   0.148060 0.498710 0.499220 -0.209319
O1    O     O_R   0.381190 0.680360 0.500010 -0.566414
O2    O     O_R   0.618760 0.680340 0.500000 -0.568452
O3    O     O_R   0.367440 0.500030 0.613600 -0.576868
O4    O     O_R   0.605010 0.500010 0.613590 -0.573535
O5    O     O_R   0.381240 0.319660 0.500000 -0.617972
O6    O     O_R   0.618810 0.319640 0.499990 -0.595739
O7    O     O_R   0.394990 0.499990 0.386410 -0.601186
O8    O     O_R   0.632560 0.499970 0.386400 -0.600939
Br1   Br    Br    0.841772 0.461970 0.085629 -0.477482
Br2   Br    Br    0.413838 0.768399 0.686038 -0.461080
Br3   Br    Br    0.101078 0.884014 0.749685 -0.423187
Br4   Br    Br    0.655863 0.660527 0.974188 -0.380200

loop_
_geom_bond_atom_site_label_1
_geom_bond_atom_site_label_2
_ccdc_geom_bond_type
C31   O8    A    
Cu1   O3    S    
C34   H18   S    
C16   C21   A    
C13   C14   A    
Cu2   N1    S    
C12   O4    A    
C3    C7    A    
Cu1   N2    S    
C36   H14   S    
C24   H8    S    
C32   C33   A    
C22   H7    S    
C19   C20   A    
C23   O5    A    
C17   C18   A    
C30   H12   S    
C5    C10   A    
C29   H6    S    
Cu1   O1    S    
C28   N1    A    
C12   C32   S    
C12   O3    A    
C11   C13   A    
C25   H10   S    
C3    H15   S    
C1    C18   S    
C29   C30   A    
C13   Br3   S    
C27   N2    A    
C14   H3    S    
Cu2   O2    S    
C30   N2    A    
C8    H17   S    
C23   O6    A    
Cu1   O5    S    
Cu1   Cu2   S    
C29   N1    A    
C33   C34   A    
C6    C7    A    
Cu2   O6    S    
C1    O1    A    
C21   C23   S    
C26   C27   A    
C5    C6    A    
C22   C24   A    
C26   H11   S    
C16   C17   A    
C19   H2    S    
C4    C10   A    
C9    Br4   S    
C20   C21   A    
Cu2   O8    S    
C5    H13   S    
C20   H5    S    
C18   C19   A    
C24   C25   A    
C2    C32   A    
C34   C35   A    
C2    H16   S    
C1    O2    A    
C2    C36   A    
C27   C28   A    
C7    C9    S    
C31   O7    A    
C11   Br2   S    
C6    Br1   S    
C22   C28   A    
C35   C36   A    
C25   C26   A    
C14   C15   A    
C4    H9    S    
C10   C31   S    
C33   H1    S    
C11   C17   A    
C3    C4    A    
C15   C16   A    
C15   H4    S    
C8    C9    D    
Cu2   O4    S    
C8    C35   S    
Cu1   O7    S    
