data_mof_unit_pretest_375.cif
_audit_creation_date              2012-12-10T17:02:16-0500
_audit_creation_method            fapswitch 2.2
_symmetry_space_group_name_H-M    P1
_symmetry_Int_Tables_number       1
_space_group_crystal_system       triclinic
_cell_length_a                    10.621465
_cell_length_b                    10.697734
_cell_length_c                    10.040839
_cell_angle_alpha                 89.962114
_cell_angle_beta                  89.897871
_cell_angle_gamma                 90.195454
_cell_volume                      1140.88772395

loop_
_atom_site_label
_atom_site_type_symbol
_atom_type_description
_atom_site_fract_x
_atom_site_fract_y
_atom_site_fract_z
_atom_type_partial_charge
C1    C     C_R   0.491025 0.262785 0.499855 0.899670
C2    C     C_R   0.065189 0.383849 0.550551 0.092807
C3    C     C_R   0.128220 0.490010 0.500026 -0.079810
C4    C     C_R   0.064847 0.591608 0.446159 -0.199065
C5    C     C_R   0.936124 0.591695 0.445892 -0.205071
C6    C     C_R   0.871583 0.490063 0.499236 -0.078929
C7    C     C_2   0.432624 0.928589 0.404141 -0.206968
C8    C     C_2   0.498391 0.869545 0.498330 -0.334178
C9    C     C_2   0.435749 0.063645 0.393598 0.036867
C10   C     C_2   0.465125 0.131560 0.501984 -0.403628
C11   C     C_2   0.571837 0.572526 0.924801 -0.111297
C12   C     C_R   0.260566 0.497407 0.500102 0.855166
C13   C     C_2   0.576123 0.568113 0.074759 -0.117904
C14   C     C_R   0.499779 0.737349 0.499858 0.934437
C15   C     C_R   0.739383 0.497887 0.499831 0.865012
C16   C     C_R   0.129828 0.277527 0.598149 -0.199633
C17   C     C_R   0.063633 0.172979 0.643577 -0.172832
C18   C     C_R   0.932288 0.172311 0.642044 0.072437
C19   C     C_R   0.867209 0.276915 0.595506 -0.218511
C20   C     C_R   0.933297 0.383704 0.549702 0.077022
H1    H     H_    0.115395 0.671706 0.406461 0.147390
H2    H     H_    0.467283 0.089749 0.600387 0.160173
H3    H     H_    0.633484 0.638875 0.875107 0.168247
H4    H     H_    0.447046 0.434416 0.897909 0.170836
H5    H     H_    0.645588 0.626366 0.124093 0.163926
H6    H     H_    0.431721 0.450364 0.102391 0.176001
H7    H     H_    0.231456 0.273502 0.599068 0.148513
H8    H     H_    0.115083 0.092192 0.678834 0.147878
H9    H     H_    0.765377 0.273182 0.593488 0.148368
H10   H     H_    0.886490 0.671907 0.406148 0.148323
H11   H     H_    0.381063 0.876075 0.328949 0.168244
H12   H     H_    0.554737 0.916206 0.573287 0.158556
N1    N     N_2   0.501340 0.501330 0.852150 -0.190075
N2    N     N_2   0.501380 0.501360 0.147810 -0.189144
O1    O     O_R   0.499980 0.319060 0.613040 -0.624878
O2    O     O_R   0.500020 0.319100 0.386900 -0.592877
O3    O     O_R   0.316750 0.499980 0.613090 -0.613421
O4    O     O_R   0.316790 0.500020 0.386950 -0.613699
O5    O     O_R   0.499980 0.680900 0.613100 -0.607051
O6    O     O_R   0.500020 0.680940 0.386960 -0.611743
O7    O     O_R   0.683210 0.499980 0.613050 -0.611086
O8    O     O_R   0.683250 0.500020 0.386910 -0.608904
Zn1   Zn    Zn3+2 0.499970 0.499970 0.650990 0.952870
Zn2   Zn    Zn3+2 0.500030 0.500030 0.349010 0.959574
C21   C     C_1   0.863925 0.063494 0.686565 0.141679
N3    N     N_1   0.808899 0.976065 0.722193 -0.218900
C22   C     C_1   0.407558 0.117115 0.264427 0.236240
N4    N     N_1   0.384896 0.159525 0.161164 -0.220633

loop_
_geom_bond_atom_site_label_1
_geom_bond_atom_site_label_2
_ccdc_geom_bond_type
O3    Zn1   S    
C22   N4    T    
O5    Zn1   S    
O4    Zn2   S    
C11   N1    D    
C2    C16   A    
C11   C13   S    
C9    C10   D    
C15   O8    A    
H4    N1    S    
O6    Zn2   S    
O1    Zn1   S    
C16   H7    S    
C17   C18   A    
C14   O5    A    
C7    C8    D    
C21   N3    T    
C10   H2    S    
C4    H1    S    
O7    Zn1   S    
C13   H5    S    
O8    Zn2   S    
C6    C20   A    
C4    C5    A    
C11   H3    S    
C9    C22   S    
C2    C3    A    
C12   O4    A    
C5    C6    A    
O2    Zn2   S    
C7    H11   S    
C14   O6    A    
C3    C4    A    
C19   H9    S    
C18   C21   S    
C13   N2    D    
N2    Zn2   S    
C15   O7    A    
C5    H10   S    
C12   O3    A    
C7    C9    S    
C1    O1    A    
C18   C19   A    
C8    C14   S    
C3    C12   S    
C6    C15   S    
N1    Zn1   S    
C17   H8    S    
C2    C20   A    
H6    N2    S    
C1    C10   S    
C19   C20   A    
C1    O2    A    
C16   C17   A    
C8    H12   S    
