data_mof_unit_pretest_403.cif
_audit_creation_date              2013-03-05T16:25:56-0500
_audit_creation_method            fapswitch 2.2
_symmetry_space_group_name_H-M    P1
_symmetry_Int_Tables_number       1
_space_group_crystal_system       triclinic
_cell_length_a                    18.305003
_cell_length_b                    18.342316
_cell_length_c                    18.369503
_cell_angle_alpha                 119.96593
_cell_angle_beta                  89.873374
_cell_angle_gamma                 120.072948
_cell_volume                      4363.43968873

loop_
_atom_site_label
_atom_site_type_symbol
_atom_site_description
_atom_site_fract_x
_atom_site_fract_y
_atom_site_fract_z
_atom_type_partial_charge
Zn1   Zn    Zn3+2 0.956630 0.413250 0.869870 0.994634
Zn2   Zn    Zn3+2 0.130130 0.586750 0.043370 0.984412
Zn3   Zn    Zn3+2 0.956630 0.413250 0.043380 1.052109
Zn4   Zn    Zn3+2 0.956610 0.586750 0.043370 0.988914
O1    O     O_3   0.000000 0.500000 0.000000 -0.503982
O2    O     O_R   0.055050 0.731580 0.115780 -0.607049
O3    O     O_R   0.884220 0.268410 0.823490 -0.649209
O4    O     O_R   0.176520 0.560720 0.944920 -0.648802
O5    O     O_R   0.884200 0.439290 0.115800 -0.576898
O6    O     O_R   0.176530 0.560720 0.115800 -0.649596
O7    O     O_R   0.884180 0.560710 0.944910 -0.656590
O8    O     O_R   0.055100 0.439290 0.115810 -0.652516
O9    O     O_R   0.884190 0.439280 0.823480 -0.628911
O10   O     O_R   0.055090 0.439280 0.823480 -0.655135
O11   O     O_R   0.884180 0.560710 0.115790 -0.673265
O12   O     O_R   0.176500 0.731590 0.115790 -0.631073
O13   O     O_R   0.884220 0.268420 0.944930 -0.612143
C1    C     C_R   0.140022 0.780036 0.141098 0.833647
C2    C     C_R   0.858454 0.220150 0.860208 0.913585
C3    C     C_R   0.140129 0.502018 0.860201 0.813015
C4    C     C_R   0.861231 0.501119 0.141199 0.771517
C5    C     C_R   0.139861 0.498190 0.138267 0.887029
C6    C     C_R   0.852809 0.493088 0.860313 0.816242
C7    C     C_R   0.755869 0.598479 0.928583 0.137724
C8    C     C_R   0.759106 0.689046 0.968454 0.017406
C9    C     C_R   0.769725 0.735019 0.922996 0.012098
C10   C     C_R   0.761965 0.680351 0.831850 0.123121
C11   C     C_R   0.743030 0.580119 0.788347 0.001601
C12   C     C_R   0.761445 0.552839 0.841392 0.014789
C13   C     C_R   0.783226 0.480410 0.804300 -0.126208
C14   C     C_R   0.751979 0.408693 0.710826 -0.078502
C15   C     C_R   0.715853 0.422965 0.655664 -0.104921
C16   C     C_R   0.706936 0.506374 0.694530 -0.158105
C17   C     C_R   0.789614 0.053494 0.715427 0.008434
C18   C     C_R   0.795669 0.108662 0.804253 -0.023032
C19   C     C_R   0.736219 0.054160 0.835735 0.039004
C20   C     C_R   0.681688 0.944867 0.781066 0.071246
C21   C     C_R   0.687029 0.891469 0.695280 -0.046394
C22   C     C_R   0.736061 0.947740 0.662006 -0.066803
C23   C     C_3   0.797655 0.941231 0.608493 -0.008576
C24   C     C_3   0.857317 0.061239 0.667355 0.005717
C25   C     C_R   0.752142 0.419660 0.200214 0.056736
C26   C     C_R   0.814165 0.508574 0.205546 -0.197043
C27   C     C_R   0.833537 0.604475 0.277726 -0.083179
C28   C     C_R   0.781617 0.605328 0.335969 -0.064850
C29   C     C_R   0.706169 0.509939 0.314852 -0.186720
C30   C     C_R   0.698857 0.420707 0.252358 0.082164
C31   C     C_3   0.621589 0.311564 0.184085 0.086097
C32   C     C_3   0.682575 0.308347 0.124646 -0.138099
C33   C     C_R   0.162238 0.947428 0.210969 0.010601
C34   C     C_R   0.195334 0.891446 0.204659 -0.120784
C35   C     C_R   0.279991 0.944399 0.265302 0.063860
C36   C     C_R   0.334853 0.054061 0.322243 -0.121996
C37   C     C_R   0.303814 0.108459 0.315495 -0.187757
C38   C     C_R   0.215165 0.052955 0.264945 0.093418
C39   C     C_3   0.169445 0.060905 0.204066 0.101355
C40   C     C_3   0.108047 0.940695 0.143142 -0.138178
C41   C     C_R   0.279036 0.579103 0.248771 -0.005410
C42   C     C_R   0.195113 0.491447 0.187706 -0.121337
C43   C     C_R   0.168180 0.396802 0.174815 -0.085823
C44   C     C_R   0.223288 0.397664 0.230486 0.071152
C45   C     C_R   0.304594 0.491551 0.296584 -0.084422
C46   C     C_R   0.331308 0.578343 0.299741 -0.058637
C47   C     C_3   0.397335 0.692750 0.358635 0.003218
C48   C     C_3   0.337229 0.694986 0.299867 -0.130445
C49   C     C_R   0.283145 0.541827 0.835614 0.022242
C50   C     C_R   0.196756 0.511827 0.805347 -0.162966
C51   C     C_R   0.168498 0.495547 0.723243 -0.067917
C52   C     C_R   0.223235 0.493225 0.667918 0.059284
C53   C     C_R   0.304191 0.507472 0.695562 -0.021644
C54   C     C_R   0.334266 0.536991 0.781349 -0.098197
C55   C     C_3   0.382741 0.513403 0.823003 -0.078033
C56   C     C_3   0.324594 0.519155 0.885105 0.133996
Zn5   Zn    Zn3+2 0.543330 0.586660 0.630080 0.970778
Zn6   Zn    Zn3+2 0.543320 0.586660 0.456570 0.989115
Zn7   Zn    Zn3+2 0.369830 0.413160 0.456580 1.033642
Zn8   Zn    Zn3+2 0.543350 0.413170 0.456590 0.996155
O14   O     O_3   0.499960 0.499910 0.499960 -0.503823
O15   O     O_R   0.615770 0.439200 0.384160 -0.612616
O16   O     O_R   0.444870 0.560630 0.676470 -0.669280
O17   O     O_R   0.615730 0.731500 0.555020 -0.647910
O18   O     O_R   0.323450 0.268330 0.384170 -0.598264
O19   O     O_R   0.444860 0.560620 0.384150 -0.618625
O20   O     O_R   0.615780 0.439200 0.555040 -0.656542
O21   O     O_R   0.323420 0.439190 0.384160 -0.620226
O22   O     O_R   0.615760 0.560630 0.676470 -0.646550
O23   O     O_R   0.615740 0.731500 0.676460 -0.637749
O24   O     O_R   0.444900 0.268330 0.384170 -0.647606
O25   O     O_R   0.615750 0.560630 0.384150 -0.666962
O26   O     O_R   0.323430 0.439200 0.555040 -0.611936
C57   C     C_R   0.642216 0.502303 0.362362 0.816461
C58   C     C_R   0.359848 0.500747 0.639721 0.895109
C59   C     C_R   0.638876 0.779918 0.639882 0.855037
C60   C     C_R   0.359958 0.219888 0.361891 0.835870
C61   C     C_R   0.360020 0.498338 0.358673 0.841634
C62   C     C_R   0.644723 0.503697 0.639762 0.791210
C63   C     C_2   0.753096 0.315816 0.669840 0.562494
H1    H     H_    0.774025 0.291714 0.611750 0.080976
O27   O     O_2   0.727842 0.263818 0.699391 -0.551075
C64   C     C_2   0.753290 0.888746 0.511371 0.490580
H2    H     H_    0.681393 0.847106 0.484287 0.094531
O28   O     O_2   0.797968 0.892267 0.462229 -0.511840
C65   C     C_2   0.951456 0.111440 0.721288 0.400816
H3    H     H_    0.002208 0.119192 0.689303 0.106488
O29   O     O_2   0.971348 0.141916 0.799153 -0.571263
N1    N     N_3   0.858299 0.105948 0.619224 -0.414896
H4    H     H_    0.793459 0.081143 0.592369 0.213151
H5    H     H_    0.895320 0.186040 0.664457 0.224401
C66   C     C_2   0.906085 0.701957 0.290640 0.600320
H6    H     H_    0.967376 0.711790 0.278466 0.054913
O30   O     O_2   0.896785 0.770681 0.312155 -0.479741
C67   C     C_2   0.810985 0.703064 0.422161 0.502694
H7    H     H_    0.763371 0.713187 0.452793 0.089442
O31   O     O_2   0.890389 0.772310 0.462705 -0.546353
N2    N     N_3   0.598555 0.246296 0.216148 -0.384390
H8    H     H_    0.558953 0.169183 0.161317 0.179337
H9    H     H_    0.656254 0.260406 0.247568 0.203051
N3    N     N_3   0.543060 0.304104 0.152039 -0.422895
H10   H     H_    0.561684 0.357673 0.136922 0.181825
H11   H     H_    0.499007 0.230529 0.093391 0.221883
C68   C     C_2   0.710802 0.238427 0.109058 0.447437
H12   H     H_    0.660763 0.155770 0.069992 0.055800
O32   O     O_2   0.788641 0.272965 0.139823 -0.537557
C69   C     C_2   0.650850 0.293840 0.039487 0.340965
H13   H     H_    0.675757 0.359742 0.036838 0.072175
O33   O     O_2   0.594643 0.207725 0.973262 -0.577174
N4    N     N_3   0.308270 0.886107 0.269536 -0.387640
H14   H     H_    0.364005 0.900499 0.248472 0.270085
H15   H     H_    0.325272 0.909389 0.335277 0.214699
N5    N     N_3   0.732129 0.546153 0.971698 -0.443061
H16   H     H_    0.785764 0.588676 0.028767 0.237096
H17   H     H_    0.716391 0.471879 0.929884 0.192200
C70   C     C_2   0.421595 0.111005 0.390289 0.500123
H18   H     H_    0.443715 0.181584 0.454245 0.090565
O34   O     O_2   0.469929 0.081262 0.375528 -0.507593
N6    N     N_3   0.125381 0.111432 0.247531 -0.387988
H19   H     H_    0.078906 0.094233 0.198203 0.174477
H20   H     H_    0.090428 0.082956 0.282556 0.210616
N7    N     N_3   0.229874 0.110949 0.166409 -0.420773
H21   H     H_    0.267665 0.081388 0.143726 0.172919
H22   H     H_    0.191096 0.094380 0.111547 0.221924
C71   C     C_2   0.010670 0.891820 0.137440 0.462258
H23   H     H_    0.967830 0.894062 0.099036 0.065521
O35   O     O_2   0.979256 0.850048 0.175349 -0.537669
C72   C     C_2   0.118124 0.891278 0.052397 0.337367
H24   H     H_    0.166991 0.873246 0.042817 0.059111
O36   O     O_2   0.073507 0.874329 0.989452 -0.561141
C73   C     C_2   0.084125 0.297525 0.104418 0.406646
H25   H     H_    0.020526 0.287812 0.101801 0.130822
O37   O     O_2   0.085389 0.225091 0.048397 -0.540250
N8    N     N_3   0.196779 0.304674 0.221479 -0.404263
H26   H     H_    0.132852 0.271081 0.226613 0.202470
H27   H     H_    0.194841 0.253864 0.158808 0.232699
C74   C     C_2   0.399383 0.736442 0.454266 0.431396
H28   H     H_    0.337230 0.711343 0.469073 0.055638
O38   O     O_2   0.470292 0.799315 0.515545 -0.552292
N9    N     N_3   0.486436 0.724152 0.350160 -0.371825
H29   H     H_    0.481763 0.684099 0.283183 0.194814
H30   H     H_    0.524759 0.802695 0.376607 0.245458
C75   C     C_2   0.291682 0.745395 0.348383 0.398469
H31   H     H_    0.332314 0.826537 0.402986 0.096342
O39   O     O_2   0.210299 0.696940 0.327441 -0.579256
N10   N     N_3   0.751589 0.734898 0.055650 -0.458715
H32   H     H_    0.690232 0.681084 0.053831 0.253921
H33   H     H_    0.802676 0.752081 0.100087 0.233688
C76   C     C_2   0.379343 0.730870 0.243371 0.385574
H34   H     H_    0.357240 0.676492 0.171795 0.095933
O40   O     O_2   0.439219 0.821450 0.277792 -0.565345
C77   C     C_2   0.085243 0.486099 0.698368 0.431823
H35   H     H_    0.064253 0.526500 0.749973 0.065884
O41   O     O_2   0.038379 0.432232 0.620888 -0.577836
N11   N     N_3   0.199238 0.479513 0.585471 -0.424815
H36   H     H_    0.189027 0.535215 0.597544 0.206299
H37   H     H_    0.140467 0.405945 0.541360 0.259077
C78   C     C_2   0.366176 0.408640 0.762654 0.388759
H38   H     H_    0.394362 0.384542 0.790459 0.108946
O42   O     O_2   0.321235 0.350123 0.683905 -0.582995
C79   C     C_2   0.481574 0.598750 0.867934 0.392941
H39   H     H_    0.511660 0.660062 0.858227 0.101291
O43   O     O_2   0.528715 0.599771 0.915871 -0.572950
N12   N     N_3   0.259504 0.422186 0.874837 -0.434033
H40   H     H_    0.294652 0.401004 0.894795 0.202622
H41   H     H_    0.219546 0.363232 0.808069 0.206170
N13   N     N_3   0.375100 0.605297 0.979344 -0.399297
H42   H     H_    0.408230 0.675561 0.986402 0.185100
H43   H     H_    0.329606 0.604483 0.013902 0.218908
C80   C     C_2   0.787582 0.839261 0.972335 0.452328
H44   H     H_    0.802451 0.883247 0.043954 0.089552
O44   O     O_2   0.785537 0.877606 0.934626 -0.572454
N14   N     N_3   0.788503 0.733648 0.789510 -0.382505
H45   H     H_    0.800429 0.694883 0.731295 0.160983
H46   H     H_    0.737890 0.739506 0.773446 0.256340
C81   C     C_2   0.692203 0.353296 0.557535 0.427163
H47   H     H_    0.718359 0.385728 0.520083 0.093425
O45   O     O_2   0.642075 0.259848 0.517881 -0.517242
N15   N     N_3   0.731673 0.109563 0.922666 -0.409078
H48   H     H_    0.747829 0.088814 0.960461 0.214393
H49   H     H_    0.666188 0.088557 0.916028 0.202730
N16   N     N_3   0.621922 0.888400 0.812481 -0.423115
H50   H     H_    0.576777 0.908297 0.827178 0.181154
H51   H     H_    0.659072 0.908694 0.870557 0.220713
N17   N     N_3   0.837320 0.893790 0.620573 -0.462531
H52   H     H_    0.895126 0.915310 0.602761 0.250746
H53   H     H_    0.856938 0.921601 0.687587 0.214246

loop_
_geom_bond_atom_site_label_1
_geom_bond_atom_site_label_2
_geom_bond_distance
_ccdc_geom_bond_type
C38   C39   1.503885 S    
C23   C24   1.557410 S    
N14   H45   1.044871 S    
O18   C60   1.278363 A    
C40   C72   1.513641 S    
N7    H22   1.045401 S    
C77   H35   1.085086 S    
C3    C50   1.453174 S    
N10   H32   1.045469 S    
C55   C79   1.510745 S    
C26   C27   1.423042 A    
Zn6   O19   1.938893 S    
C67   O31   1.220726 D    
C72   H24   1.085445 S    
C28   C67   1.487300 S    
C78   O42   1.220913 D    
Zn8   O14   1.947895 S    
O6    C5    1.279228 A    
C9    C10   1.417777 A    
O4    C3    1.279385 A    
N17   H53   1.046719 S    
C40   C71   1.515738 S    
Zn1   O1    1.954214 S    
C11   C12   1.403943 A    
N10   H33   1.044591 S    
Zn7   O14   1.945266 S    
C66   O30   1.221187 D    
C21   C22   1.394221 A    
C80   O44   1.220285 D    
C79   H39   1.085823 S    
N1    H4    1.047029 S    
N2    H8    1.045492 S    
C47   C74   1.514404 S    
C56   N12   1.469941 S    
C39   C40   1.560198 S    
O9    C6    1.288880 A    
C17   C18   1.391990 A    
O20   C62   1.280066 A    
C55   C78   1.517540 S    
N3    H10   1.046526 S    
Zn3   O8    1.939145 S    
Zn7   O21   1.940470 S    
C72   O36   1.221161 D    
C4    C26   1.452658 S    
N9    H29   1.046561 S    
C18   C19   1.415098 A    
Zn8   O24   1.938345 S    
C51   C52   1.426049 A    
N2    H9    1.046489 S    
C47   N9    1.470741 S    
N8    H26   1.045382 S    
C53   C54   1.390093 A    
C10   N14   1.441701 S    
Zn5   O23   1.937918 S    
O25   C57   1.276841 A    
C12   C13   1.418998 A    
Zn2   O12   1.939758 S    
C6    C13   1.484945 S    
C74   O38   1.221198 D    
C55   C56   1.559603 S    
C27   C66   1.488246 S    
Zn8   O15   1.935980 S    
C49   C50   1.392393 A    
C32   C68   1.513412 S    
C42   C43   1.430013 A    
N9    H30   1.045512 S    
Zn5   O16   1.933832 S    
C45   C61   1.443050 S    
N8    H27   1.044225 S    
C76   O40   1.220705 D    
C77   O41   1.220220 D    
C44   C45   1.416139 A    
C17   C24   1.509917 S    
C19   N15   1.432730 S    
C48   C75   1.513420 S    
Zn6   O14   1.948230 S    
C67   H7    1.079994 S    
C63   O27   1.221580 D    
C35   N4    1.433588 S    
N11   H37   1.044741 S    
C1    C34   1.453427 S    
C63   H1    1.085147 S    
N12   H41   1.046411 S    
O2    C1    1.276842 A    
O24   C60   1.276534 A    
C37   C60   1.455521 S    
C24   N1    1.471045 S    
C46   C47   1.493598 S    
C34   C35   1.415636 A    
C30   C31   1.497687 S    
O10   C3    1.279188 A    
C36   C70   1.488955 S    
C7    C8    1.409145 A    
Zn4   O2    1.938198 S    
N17   H52   1.044714 S    
Zn7   O18   1.939565 S    
C5    C42   1.450733 S    
C39   N7    1.469017 S    
C15   C81   1.489160 S    
C31   N3    1.468920 S    
C29   C57   1.450862 S    
Zn8   O20   1.941647 S    
C81   O45   1.220645 D    
C41   C42   1.390627 A    
N12   H40   1.045551 S    
C32   C69   1.512758 S    
C48   C76   1.508256 S    
C17   C22   1.372445 A    
C43   C44   1.426903 A    
C52   N11   1.435837 S    
C75   O39   1.221143 D    
O16   C58   1.278680 A    
N5    H17   1.044650 S    
C50   C51   1.424840 A    
N4    H15   1.044444 S    
C20   C21   1.416185 A    
Zn3   O5    1.935931 S    
C7    N5    1.441220 S    
O17   C59   1.281067 A    
C51   C77   1.490176 S    
C41   C48   1.508615 S    
O26   C58   1.278536 A    
C49   C54   1.366727 A    
O11   C4    1.279720 A    
C13   C14   1.414146 A    
O19   C61   1.275522 A    
C45   C46   1.380051 A    
C64   O28   1.220637 D    
C33   C34   1.392523 A    
C68   H12   1.084826 S    
C65   O29   1.220868 D    
C29   C30   1.385210 A    
Zn5   O22   1.938510 S    
Zn4   O7    1.941692 S    
C44   N8    1.435632 S    
N16   H51   1.044967 S    
C74   H28   1.085860 S    
O22   C62   1.294659 A    
C31   N2    1.468108 S    
N6    H20   1.046462 S    
C31   C32   1.561458 S    
C23   N17   1.469841 S    
C11   C16   1.420158 A    
C39   N6    1.467704 S    
O3    C2    1.279686 A    
C70   H18   1.085137 S    
O8    C5    1.273721 A    
C71   O35   1.221596 D    
C28   C29   1.421880 A    
Zn2   O1    1.945264 S    
Zn1   O9    1.938658 S    
C25   C26   1.394127 A    
N4    H14   1.044339 S    
Zn2   O6    1.940518 S    
C16   C62   1.486984 S    
C22   C23   1.504836 S    
C35   C36   1.423711 A    
C9    C80   1.492639 S    
C69   O33   1.220943 D    
C41   C46   1.350094 A    
C56   N13   1.469250 S    
C37   C38   1.392301 A    
C19   C20   1.418282 A    
N14   H46   1.043838 S    
Zn1   O3    1.937918 S    
C33   C40   1.510149 S    
O15   C57   1.278651 A    
C14   C15   1.405008 A    
C53   C58   1.449240 S    
C27   C28   1.428934 A    
C73   O37   1.220492 D    
N15   H48   1.044981 S    
Zn3   O1    1.948081 S    
C23   C64   1.508757 S    
C79   O43   1.221102 D    
N7    H21   1.046469 S    
C36   C37   1.423304 A    
Zn6   O17   1.940964 S    
C33   C38   1.369657 A    
C49   C56   1.507334 S    
C20   N16   1.435724 S    
C47   C48   1.572364 S    
Zn4   O11   1.935978 S    
N5    H16   1.044761 S    
C8    C9    1.408754 A    
C80   H44   1.084886 S    
C78   H38   1.085226 S    
C2    C18   1.452315 S    
C66   H6    1.085184 S    
C15   C16   1.426741 A    
O21   C61   1.273838 A    
O5    C4    1.276338 A    
C76   H34   1.084023 S    
N1    H5    1.045555 S    
C8    N10   1.435664 S    
Zn4   O1    1.948045 S    
O23   C59   1.279632 A    
C21   C59   1.454474 S    
O7    C6    1.283645 A    
C64   H2    1.085744 S    
O13   C2    1.279316 A    
N13   H43   1.044692 S    
Zn3   O13   1.940863 S    
N16   H50   1.044901 S    
C25   C30   1.365826 A    
C14   C63   1.490969 S    
C52   C53   1.415926 A    
C75   H31   1.084883 S    
N3    H11   1.045440 S    
C68   O32   1.221549 D    
N15   H49   1.044539 S    
Zn6   O25   1.935884 S    
C25   C32   1.512622 S    
N11   H36   1.045390 S    
C24   C65   1.518174 S    
C7    C12   1.421967 A    
C54   C55   1.509461 S    
O12   C1    1.277596 A    
C81   H47   1.085519 S    
Zn5   O14   1.954063 S    
Zn2   O4    1.938196 S    
C65   H3    1.084971 S    
C70   O34   1.220180 D    
C71   H23   1.085384 S    
N6    H19   1.045558 S    
N13   H42   1.046774 S    
Zn1   O10   1.933831 S    
C43   C73   1.484593 S    
C73   H25   1.083134 S    
Zn7   O26   1.938451 S    
C69   H13   1.085248 S    
C10   C11   1.426086 A    
