data_mof_unit_pretest_771.cif
_audit_creation_date              2012-10-26T19:45:10-0400
_audit_creation_method            fapswitch 2.2
_symmetry_space_group_name_H-M    P1
_symmetry_Int_Tables_number       1
_space_group_crystal_system       triclinic
_cell_length_a                    9.615271
_cell_length_b                    10.828007
_cell_length_c                    13.842121
_cell_angle_alpha                 92.758436
_cell_angle_beta                  83.403161
_cell_angle_gamma                 90.793101
_cell_volume                      1429.91088542

loop_
_atom_site_label
_atom_site_type_symbol
_atom_type_description
_atom_site_fract_x
_atom_site_fract_y
_atom_site_fract_z
_atom_type_partial_charge
C1    C     C_R   0.500684 0.737605 0.503465 0.585000
C2    C     C_R   0.939104 0.425956 0.433278 0.335699
C3    C     C_1   0.540100 0.500798 0.213144 0.061934
C4    C     C_1   0.459900 0.500492 0.786877 0.069334
C5    C     C_2   0.558461 0.500339 0.021664 -0.096265
C6    C     C_2   0.441449 0.501611 0.978368 -0.094406
C7    C     C_1   0.449706 0.501053 0.874221 0.012030
C8    C     C_1   0.550237 0.500603 0.125806 0.001182
C9    C     C_R   0.587122 0.945290 0.561699 0.248820
C10   C     C_R   0.414171 0.054394 0.438738 0.236136
C11   C     C_R   0.584790 0.072866 0.555802 -0.104766
C12   C     C_R   0.499461 0.262331 0.496827 0.578813
C13   C     C_R   0.416198 0.926951 0.444701 -0.122408
C14   C     C_R   0.498493 0.128166 0.495988 -0.040516
C15   C     C_R   0.502344 0.871650 0.504499 -0.030552
C16   C     C_R   0.475937 0.499926 0.683064 0.571618
C17   C     C_R   0.524039 0.500861 0.316956 0.578581
C18   C     C_R   0.912869 0.568958 0.567209 0.044154
C19   C     C_R   0.086997 0.435049 0.430286 0.032487
C20   C     C_R   0.059426 0.566929 0.571122 0.350524
Cu1   Cu    Cu3+1 0.359340 0.499980 0.500000 1.122438
Cu2   Cu    Cu3+1 0.640660 0.500020 0.500000 1.112361
H1    H     H_    0.844664 0.618987 0.622367 0.222920
H2    H     H_    0.193477 0.044721 0.240869 0.399517
H3    H     H_    0.154313 0.381856 0.376544 0.218442
H4    H     H_    0.339098 0.502932 0.020839 0.163308
H5    H     H_    0.660803 0.498984 0.979177 0.166142
H6    H     H_    0.649102 0.130226 0.599579 0.203916
H7    H     H_    0.351404 0.869684 0.401212 0.192814
H8    H     H_    0.277809 0.748772 0.733031 0.367323
H9    H     H_    0.713944 0.212435 0.294674 0.368237
H10   H     H_    0.795908 0.955182 0.766139 0.397066
N1    N     N_R   0.147930 0.499970 0.499980 -0.289605
N2    N     N_R   0.852070 0.500030 0.500020 -0.296262
O1    O     O_R   0.381260 0.680340 0.500000 -0.465816
O2    O     O_2   0.129089 0.539992 0.750354 -0.284186
O3    O     O_3   0.255057 0.727133 0.666253 -0.478401
O4    O     O_2   0.998483 0.252854 0.288578 -0.269192
O5    O     O_2   0.864694 0.188678 0.437990 -0.241490
O6    O     O_3   0.738066 0.299066 0.312843 -0.488594
O7    O     O_2   0.627483 0.774885 0.691221 -0.292781
O8    O     O_2   0.831940 0.847658 0.584880 -0.241636
O9    O     O_3   0.727787 0.993418 0.728340 -0.504248
O10   O     O_2   0.171229 0.155464 0.421077 -0.213915
O11   O     O_2   0.371745 0.223238 0.308766 -0.291865
O12   O     O_R   0.618740 0.319660 0.500000 -0.458053
O13   O     O_3   0.263878 0.006086 0.276515 -0.510158
O14   O     O_R   0.618830 0.680370 0.500010 -0.466264
O15   O     O_R   0.381170 0.319630 0.499990 -0.454702
O16   O     O_R   0.364420 0.499960 0.637840 -0.430785
O17   O     O_R   0.635580 0.500040 0.362160 -0.447588
O18   O     O_R   0.601990 0.499990 0.637850 -0.506551
O19   O     O_R   0.398010 0.500010 0.362150 -0.511611
O20   O     O_2   0.994600 0.722243 0.727959 -0.260686
S1    S     S_3+6 0.109848 0.639364 0.680983 0.069863
S2    S     S_3+6 0.884017 0.290436 0.367406 0.078552
S3    S     S_3+6 0.695750 0.884842 0.642459 0.053134
S4    S     S_3+6 0.303296 0.115115 0.360008 0.050959

loop_
_geom_bond_atom_site_label_1
_geom_bond_atom_site_label_2
_ccdc_geom_bond_type
C4    C16   S    
C5    C8    S    
Cu2   O14   S    
C1    O14   A    
C6    C7    S    
Cu1   O1    S    
C9    C11   A    
C18   C20   A    
O5    S2    D    
C13   C15   A    
C2    N2    A    
Cu1   O15   S    
C12   O15   A    
C9    C15   A    
O7    S3    D    
O2    S1    D    
C2    S2    S    
Cu1   Cu2   S    
O13   S4    S    
Cu1   O19   S    
C18   N2    A    
C17   O17   A    
C6    H4    S    
C11   H6    S    
C20   S1    S    
C1    C15   S    
C20   N1    A    
O8    S3    D    
Cu2   O18   S    
Cu1   O16   S    
C10   S4    S    
H10   O9    S    
C12   C14   S    
C3    C17   S    
C9    S3    S    
C4    C7    T    
C19   N1    A    
C5    C6    D    
Cu2   N2    S    
C11   C14   A    
O11   S4    D    
Cu1   N1    S    
O9    S3    S    
C19   H3    S    
C18   H1    S    
O3    S1    S    
C17   O19   A    
O4    S2    D    
H9    O6    S    
C1    O1    A    
C12   O12   A    
C3    C8    T    
C10   C14   A    
C13   H7    S    
O20   S1    D    
O10   S4    D    
Cu2   O12   S    
C2    C19   A    
C5    H5    S    
H2    O13   S    
C16   O18   A    
H8    O3    S    
C16   O16   A    
Cu2   O17   S    
O6    S2    S    
C10   C13   A    
