data_mof_unit_pretest_287.cif
_audit_creation_date              2012-12-11T14:01:22-0500
_audit_creation_method            fapswitch 2.2
_symmetry_space_group_name_H-M    P1
_symmetry_Int_Tables_number       1
_space_group_crystal_system       triclinic
_cell_length_a                    19.806257
_cell_length_b                    11.300125
_cell_length_c                    19.128363
_cell_angle_alpha                 90.548809
_cell_angle_beta                  90.273207
_cell_angle_gamma                 90.389087
_cell_volume                      4280.83463418

loop_
_atom_site_label
_atom_site_type_symbol
_atom_type_description
_atom_site_fract_x
_atom_site_fract_y
_atom_site_fract_z
_atom_type_partial_charge
C1    C     C_R   0.274381 0.036362 0.854021 0.562044
C2    C     C_R   0.726089 0.039858 0.147261 0.566468
C3    C     C_R   0.774382 0.536361 0.854022 0.564254
C4    C     C_R   0.226090 0.539860 0.147262 0.565242
C5    C     C_R   0.475595 0.045202 0.079811 0.068617
C6    C     C_R   0.507143 0.058661 0.934797 0.060490
C7    C     C_R   0.975610 0.545209 0.079795 0.068072
C8    C     C_R   0.007154 0.558668 0.934782 0.060583
C9    C     C_R   0.986417 0.655955 0.048444 0.015878
C10   C     C_R   0.993728 0.661144 0.974240 0.022651
C11   C     C_R   0.486403 0.155947 0.048459 0.015589
C12   C     C_R   0.493715 0.161135 0.974255 0.022890
C13   C     C_2   0.249594 0.569935 0.912404 0.254165
C14   C     C_2   0.751149 0.558417 0.089240 0.243115
C15   C     C_2   0.749595 0.069943 0.912406 0.254866
C16   C     C_2   0.251150 0.058409 0.089241 0.242384
C17   C     C_2   0.246088 0.589969 0.080498 0.040661
C18   C     C_2   0.752953 0.574968 0.922969 0.043611
C19   C     C_2   0.746085 0.089974 0.080497 0.040765
C20   C     C_2   0.252951 0.074966 0.922969 0.043658
C21   C     C_2   0.289265 0.539508 0.035036 -0.022561
C22   C     C_2   0.709399 0.516424 0.965968 -0.041622
C23   C     C_2   0.789266 0.039522 0.035035 -0.022678
C24   C     C_2   0.209399 0.016415 0.965966 -0.041366
C25   C     C_2   0.294241 0.589994 0.965276 -0.031182
C26   C     C_2   0.703557 0.563350 0.038029 -0.010900
C27   C     C_2   0.794240 0.090013 0.965277 -0.031518
C28   C     C_2   0.203556 0.063331 0.038030 -0.010598
C29   C     C_2   0.495275 0.826648 0.578527 0.001145
C30   C     C_2   0.498976 0.828724 0.419229 -0.009290
C31   C     C_2   0.001006 0.328716 0.580995 -0.010853
C32   C     C_2   0.005534 0.327262 0.422071 0.002322
C33   C     C_2   0.505752 0.738181 0.464073 0.237017
C34   C     C_2   0.473749 0.744895 0.531685 0.252184
C35   C     C_2   0.026698 0.245411 0.467971 0.253389
C36   C     C_2   0.994692 0.237670 0.535518 0.232032
C37   C     C_2   0.249468 0.580096 0.582271 0.315422
C38   C     C_2   0.753797 0.571741 0.413501 0.324975
C39   C     C_2   0.745885 0.071071 0.586062 0.324863
C40   C     C_2   0.250874 0.080001 0.417073 0.311746
C41   C     C_2   0.247987 0.599998 0.412124 0.009807
C42   C     C_2   0.753251 0.590286 0.584219 0.024046
C43   C     C_2   0.746682 0.091505 0.415779 0.025027
C44   C     C_2   0.252504 0.097242 0.587034 0.014720
C45   C     C_R   0.468794 0.824267 0.854212 0.599251
C46   C     C_R   0.530787 0.821275 0.145564 0.606558
C47   C     C_R   0.968799 0.324268 0.854207 0.597361
C48   C     C_R   0.030793 0.321275 0.145559 0.608475
C49   C     C_2   0.204883 0.583011 0.465825 -0.082968
C50   C     C_2   0.796621 0.568814 0.531217 -0.081303
C51   C     C_2   0.703704 0.067473 0.468462 -0.080789
C52   C     C_2   0.296494 0.082763 0.533639 -0.081484
C53   C     C_2   0.215724 0.639073 0.532115 0.236740
C54   C     C_2   0.788863 0.626659 0.465265 0.224612
C55   C     C_2   0.711278 0.125561 0.534793 0.223877
C56   C     C_2   0.286043 0.138324 0.467531 0.236440
C57   C     C_R   0.260301 0.633564 0.847535 0.606556
C58   C     C_R   0.740259 0.630054 0.153304 0.603247
C59   C     C_R   0.760302 0.133566 0.847535 0.607088
C60   C     C_R   0.240259 0.130052 0.153304 0.602626
C61   C     C_R   0.272068 0.047833 0.652175 0.559543
C62   C     C_R   0.727796 0.047246 0.348516 0.565812
C63   C     C_R   0.772336 0.546537 0.651212 0.568111
C64   C     C_R   0.228131 0.548732 0.347285 0.560901
C65   C     C_R   0.468290 0.822718 0.648384 0.602800
C66   C     C_R   0.531427 0.822895 0.351630 0.606287
C67   C     C_R   0.968465 0.322725 0.648385 0.606282
C68   C     C_R   0.032007 0.322932 0.351892 0.604328
C69   C     C_R   0.261374 0.639777 0.647185 0.643494
C70   C     C_R   0.739189 0.638095 0.351908 0.640008
C71   C     C_R   0.760750 0.137987 0.648037 0.642326
C72   C     C_R   0.238575 0.140049 0.352861 0.641660
C73   C     C_R   0.499445 0.830569 0.073415 0.024572
C74   C     C_R   0.499890 0.841416 0.925528 0.029971
C75   C     C_R   0.999461 0.330571 0.073403 0.024280
C76   C     C_R   0.999905 0.341420 0.925516 0.030188
C77   C     C_R   0.489857 0.941267 0.040352 -0.023396
C78   C     C_R   0.497397 0.947655 0.965911 -0.020271
C79   C     C_R   0.989876 0.441272 0.040339 -0.023675
C80   C     C_R   0.997414 0.447660 0.965899 -0.020016
C81   C     C_R   0.517338 0.740303 0.958951 0.102153
C82   C     C_R   0.501471 0.729415 0.030407 0.075698
C83   C     C_R   0.017355 0.240306 0.958936 0.102307
C84   C     C_R   0.001489 0.229418 0.030393 0.075858
Cr1   Cr    Cr6+3 0.230530 0.836340 0.748870 1.117651
Cr2   Cr    Cr6+3 0.769470 0.836340 0.251130 1.133447
Cr3   Cr    Cr6+3 0.730530 0.336340 0.748870 1.109344
Cr4   Cr    Cr6+3 0.269470 0.336340 0.251130 1.140566
Cr5   Cr    Cr6+3 0.387420 0.989430 0.750820 1.145282
Cr6   Cr    Cr6+3 0.612580 0.989430 0.249180 1.143082
Cr7   Cr    Cr6+3 0.887420 0.489430 0.750820 1.148042
Cr8   Cr    Cr6+3 0.112580 0.489430 0.249180 1.140824
Cr9   Cr    Cr6+3 0.385640 0.677860 0.749230 1.134617
Cr10  Cr    Cr6+3 0.614360 0.677860 0.250770 1.157674
Cr11  Cr    Cr6+3 0.885640 0.177860 0.749230 1.145401
Cr12  Cr    Cr6+3 0.114360 0.177860 0.250770 1.147974
H1    H     H_    0.472609 0.908661 0.434079 0.144254
H2    H     H_    0.531156 0.895271 0.565003 0.123926
H3    H     H_    0.969827 0.395274 0.436383 0.121372
H4    H     H_    0.026722 0.409738 0.566646 0.146987
O1    O     O_R   0.215090 0.709860 0.828130 -0.480958
O2    O     O_R   0.784910 0.709860 0.171870 -0.518864
O3    O     O_R   0.715090 0.209860 0.828130 -0.481375
O4    O     O_R   0.284910 0.209860 0.171870 -0.518398
O5    O     O_R   0.445660 0.919250 0.676780 -0.470879
O6    O     O_R   0.554340 0.919250 0.323220 -0.478418
O7    O     O_R   0.945660 0.419250 0.676780 -0.476982
O8    O     O_R   0.054340 0.419250 0.323220 -0.474308
O9    O     O_R   0.456260 0.718170 0.670000 -0.453302
O10   O     O_R   0.543740 0.718170 0.330000 -0.429550
O11   O     O_R   0.956260 0.218170 0.670000 -0.436217
O12   O     O_R   0.043740 0.218170 0.330000 -0.446597
O13   O     O_R   0.320940 0.626760 0.674370 -0.448968
O14   O     O_R   0.679060 0.626760 0.325630 -0.449556
O15   O     O_R   0.820940 0.126760 0.674370 -0.446165
O16   O     O_R   0.179060 0.126760 0.325630 -0.451186
O17   O     O_3   0.334530 0.834540 0.749640 -0.331549
O18   O     O_3   0.665470 0.834540 0.250360 -0.329306
O19   O     O_3   0.834530 0.334540 0.749640 -0.332579
O20   O     O_3   0.165470 0.334540 0.250360 -0.328291
O21   O     O_R   0.236990 0.958390 0.823710 -0.462721
O22   O     O_R   0.763010 0.958390 0.176290 -0.457277
O23   O     O_R   0.736990 0.458390 0.823710 -0.463871
O24   O     O_R   0.263010 0.458390 0.176290 -0.455432
O25   O     O_R   0.332380 0.074750 0.830850 -0.452285
O26   O     O_R   0.667620 0.074750 0.169150 -0.469738
O27   O     O_R   0.832380 0.574750 0.830850 -0.450385
O28   O     O_R   0.167620 0.574750 0.169150 -0.471677
O29   O     O_R   0.445800 0.917770 0.825070 -0.502937
O30   O     O_R   0.554200 0.917770 0.174930 -0.504751
O31   O     O_R   0.945800 0.417770 0.825070 -0.503754
O32   O     O_R   0.054200 0.417770 0.174930 -0.503869
O33   O     O_R   0.456410 0.716580 0.829970 -0.446399
O34   O     O_R   0.543590 0.716580 0.170030 -0.437075
O35   O     O_R   0.956410 0.216580 0.829970 -0.446709
O36   O     O_R   0.043590 0.216580 0.170030 -0.436643
O37   O     O_R   0.321080 0.625290 0.822650 -0.528721
O38   O     O_R   0.678920 0.625290 0.177350 -0.510758
O39   O     O_R   0.821080 0.125290 0.822650 -0.528601
O40   O     O_R   0.178920 0.125290 0.177350 -0.510879
O41   O     O_R   0.214930 0.711450 0.668160 -0.485525
O42   O     O_R   0.785070 0.711450 0.331840 -0.487451
O43   O     O_R   0.714930 0.211450 0.668160 -0.488804
O44   O     O_R   0.285070 0.211450 0.331840 -0.484696
O45   O     O_R   0.236850 0.959870 0.675420 -0.473517
O46   O     O_R   0.763150 0.959870 0.324580 -0.484726
O47   O     O_R   0.736850 0.459870 0.675420 -0.486835
O48   O     O_R   0.263150 0.459870 0.324580 -0.474563
O49   O     O_R   0.332230 0.076350 0.670880 -0.491727
O50   O     O_R   0.667770 0.076350 0.329120 -0.484713
O51   O     O_R   0.832230 0.576350 0.670880 -0.484041
O52   O     O_R   0.167770 0.576350 0.329120 -0.491969
C85   C     C_2   0.567466 0.670246 0.919583 0.647617
O53   O     O_2   0.623187 0.713733 0.909186 -0.473922
O54   O     O_R   0.547209 0.572781 0.880331 -0.621924
H5    H     H_    0.580323 0.552511 0.841887 0.354858
C86   C     C_2   0.472461 0.618885 0.056558 0.686816
O55   O     O_2   0.436723 0.618872 0.108543 -0.442472
O56   O     O_R   0.487268 0.514159 0.022059 -0.558282
H6    H     H_    0.472884 0.443624 0.049473 0.391368
C87   C     C_2   0.067483 0.170250 0.919564 0.647163
O57   O     O_2   0.123208 0.213729 0.909182 -0.475150
O58   O     O_R   0.047223 0.072808 0.880291 -0.621042
H7    H     H_    0.080335 0.052561 0.841840 0.357078
C88   C     C_2   0.972477 0.118886 0.056537 0.686876
O59   O     O_2   0.936735 0.118866 0.108518 -0.443987
O60   O     O_R   0.987285 0.014165 0.022033 -0.558323
H8    H     H_    0.972887 0.943624 0.049435 0.391464
C89   C     C_2   0.145567 0.501804 0.462752 0.592394
O61   O     O_2   0.091006 0.536267 0.483791 -0.462895
O62   O     O_R   0.151156 0.387080 0.435974 -0.623727
H9    H     H_    0.199234 0.363021 0.426046 0.332914
C90   C     C_2   0.856523 0.491212 0.536977 0.562222
O63   O     O_2   0.911791 0.529156 0.519929 -0.464077
O64   O     O_R   0.850583 0.375531 0.561099 -0.641850
H10   H     H_    0.802277 0.351138 0.570391 0.328542
C91   C     C_2   0.644197 0.987699 0.461875 0.562562
O65   O     O_2   0.588769 0.023882 0.479091 -0.465884
O66   O     O_R   0.650724 0.871941 0.436979 -0.639455
H11   H     H_    0.699174 0.849354 0.427696 0.327754
C92   C     C_2   0.356688 0.005151 0.536879 0.589402
O67   O     O_2   0.410959 0.041925 0.516008 -0.460852
O68   O     O_R   0.352287 0.891173 0.563831 -0.624466
H12   H     H_    0.304526 0.864690 0.573983 0.335416
O69   O     O_3   0.190309 0.751637 0.543357 -0.680195
H13   H     H_    0.163051 0.774355 0.502004 0.360516
O70   O     O_3   0.813702 0.740922 0.458114 -0.684685
H14   H     H_    0.838448 0.763733 0.501474 0.363487
O71   O     O_3   0.687413 0.240041 0.542613 -0.687282
H15   H     H_    0.662837 0.262299 0.499410 0.361022
O72   O     O_3   0.313163 0.250073 0.456893 -0.679435
H16   H     H_    0.340405 0.273209 0.498564 0.361527
C93   C     C_2   0.308195 0.678919 0.411273 0.569227
O73   O     O_2   0.320989 0.745119 0.460146 -0.498094
O74   O     O_R   0.349113 0.680500 0.351871 -0.649896
H17   H     H_    0.386148 0.742453 0.354929 0.337237
C94   C     C_2   0.690732 0.661957 0.579751 0.572693
O75   O     O_2   0.663243 0.679475 0.523645 -0.477327
O76   O     O_R   0.662426 0.707494 0.641123 -0.661404
H18   H     H_    0.620419 0.755635 0.632012 0.332596
C95   C     C_2   0.808758 0.165578 0.421262 0.571791
O77   O     O_2   0.838315 0.177855 0.476968 -0.476027
O78   O     O_R   0.834401 0.218986 0.361230 -0.653772
H19   H     H_    0.876307 0.268302 0.371077 0.332995
C96   C     C_2   0.191439 0.172584 0.587387 0.573945
O79   O     O_2   0.181480 0.244337 0.541455 -0.487225
O80   O     O_R   0.146631 0.164931 0.643483 -0.663368
H20   H     H_    0.109219 0.225210 0.640963 0.337409
O81   O     O_3   0.278918 0.469778 0.573701 -0.691123
H21   H     H_    0.270957 0.438126 0.526162 0.335692
O82   O     O_3   0.724606 0.460145 0.418552 -0.683129
H22   H     H_    0.744631 0.416117 0.457799 0.325116
O83   O     O_3   0.774421 0.959587 0.580147 -0.683718
H23   H     H_    0.753985 0.914910 0.540705 0.327781
O84   O     O_3   0.220311 0.970062 0.424903 -0.696170
H24   H     H_    0.233709 0.933853 0.469500 0.336477
C97   C     C_2   0.444739 0.036438 0.151709 0.635293
O85   O     O_2   0.407034 0.953684 0.165083 -0.449041
O86   O     O_R   0.463966 0.112846 0.206138 -0.637076
H25   H     H_    0.440887 0.093823 0.251933 0.343009
C98   C     C_2   0.541934 0.069802 0.864969 0.601545
O87   O     O_2   0.581650 0.993906 0.845880 -0.439468
O88   O     O_R   0.528888 0.164399 0.820389 -0.693820
H26   H     H_    0.555657 0.160074 0.775389 0.344199
C99   C     C_2   0.944735 0.536447 0.151684 0.635680
O89   O     O_2   0.907051 0.453666 0.165059 -0.445832
O90   O     O_R   0.963905 0.612919 0.206103 -0.638076
H27   H     H_    0.940804 0.593912 0.251889 0.342874
C100  C     C_2   0.041936 0.569810 0.864950 0.601361
O91   O     O_2   0.081653 0.493917 0.845857 -0.441176
O92   O     O_R   0.028882 0.664405 0.820370 -0.692477
H28   H     H_    0.055645 0.660080 0.775366 0.345086
C101  C     C_2   0.014134 0.751749 0.094360 0.603959
O93   O     O_2   0.073903 0.774695 0.092145 -0.431969
O94   O     O_R   0.976076 0.806316 0.146168 -0.676232
H29   H     H_    0.002806 0.866552 0.174833 0.363380
C102  C     C_2   0.966531 0.759369 0.932981 0.648800
O95   O     O_2   0.917243 0.741545 0.895575 -0.408024
O96   O     O_R   0.002721 0.862086 0.924249 -0.601123
H30   H     H_    0.986170 0.903185 0.880789 0.381168
C103  C     C_2   0.514115 0.251745 0.094375 0.603767
O97   O     O_2   0.573876 0.274750 0.092126 -0.431482
O98   O     O_R   0.476068 0.306258 0.146212 -0.675053
H31   H     H_    0.502794 0.366509 0.174870 0.364966
C104  C     C_2   0.466521 0.259356 0.932994 0.648780
O99   O     O_2   0.417240 0.241528 0.895579 -0.409010
O100  O     O_R   0.502709 0.362076 0.924267 -0.601178
H32   H     H_    0.486167 0.403161 0.880800 0.380475
C105  C     C_2   0.338415 0.445324 0.049417 0.579845
O101  O     O_2   0.364570 0.395463 0.000117 -0.502497
O102  O     O_R   0.362175 0.421422 0.115728 -0.601770
H33   H     H_    0.367787 0.333786 0.121143 0.367500
C106  C     C_2   0.655232 0.427513 0.946388 0.627604
O103  O     O_2   0.614554 0.400950 0.990832 -0.424209
O104  O     O_R   0.645182 0.378956 0.880258 -0.645392
H34   H     H_    0.610339 0.313417 0.878230 0.367552
C107  C     C_2   0.838415 0.945334 0.049412 0.580216
O105  O     O_2   0.864568 0.895475 0.000111 -0.502346
O106  O     O_R   0.862173 0.921422 0.115723 -0.603428
H35   H     H_    0.867780 0.833784 0.121136 0.367652
C108  C     C_2   0.155230 0.927506 0.946383 0.627352
O107  O     O_2   0.114564 0.900912 0.990832 -0.424350
O108  O     O_R   0.145166 0.878990 0.880243 -0.644321
H36   H     H_    0.110342 0.813420 0.878215 0.367651
C109  C     C_2   0.355885 0.657023 0.954774 0.564741
O109  O     O_2   0.360119 0.760504 0.973062 -0.531859
O110  O     O_R   0.409782 0.599268 0.923799 -0.608525
H37   H     H_    0.397639 0.518756 0.903714 0.365011
C110  C     C_2   0.641835 0.624428 0.052599 0.593643
O111  O     O_2   0.640029 0.731916 0.047113 -0.517974
O112  O     O_R   0.593448 0.563461 0.090749 -0.621832
H38   H     H_    0.608094 0.483023 0.107726 0.368511
C111  C     C_2   0.855886 0.157039 0.954774 0.564527
O113  O     O_2   0.860122 0.260519 0.973063 -0.531854
O114  O     O_R   0.909782 0.099282 0.923798 -0.608560
H39   H     H_    0.897639 0.018770 0.903715 0.365204
C112  C     C_2   0.141833 0.124401 0.052601 0.594006
O115  O     O_2   0.140026 0.231890 0.047116 -0.517831
O116  O     O_R   0.093450 0.063432 0.090757 -0.621987
H40   H     H_    0.108098 0.982992 0.107728 0.368209
C113  C     C_2   0.200065 0.678905 0.052759 0.619930
O117  O     O_2   0.211277 0.783919 0.062517 -0.466071
O118  O     O_R   0.145505 0.638380 0.012710 -0.679413
H41   H     H_    0.128566 0.697854 0.978289 0.365995
C114  C     C_2   0.791306 0.673608 0.951895 0.638175
O119  O     O_2   0.771858 0.774310 0.942905 -0.421735
O120  O     O_R   0.846270 0.647707 0.994307 -0.683742
H42   H     H_    0.851575 0.703534 0.035134 0.345981
C115  C     C_2   0.700058 0.178911 0.052762 0.620139
O121  O     O_2   0.711264 0.283925 0.062528 -0.465089
O122  O     O_R   0.645497 0.138387 0.012714 -0.679799
H43   H     H_    0.628545 0.197875 0.978309 0.366008
C116  C     C_2   0.291301 0.173609 0.951896 0.638041
O123  O     O_2   0.271853 0.274311 0.942901 -0.422811
O124  O     O_R   0.346261 0.147712 0.994312 -0.683298
H44   H     H_    0.351557 0.203531 0.035144 0.345964
O125  O     O_3   0.195669 0.492074 0.916217 -0.590253
H45   H     H_    0.196010 0.450922 0.961647 0.381217
O126  O     O_3   0.807920 0.489167 0.084255 -0.620264
H46   H     H_    0.806220 0.441209 0.040714 0.381253
O127  O     O_3   0.695672 0.992078 0.916220 -0.589252
H47   H     H_    0.696014 0.950929 0.961651 0.381052
O128  O     O_3   0.307924 0.989167 0.084254 -0.620881
H48   H     H_    0.306225 0.941209 0.040713 0.381371
O129  O     O_3   0.541177 0.636618 0.446850 -0.594359
H49   H     H_    0.540812 0.582302 0.487309 0.354552
O130  O     O_3   0.425559 0.660444 0.548775 -0.606445
H50   H     H_    0.418664 0.606217 0.508235 0.349087
O131  O     O_3   0.075015 0.162231 0.450067 -0.603866
H51   H     H_    0.081742 0.107916 0.489895 0.350407
O132  O     O_3   0.960291 0.134533 0.552232 -0.595954
H52   H     H_    0.960601 0.080109 0.511215 0.355887

loop_
_geom_bond_atom_site_label_1
_geom_bond_atom_site_label_2
_ccdc_geom_bond_type
C86   O55   D    
C37   C69   S    
C95   O78   S    
O122  H43   S    
Cr5   O25   S    
O127  H47   S    
C31   C67   S    
C30   H1    S    
Cr7   O27   S    
C64   O52   A    
C7    C79   A    
C47   C76   S    
Cr7   O31   S    
C12   C104  S    
Cr5   O29   S    
C65   O5    A    
C94   O76   S    
C41   C93   S    
C5    C97   S    
O88   H26   S    
C43   C95   S    
Cr1   O21   S    
C90   O64   S    
C56   O72   S    
O76   H18   S    
C104  O99   D    
C20   C116  S    
C76   C83   A    
C41   C49   D    
C87   O58   S    
C3    O23   A    
C92   O68   S    
C105  O102  S    
C9    C101  S    
O72   H16   S    
Cr7   O7    S    
O108  H36   S    
Cr11  O19   S    
C92   O67   D    
C17   C21   D    
C47   O31   A    
C35   C36   S    
C19   C23   D    
O84   H24   S    
C100  O91   D    
C46   O34   A    
C26   C110  S    
C15   C27   D    
O90   H27   S    
C13   O125  S    
Cr6   O26   S    
O131  H51   S    
C31   H4    S    
C14   C26   D    
Cr1   O17   S    
Cr3   O3    S    
C54   O70   S    
C110  O112  S    
C74   C81   A    
C5    C77   A    
C71   O43   A    
C72   O44   A    
C1    C20   S    
C62   O50   A    
C2    C19   S    
C45   O33   A    
Cr11  O39   S    
C51   C91   S    
C114  O120  S    
O64   H10   S    
O83   H23   S    
C44   C96   S    
C33   C34   S    
C51   C55   S    
C22   C26   S    
O74   H17   S    
O125  H45   S    
C8    C10   A    
C93   O73   D    
O54   H5    S    
C73   C77   A    
C31   C36   D    
Cr12  O16   S    
C103  O98   S    
C61   O49   A    
O112  H38   S    
Cr4   O24   S    
C69   O13   A    
C105  O101  D    
C98   O87   D    
C55   O71   S    
Cr8   O32   S    
Cr1   O45   S    
Cr9   O33   S    
C106  O103  D    
C49   C53   S    
C75   C84   A    
C6    C78   A    
C13   C57   S    
C81   C85   S    
C4    O24   A    
C103  O97   D    
C16   C60   S    
Cr8   O8    S    
C91   O66   S    
C24   C108  S    
C101  O93   D    
C108  O108  S    
C27   C111  S    
C37   C53   D    
C58   O38   A    
C88   O60   S    
C112  O115  D    
C64   O48   A    
C89   O62   S    
Cr9   O17   S    
C63   O47   A    
Cr4   O4    S    
C115  O121  D    
C96   O80   S    
C99   O90   S    
C39   O83   S    
Cr1   O41   S    
C7    C99   S    
C97   O85   D    
C45   C74   S    
Cr3   O19   S    
C116  O123  D    
C35   O131  S    
C8    C100  S    
C83   C84   A    
O116  H40   S    
O81   H21   S    
C57   O37   A    
C109  O110  S    
C42   C50   D    
C29   C65   S    
C60   O40   A    
C91   O65   D    
C19   C115  S    
C11   C103  S    
Cr7   O19   S    
C85   O54   S    
Cr2   O2    S    
C21   C25   S    
C39   C71   S    
C40   C72   S    
C47   O35   A    
C18   C22   D    
C48   O36   A    
C76   C80   A    
Cr5   O17   S    
Cr12  O40   S    
O110  H37   S    
C44   C61   S    
C113  O118  S    
C57   O1    A    
C59   O3    A    
C102  O96   S    
Cr8   O20   S    
O124  H44   S    
Cr3   O23   S    
Cr10  O18   S    
C75   C79   A    
C111  O114  S    
C94   O75   D    
C1    O21   A    
C10   C102  S    
C62   O46   A    
Cr5   O5    S    
O118  H41   S    
C60   O4    A    
C46   C73   S    
O106  H35   S    
Cr9   O9    S    
C38   C70   S    
C45   O29   A    
O96   H30   S    
O62   H9    S    
C87   O57   D    
C28   C112  S    
Cr12  O36   S    
C77   C78   A    
C50   C54   S    
Cr3   O47   S    
C29   H2    S    
C50   C90   S    
Cr6   O18   S    
C5    C11   A    
C6    C12   A    
C15   O127  S    
C69   O41   A    
O98   H31   S    
C89   O61   D    
C61   O45   A    
C22   C106  S    
C84   C88   S    
C39   C55   D    
C40   C56   D    
Cr2   O22   S    
O94   H29   S    
C58   O2    A    
Cr4   O20   S    
Cr6   O50   S    
C17   C113  S    
Cr5   O49   S    
C86   O56   S    
C36   O132  S    
C110  O111  D    
Cr2   O46   S    
C2    O22   A    
C14   C58   S    
C4    O28   A    
O80   H20   S    
C24   C28   S    
C52   C92   S    
Cr6   O6    S    
O102  H33   S    
O60   H8    S    
C96   O79   D    
C29   C34   D    
Cr10  O10   S    
O130  H50   S    
O126  H46   S    
C46   O30   A    
C114  O119  D    
O56   H6    S    
C38   C54   D    
C59   O39   A    
O100  H32   S    
Cr2   O18   S    
Cr9   O13   S    
C65   O9    A    
C34   O130  S    
C4    C17   S    
C67   O11   A    
C104  O100  S    
Cr10  O38   S    
C73   C82   A    
O86   H25   S    
Cr2   O42   S    
C15   C59   S    
C42   C94   S    
C72   O16   A    
O70   H14   S    
C100  O92   S    
C49   C89   S    
C43   C51   D    
O69   H13   S    
C108  O107  D    
C16   O128  S    
O71   H15   S    
O66   H11   S    
Cr6   O30   S    
C98   O88   S    
O129  H49   S    
C74   C78   A    
C48   O32   A    
C41   C64   S    
C42   C63   S    
C43   C62   S    
C16   C28   D    
O132  H52   S    
C88   O59   D    
C95   O77   D    
O58   H7    S    
O68   H12   S    
C81   C82   A    
Cr10  O14   S    
C18   C114  S    
C90   O63   D    
C70   O14   A    
Cr12  O12   S    
C1    O25   A    
C107  O105  D    
C21   C105  S    
C3    O27   A    
C3    C18   S    
C53   O69   S    
C115  O122  S    
O82   H22   S    
Cr11  O15   S    
C93   O74   S    
Cr8   O52   S    
C23   C27   S    
C38   O82   S    
C109  O109  D    
C32   C68   S    
C6    C98   S    
C83   C87   S    
O128  H48   S    
C48   C75   S    
C13   C25   D    
C66   O6    A    
Cr8   O28   S    
Cr4   O48   S    
C70   O42   A    
C32   C35   D    
C20   C24   D    
C106  O104  S    
C82   C86   S    
C113  O117  D    
C66   O10   A    
C14   O126  S    
C107  O106  S    
C63   O51   A    
Cr11  O35   S    
C99   O89   D    
C71   O15   A    
C101  O94   S    
C37   O81   S    
C30   C66   S    
C2    O26   A    
O114  H39   S    
C112  O116  S    
O120  H42   S    
C33   O129  S    
O104  H34   S    
Cr1   O1    S    
C9    C10   A    
C7    C9    A    
C30   C33   D    
Cr12  O20   S    
C44   C52   D    
C25   C109  S    
C11   C12   A    
C97   O86   S    
C32   H3    S    
C116  O124  S    
Cr11  O11   S    
Cr7   O51   S    
C67   O7    A    
C40   O84   S    
Cr10  O34   S    
Cr9   O37   S    
C79   C80   A    
C23   C107  S    
O92   H28   S    
C8    C80   A    
C68   O8    A    
O78   H19   S    
Cr3   O43   S    
C85   O53   D    
C102  O95   D    
Cr4   O44   S    
C68   O12   A    
C52   C56   S    
C111  O113  D    
