data_mof_unit_pretest_1624.cif
_audit_creation_date              2012-12-10T20:36:15-0500
_audit_creation_method            fapswitch 2.2
_symmetry_space_group_name_H-M    P1
_symmetry_Int_Tables_number       1
_space_group_crystal_system       triclinic
_cell_length_a                    25.726326
_cell_length_b                    39.724448
_cell_length_c                    23.712927
_cell_angle_alpha                 89.954041
_cell_angle_beta                  122.913961
_cell_angle_gamma                 90.084166
_cell_volume                      20343.9163998

loop_
_atom_site_label
_atom_site_type_symbol
_atom_type_description
_atom_site_fract_x
_atom_site_fract_y
_atom_site_fract_z
_atom_type_partial_charge
C1    C     C_R   0.358648 0.749939 0.000189 0.890999
C2    C     C_3   0.275264 0.219417 0.016059 -0.037461
C3    C     C_1   0.234429 0.249680 0.469846 -0.024293
C4    C     C_1   0.734426 0.250314 0.469843 -0.024281
C5    C     C_1   0.265580 0.749694 0.530159 -0.024659
C6    C     C_1   0.265577 0.250310 0.530156 -0.024292
C7    C     C_1   0.734446 0.749663 0.469849 -0.025606
C8    C     C_R   0.487514 0.431189 0.042407 -0.157283
C9    C     C_R   0.512524 0.568810 0.957628 -0.156137
C10   C     C_R   0.512511 0.431256 0.957526 -0.156689
C11   C     C_R   0.487480 0.568744 0.042473 -0.156826
C12   C     C_R   0.987469 0.931190 0.042366 -0.156136
C13   C     C_3   0.275471 0.780563 0.016142 -0.037318
C14   C     C_R   0.012485 0.068811 0.957592 -0.157288
C15   C     C_R   0.012522 0.931256 0.957529 -0.156839
C16   C     C_R   0.987488 0.068743 0.042473 -0.156688
C17   C     C_R   0.487498 0.396050 0.042457 -0.181973
C18   C     C_R   0.512535 0.603949 0.957573 -0.174288
C19   C     C_R   0.512523 0.396113 0.957463 -0.182160
C20   C     C_R   0.487465 0.603888 0.042530 -0.182958
C21   C     C_R   0.987459 0.896051 0.042422 -0.174288
C22   C     C_R   0.012501 0.103950 0.957543 -0.181975
C23   C     C_R   0.012539 0.896112 0.957472 -0.182959
C24   C     C_3   0.724535 0.219435 0.983871 -0.037421
C25   C     C_R   0.987476 0.103887 0.042536 -0.182161
C26   C     C_R   0.500010 0.378161 0.999959 -0.013733
C27   C     C_R   0.499997 0.621839 0.000050 -0.014107
C28   C     C_R   0.000002 0.878161 0.999950 -0.014109
C29   C     C_R   0.999989 0.121839 0.000041 -0.013732
C30   C     C_R   0.500013 0.448793 0.999972 0.151560
C31   C     C_R   0.500003 0.551207 0.000047 0.150781
C32   C     C_R   0.999995 0.948793 0.999951 0.150786
C33   C     C_R   0.999985 0.051207 0.000027 0.151561
C34   C     C_1   0.500012 0.484870 0.999995 -0.051152
C35   C     C_3   0.224735 0.280583 0.983941 -0.037464
C36   C     C_1   0.500006 0.515129 0.000027 -0.050491
C37   C     C_1   0.999992 0.984871 0.999971 -0.050496
C38   C     C_1   0.999986 0.015129 0.000003 -0.051156
C39   C     C_R   0.499998 0.658975 0.000022 0.801743
C40   C     C_R   0.500004 0.341025 0.999980 0.798900
C41   C     C_R   0.999996 0.158975 0.000020 0.798897
C42   C     C_R   0.000002 0.841025 0.999978 0.801757
C43   C     C_R   0.500021 0.840937 0.000029 0.834023
C44   C     C_R   0.499975 0.159063 0.999981 0.830947
C45   C     C_R   0.000025 0.340936 0.000019 0.830952
C46   C     C_3   0.743544 0.728012 0.954096 -0.031469
C47   C     C_R   0.999979 0.659063 0.999970 0.833994
C48   C     C_R   0.444389 0.068698 0.957739 0.405200
C49   C     C_R   0.555509 0.931307 0.042593 0.405050
C50   C     C_R   0.555485 0.068762 0.042267 0.405188
C51   C     C_R   0.444516 0.931236 0.957635 0.405339
C52   C     C_R   0.944490 0.568693 0.957409 0.405061
C53   C     C_R   0.055611 0.431302 0.042262 0.405200
C54   C     C_R   0.055484 0.568764 0.042364 0.405335
C55   C     C_R   0.944515 0.431238 0.957733 0.405190
C56   C     C_R   0.444796 0.104077 0.958012 -0.310597
C57   C     C_3   0.775465 0.280565 0.016129 -0.037421
C58   C     C_R   0.555121 0.895928 0.042277 -0.306358
C59   C     C_R   0.555085 0.104137 0.041945 -0.310477
C60   C     C_R   0.444933 0.895861 0.957921 -0.310656
C61   C     C_R   0.944879 0.604072 0.957725 -0.306408
C62   C     C_R   0.055204 0.395923 0.041988 -0.310587
C63   C     C_R   0.055067 0.604138 0.042078 -0.310649
C64   C     C_R   0.944915 0.395863 0.958055 -0.310478
C65   C     C_R   0.499944 0.121934 0.999970 -0.082296
C66   C     C_R   0.500035 0.878067 0.000082 -0.084280
C67   C     C_R   0.999965 0.621933 0.999918 -0.084262
C68   C     C_3   0.224528 0.719437 0.983858 -0.037324
C69   C     C_R   0.000056 0.378066 0.000031 -0.082300
C70   C     C_R   0.499937 0.051266 0.000018 0.010665
C71   C     C_R   0.500005 0.948736 0.000115 0.010346
C72   C     C_R   0.999995 0.551264 0.999886 0.010348
C73   C     C_R   0.000063 0.448734 0.999983 0.010664
C74   C     C_1   0.499950 0.015117 0.000053 0.159111
C75   C     C_1   0.499982 0.984884 0.000092 0.159399
C76   C     C_1   0.000018 0.515116 0.999909 0.159399
C77   C     C_1   0.000050 0.484883 0.999948 0.159113
C78   C     C_3   0.237136 0.258491 0.939205 0.409610
C79   C     C_3   0.740138 0.719289 0.015186 0.445248
C80   C     C_3   0.762874 0.258471 0.060789 0.409789
C81   C     C_R   0.641352 0.250061 0.999811 0.891000
C82   C     C_3   0.237124 0.741535 0.939207 0.409716
C83   C     C_3   0.759862 0.780712 0.984813 0.445275
C84   C     C_3   0.262864 0.241509 0.060795 0.409606
C85   C     C_3   0.262876 0.758465 0.060793 0.409720
C86   C     C_3   0.737126 0.241529 0.939210 0.409787
C87   C     C_3   0.302212 0.250172 0.000560 -0.116135
C88   C     C_3   0.698318 0.750234 0.000493 -0.114801
C89   C     C_3   0.697757 0.250206 0.999375 -0.116254
C90   C     C_3   0.302243 0.749794 0.000625 -0.116246
C91   C     C_3   0.801681 0.749766 0.999506 -0.114810
C92   C     C_R   0.641516 0.749996 0.000137 0.890638
C93   C     C_3   0.197788 0.249828 0.999440 -0.116129
C94   C     C_3   0.197756 0.750206 0.999375 -0.116236
C95   C     C_3   0.802243 0.249794 0.000625 -0.116256
C96   C     C_3   0.289309 0.272306 0.045266 -0.027019
C97   C     C_3   0.702257 0.758926 0.939499 -0.070361
C98   C     C_3   0.710853 0.272338 0.954752 -0.027221
C99   C     C_3   0.289142 0.727657 0.045238 -0.027171
C100  C     C_3   0.797742 0.741074 0.060499 -0.070390
C101  C     C_3   0.210690 0.227694 0.954733 -0.027020
C102  C     C_3   0.210858 0.772343 0.954761 -0.027175
C103  C     C_R   0.358631 0.250043 0.000154 0.890877
C104  C     C_3   0.789147 0.227662 0.045248 -0.027220
C105  C     C_R   0.140339 0.768131 0.361214 0.486231
C106  C     C_R   0.859334 0.231570 0.638778 0.486649
C107  C     C_R   0.859741 0.768110 0.638778 0.486028
C108  C     C_R   0.140812 0.231363 0.361237 0.486703
C109  C     C_R   0.640674 0.268438 0.361222 0.486650
C110  C     C_R   0.359673 0.731882 0.638786 0.486231
C111  C     C_R   0.359230 0.268596 0.638764 0.486712
C112  C     C_R   0.640483 0.731666 0.361228 0.485977
C113  C     C_R   0.106853 0.767532 0.291087 -0.276834
C114  C     C_R   0.858648 0.249939 0.000189 0.891005
C115  C     C_R   0.892833 0.232185 0.708904 -0.276913
C116  C     C_R   0.893219 0.767519 0.708901 -0.276797
C117  C     C_R   0.107306 0.231989 0.291114 -0.276958
C118  C     C_R   0.607174 0.267822 0.291096 -0.276911
C119  C     C_R   0.393159 0.732479 0.708913 -0.276836
C120  C     C_R   0.392732 0.267975 0.708887 -0.276965
C121  C     C_R   0.606987 0.732281 0.291104 -0.276749
C122  C     C_R   0.128783 0.750151 0.256415 -0.153971
C123  C     C_R   0.871210 0.249853 0.743578 -0.154561
C124  C     C_R   0.871186 0.750164 0.743573 -0.152705
C125  C     C_R   0.141352 0.750061 0.999811 0.890974
C126  C     C_R   0.128791 0.249862 0.256443 -0.154935
C127  C     C_R   0.628790 0.250146 0.256422 -0.154564
C128  C     C_R   0.371216 0.749849 0.743586 -0.153969
C129  C     C_R   0.371209 0.250138 0.743558 -0.154925
C130  C     C_R   0.628813 0.749837 0.256435 -0.152813
C131  C     C_R   0.186133 0.733104 0.293255 0.466739
C132  C     C_R   0.814156 0.267183 0.706731 0.466990
C133  C     C_R   0.813728 0.733150 0.706748 0.461630
C134  C     C_R   0.185701 0.267398 0.293288 0.466992
C135  C     C_R   0.685836 0.232810 0.293269 0.466994
C136  C     C_R   0.141369 0.249957 0.999846 0.890865
C137  C     C_R   0.313855 0.766883 0.706746 0.466734
C138  C     C_R   0.314262 0.232637 0.706716 0.466977
C139  C     C_R   0.686073 0.767042 0.293270 0.461599
C140  C     C_R   0.219827 0.733676 0.363777 -0.323991
C141  C     C_R   0.780453 0.266596 0.636211 -0.323725
C142  C     C_R   0.780039 0.733710 0.636226 -0.323434
C143  C     C_R   0.219411 0.266798 0.363804 -0.323611
C144  C     C_R   0.719541 0.233398 0.363789 -0.323728
C145  C     C_R   0.280160 0.766313 0.636224 -0.323979
C146  C     C_R   0.280554 0.233232 0.636199 -0.323615
C147  C     C_R   0.858484 0.750004 0.999863 0.890711
C148  C     C_R   0.719778 0.766457 0.363792 -0.323463
C149  C     C_R   0.197508 0.750883 0.397745 -0.017974
C150  C     C_R   0.802470 0.249101 0.602249 -0.018347
C151  C     C_R   0.802474 0.750880 0.602255 -0.018182
C152  C     C_R   0.197536 0.249094 0.397762 -0.018356
C153  C     C_R   0.697531 0.250901 0.397751 -0.018347
C154  C     C_R   0.302492 0.749118 0.602256 -0.017976
C155  C     C_R   0.302470 0.250898 0.602240 -0.018357
C156  C     C_R   0.697553 0.749080 0.397757 -0.018156
C157  C     C_R   0.591255 0.749892 0.182043 0.854826
C158  C     C_3   0.756456 0.771988 0.045902 -0.031485
C159  C     C_R   0.408753 0.250100 0.817955 0.860645
C160  C     C_R   0.408762 0.749893 0.817985 0.860133
C161  C     C_R   0.591237 0.250103 0.182018 0.859719
C162  C     C_R   0.091246 0.249900 0.182046 0.860626
C163  C     C_R   0.908741 0.750112 0.817960 0.854954
C164  C     C_R   0.908763 0.249896 0.817982 0.859722
C165  C     C_R   0.091238 0.750106 0.182015 0.860124
C166  C     C_1   0.234419 0.750308 0.469841 -0.024662
C167  C     C_1   0.765575 0.249687 0.530157 -0.024280
C168  C     C_1   0.765584 0.750287 0.530164 -0.025597
H1    H     H_    0.477787 0.444616 0.075427 0.142991
H2    H     H_    0.522361 0.617070 0.924325 0.171050
H3    H     H_    0.248080 0.295319 0.293214 0.334393
H4    H     H_    0.748445 0.205225 0.293196 0.334438
H5    H     H_    0.250728 0.793955 0.706842 0.334416
H6    H     H_    0.251819 0.204777 0.706793 0.334402
H7    H     H_    0.749031 0.794396 0.293168 0.331212
H8    H     H_    0.522330 0.383038 0.924203 0.169167
H9    H     H_    0.477638 0.616963 0.075774 0.169199
H10   H     H_    0.977630 0.882930 0.075668 0.171049
H11   H     H_    0.022310 0.117072 0.924281 0.169218
H12   H     H_    0.022369 0.883037 0.924232 0.169198
H13   H     H_    0.977670 0.116962 0.075797 0.169166
H14   H     H_    0.402011 0.117596 0.925472 0.177105
H15   H     H_    0.597871 0.882412 0.074977 0.180320
H16   H     H_    0.597880 0.117700 0.074474 0.177201
H17   H     H_    0.522270 0.555382 0.924625 0.143791
H18   H     H_    0.402185 0.882296 0.925210 0.177225
H19   H     H_    0.902128 0.617588 0.925026 0.180282
H20   H     H_    0.097989 0.382404 0.074528 0.177113
H21   H     H_    0.097816 0.617704 0.074787 0.177226
H22   H     H_    0.902120 0.382300 0.925526 0.177200
H23   H     H_    0.062975 0.780694 0.263589 0.205498
H24   H     H_    0.936471 0.218795 0.736395 0.206039
H25   H     H_    0.937177 0.780663 0.736401 0.205689
H26   H     H_    0.063780 0.218440 0.263621 0.206076
H27   H     H_    0.563542 0.281217 0.263605 0.206044
H28   H     H_    0.522239 0.444739 0.924512 0.143292
H29   H     H_    0.437046 0.719326 0.736411 0.205489
H30   H     H_    0.436289 0.281497 0.736380 0.206054
H31   H     H_    0.563187 0.718987 0.263605 0.205818
H32   H     H_    0.263843 0.720657 0.392423 0.160800
H33   H     H_    0.736669 0.279833 0.607563 0.160993
H34   H     H_    0.735943 0.720711 0.607586 0.160190
H35   H     H_    0.263087 0.280192 0.392454 0.160967
H36   H     H_    0.763319 0.220155 0.392438 0.160990
H37   H     H_    0.236135 0.779323 0.607579 0.160808
H38   H     H_    0.236851 0.219864 0.607550 0.160968
H39   H     H_    0.477736 0.555263 0.075474 0.143049
H40   H     H_    0.763721 0.779601 0.392438 0.160187
H41   H     H_    0.355899 0.066665 0.890430 0.341128
H42   H     H_    0.643915 0.933345 0.110254 0.342636
H43   H     H_    0.643979 0.066835 0.109577 0.341270
H44   H     H_    0.356102 0.933158 0.889988 0.341129
H45   H     H_    0.856083 0.566654 0.889751 0.342631
H46   H     H_    0.144101 0.433335 0.109571 0.341131
H47   H     H_    0.143899 0.566842 0.110009 0.341130
H48   H     H_    0.856021 0.433165 0.890423 0.341272
H49   H     H_    0.179232 0.271642 0.847981 0.338530
H50   H     H_    0.977719 0.944618 0.075367 0.143790
H51   H     H_    0.763687 0.673088 0.037481 0.349888
H52   H     H_    0.820818 0.271568 0.152053 0.338540
H53   H     H_    0.179178 0.728449 0.847937 0.338496
H54   H     H_    0.736312 0.826912 0.962518 0.349886
H55   H     H_    0.320768 0.228357 0.152019 0.338531
H56   H     H_    0.320822 0.771551 0.152062 0.338483
H57   H     H_    0.679181 0.228431 0.847947 0.338542
H58   H     H_    0.807831 0.806817 0.117790 0.204329
H59   H     H_    0.763320 0.782813 0.133372 0.214465
H60   H     H_    0.273575 0.170511 0.039664 0.221638
H61   H     H_    0.022212 0.055384 0.924572 0.142987
H62   H     H_    0.303910 0.176935 0.993291 0.204093
H63   H     H_    0.274112 0.829459 0.039873 0.221568
H64   H     H_    0.304439 0.823043 0.993519 0.204133
H65   H     H_    0.725903 0.170537 0.960157 0.221819
H66   H     H_    0.695580 0.176957 0.006514 0.204221
H67   H     H_    0.226426 0.329489 0.960337 0.221639
H68   H     H_    0.196089 0.323065 0.006709 0.204094
H69   H     H_    0.692169 0.693183 0.882209 0.204315
H70   H     H_    0.736679 0.717187 0.866626 0.214575
H71   H     H_    0.774096 0.329463 0.039842 0.221819
H72   H     H_    0.022270 0.944737 0.924531 0.143041
H73   H     H_    0.804420 0.323043 0.993486 0.204221
H74   H     H_    0.225888 0.670541 0.960127 0.221572
H75   H     H_    0.195561 0.676957 0.006481 0.204132
H76   H     H_    0.309866 0.307286 0.116820 0.208687
H77   H     H_    0.370188 0.283664 0.132211 0.203508
H78   H     H_    0.666982 0.772635 0.842800 0.210249
H79   H     H_    0.619497 0.748664 0.853938 0.201450
H80   H     H_    0.690545 0.307325 0.883240 0.208845
H81   H     H_    0.630053 0.283755 0.867829 0.203455
H82   H     H_    0.309441 0.692662 0.116734 0.208724
H83   H     H_    0.977760 0.055261 0.075487 0.143292
H84   H     H_    0.369938 0.716231 0.132157 0.203468
H85   H     H_    0.833017 0.727363 0.157198 0.210210
H86   H     H_    0.880502 0.751336 0.146062 0.201457
H87   H     H_    0.190134 0.192714 0.883179 0.208686
H88   H     H_    0.129812 0.216335 0.867789 0.203506
H89   H     H_    0.190558 0.807338 0.883266 0.208730
H90   H     H_    0.130061 0.783769 0.867842 0.203463
H91   H     H_    0.809455 0.192675 0.116760 0.208844
H92   H     H_    0.869947 0.216245 0.132171 0.203456
H93   H     H_    0.142905 0.784399 0.440586 0.339389
H94   H     H_    0.477689 0.382929 0.075718 0.169219
H95   H     H_    0.856468 0.215019 0.559405 0.339515
H96   H     H_    0.857264 0.784355 0.559401 0.339211
H97   H     H_    0.143816 0.214615 0.440611 0.339511
H98   H     H_    0.643547 0.284996 0.440595 0.339517
H99   H     H_    0.357118 0.715625 0.559413 0.339383
H100  H     H_    0.356265 0.285306 0.559389 0.339511
H101  H     H_    0.643160 0.715219 0.440600 0.339220
H102  H     H_    0.249239 0.706012 0.293161 0.334404
H103  H     H_    0.751536 0.294756 0.706806 0.334443
H104  H     H_    0.750438 0.706131 0.706870 0.331186
N1    N     N_3   0.763706 0.796255 0.095704 -0.409708
N2    N     N_3   0.650121 0.769022 0.873723 -0.444873
N3    N     N_3   0.668598 0.296924 0.905521 -0.415903
N4    N     N_3   0.331391 0.703066 0.094458 -0.416096
N5    N     N_3   0.849878 0.730978 0.126276 -0.444873
N6    N     N_3   0.168259 0.203138 0.905470 -0.415828
N7    N     N_3   0.168608 0.796934 0.905541 -0.416095
N8    N     N_3   0.831402 0.203076 0.094479 -0.415905
N9    N     N_3   0.303294 0.186119 0.034203 -0.448276
N10   N     N_3   0.303735 0.813840 0.034391 -0.448235
N11   N     N_3   0.696279 0.186156 0.965635 -0.448129
N12   N     N_3   0.196706 0.313881 0.965796 -0.448274
N13   N     N_3   0.736294 0.703746 0.904295 -0.409720
N14   N     N_3   0.803721 0.313844 0.034364 -0.448128
N15   N     N_3   0.196265 0.686160 0.965608 -0.448240
N16   N     N_3   0.331741 0.296862 0.094530 -0.415826
O1    O     O_3   0.500000 0.749960 0.000000 -0.505664
O2    O     O_R   0.136890 0.730430 0.039220 -0.620810
O3    O     O_R   0.136890 0.269570 0.039220 -0.621142
O4    O     O_R   0.863110 0.730430 0.960780 -0.636358
O5    O     O_R   0.544080 0.730330 0.149660 -0.663780
O6    O     O_R   0.455920 0.269670 0.850340 -0.665107
O7    O     O_R   0.455920 0.730330 0.850340 -0.665536
O8    O     O_R   0.544080 0.269670 0.149660 -0.665001
O9    O     O_R   0.044080 0.230330 0.149660 -0.665117
O10   O     O_R   0.955920 0.769670 0.850340 -0.663736
O11   O     O_R   0.955920 0.230330 0.850340 -0.664999
O12   O     O_3   0.500000 0.250040 0.000000 -0.505519
O13   O     O_R   0.044080 0.769670 0.149660 -0.665543
O14   O     O_R   0.488890 0.675130 0.039250 -0.640900
O15   O     O_R   0.511110 0.324870 0.960750 -0.639531
O16   O     O_R   0.511110 0.675130 0.960750 -0.635845
O17   O     O_R   0.488890 0.324870 0.039250 -0.639327
O18   O     O_R   0.988890 0.175130 0.039250 -0.639534
O19   O     O_R   0.011110 0.824870 0.960750 -0.640882
O20   O     O_R   0.011110 0.175130 0.960750 -0.639327
O21   O     O_R   0.988890 0.824870 0.039250 -0.635846
O22   O     O_R   0.449630 0.824780 0.960760 -0.647701
O23   O     O_3   0.000000 0.249960 0.000000 -0.505520
O24   O     O_R   0.550370 0.175220 0.039240 -0.647242
O25   O     O_R   0.550370 0.824780 0.039240 -0.641470
O26   O     O_R   0.449630 0.175220 0.960760 -0.647365
O27   O     O_R   0.949630 0.324780 0.960760 -0.647247
O28   O     O_R   0.050370 0.675220 0.039240 -0.647685
O29   O     O_R   0.050370 0.324780 0.039240 -0.647347
O30   O     O_R   0.949630 0.675220 0.960760 -0.641573
O31   O     O_R   0.605560 0.769560 0.149640 -0.572637
O32   O     O_R   0.394440 0.230440 0.850360 -0.565362
O33   O     O_R   0.394440 0.769560 0.850360 -0.565644
O34   O     O_3   0.000000 0.750040 0.000000 -0.505662
O35   O     O_R   0.605560 0.230440 0.149640 -0.565323
O36   O     O_R   0.105560 0.269560 0.149640 -0.565334
O37   O     O_R   0.894440 0.730440 0.850360 -0.572769
O38   O     O_R   0.894440 0.269560 0.850360 -0.565328
O39   O     O_R   0.105560 0.730440 0.149640 -0.565633
O40   O     O_R   0.402350 0.730330 0.039260 -0.646180
O41   O     O_R   0.597650 0.269670 0.960740 -0.646242
O42   O     O_R   0.597650 0.730330 0.960740 -0.630272
O43   O     O_R   0.402350 0.269670 0.039260 -0.645988
O44   O     O_R   0.902350 0.230330 0.039260 -0.646239
O45   O     O_R   0.363110 0.769570 0.960780 -0.620803
O46   O     O_R   0.097650 0.769670 0.960740 -0.646200
O47   O     O_R   0.097650 0.230330 0.960740 -0.645987
O48   O     O_R   0.902350 0.769670 0.039260 -0.630282
O49   O     O_3   0.390545 0.050689 0.916797 -0.729914
O50   O     O_3   0.609294 0.949318 0.083766 -0.728664
O51   O     O_3   0.609327 0.050819 0.083233 -0.729453
O52   O     O_3   0.390715 0.949176 0.916480 -0.729901
O53   O     O_3   0.890706 0.550681 0.916239 -0.728665
O54   O     O_3   0.109454 0.449310 0.083204 -0.729912
O55   O     O_3   0.109286 0.550824 0.083518 -0.729897
O56   O     O_R   0.636890 0.230430 0.039220 -0.620754
O57   O     O_3   0.890673 0.449181 0.916767 -0.729452
O58   O     O_3   0.224419 0.267388 0.875853 -0.738675
O59   O     O_3   0.729208 0.687261 0.031106 -0.749048
O60   O     O_3   0.775601 0.267356 0.124134 -0.738445
O61   O     O_3   0.224397 0.732657 0.875859 -0.738518
O62   O     O_3   0.770792 0.812739 0.968893 -0.749021
O63   O     O_3   0.275581 0.232612 0.124147 -0.738702
O64   O     O_3   0.275603 0.767343 0.124140 -0.738543
O65   O     O_3   0.724399 0.232644 0.875866 -0.738437
O66   O     O_3   0.115203 0.785743 0.391129 -0.754783
O67   O     O_R   0.636890 0.769570 0.039220 -0.636444
O68   O     O_3   0.884154 0.213661 0.608862 -0.753426
O69   O     O_3   0.884983 0.785692 0.608858 -0.754141
O70   O     O_3   0.116139 0.213243 0.391154 -0.753401
O71   O     O_3   0.615861 0.286354 0.391137 -0.753421
O72   O     O_3   0.384821 0.714281 0.608870 -0.754797
O73   O     O_3   0.383943 0.286679 0.608846 -0.753400
O74   O     O_3   0.615453 0.713876 0.391142 -0.754140
O75   O     O_3   0.208814 0.716407 0.259890 -0.720203
O76   O     O_3   0.791778 0.284190 0.740083 -0.720179
O77   O     O_3   0.790940 0.716499 0.740132 -0.737195
O78   O     O_R   0.363110 0.230430 0.960780 -0.621127
O79   O     O_3   0.207926 0.284627 0.259937 -0.720428
O80   O     O_3   0.708207 0.215795 0.259918 -0.720185
O81   O     O_3   0.291161 0.783567 0.740113 -0.720189
O82   O     O_3   0.291997 0.215448 0.740069 -0.720410
O83   O     O_3   0.708649 0.783914 0.259900 -0.737030
O84   O     O_R   0.863110 0.269570 0.960780 -0.620750
Zn1   Zn    Zn3+2 0.571950 0.777980 0.056050 1.012493
Zn2   Zn    Zn3+2 0.515890 0.278080 0.943930 0.981923
Zn3   Zn    Zn3+2 0.515890 0.721920 0.943930 0.991759
Zn4   Zn    Zn3+2 0.484110 0.278080 0.056070 0.981748
Zn5   Zn    Zn3+2 0.984110 0.221920 0.056070 0.981918
Zn6   Zn    Zn3+2 0.015890 0.778080 0.943930 0.980457
Zn7   Zn    Zn3+2 0.015890 0.221920 0.943930 0.981742
Zn8   Zn    Zn3+2 0.984110 0.778080 0.056070 0.991787
Zn9   Zn    Zn3+2 0.428050 0.222020 0.943950 1.021548
Zn10  Zn    Zn3+2 0.428050 0.777980 0.943950 1.022549
Zn11  Zn    Zn3+2 0.571950 0.222020 0.056050 1.021528
Zn12  Zn    Zn3+2 0.071950 0.277980 0.056050 1.021557
Zn13  Zn    Zn3+2 0.928050 0.722020 0.943950 1.012463
Zn14  Zn    Zn3+2 0.928050 0.277980 0.943950 1.021531
Zn15  Zn    Zn3+2 0.071950 0.722020 0.056050 1.022529
Zn16  Zn    Zn3+2 0.484110 0.721920 0.056070 0.980428

loop_
_geom_bond_atom_site_label_1
_geom_bond_atom_site_label_2
_ccdc_geom_bond_type
H41   O49   S    
C7    C168  T    
H46   O54   S    
O12   Zn11  S    
C22   C29   A    
C44   O24   A    
H63   N10   S    
C93   C136  S    
C104  N8    S    
C14   C33   A    
C15   C32   A    
O42   Zn3   S    
C124  C133  A    
C50   C59   A    
H98   O71   S    
C52   C61   A    
C46   C79   S    
C13   N10   S    
C5    C166  T    
C54   C63   A    
O12   Zn4   S    
O38   Zn14  S    
H48   O57   S    
C163  O37   A    
O24   Zn11  S    
O9    Zn5   S    
H52   O60   S    
C19   H8    S    
C121  H31   S    
C131  C140  A    
C134  C143  A    
C144  H36   S    
C113  C122  A    
H97   O70   S    
C70   C74   S    
C114  O84   A    
H81   N3    S    
H99   O72   S    
H82   N4    S    
C91   C100  S    
C117  C126  A    
C88   C97   S    
C119  C128  A    
C4    C153  S    
C137  O81   S    
C78   C101  S    
O30   Zn13  S    
C51   C71   A    
O28   Zn15  S    
C45   O29   A    
C109  C118  A    
C2    N9    S    
H86   N5    S    
C18   H2    S    
C25   C29   A    
C11   C20   A    
C115  C123  A    
C45   C69   S    
C101  N6    S    
H78   N2    S    
C74   C75   T    
C93   C101  S    
H54   O62   S    
C46   C91   S    
O47   Zn7   S    
C51   O52   S    
C58   H15   S    
C142  C151  A    
C37   C38   T    
C52   C72   A    
C10   C30   A    
C118  H27   S    
C53   O54   S    
C87   C103  S    
C52   O53   S    
C21   C28   A    
C164  O38   A    
C103  O43   A    
C8    H1    S    
C62   H20   S    
C162  O36   A    
C16   C25   A    
C8    C17   A    
C48   C70   A    
C22   H11   S    
C136  O3    A    
C99   N4    S    
H92   N8    S    
C20   H9    S    
C83   C91   S    
C42   O19   A    
C35   C78   S    
C33   C38   S    
O5    Zn16  S    
C106  C115  A    
C140  H32   S    
C82   O61   S    
O4    Zn13  S    
C147  O48   A    
C43   C66   S    
O1    Zn10  S    
O29   Zn12  S    
C84   C93   S    
C50   C70   A    
O3    Zn12  S    
C114  O44   A    
C86   C95   S    
O23   Zn12  S    
C126  C134  A    
C49   C71   A    
C13   C85   S    
O19   Zn6   S    
C73   C77   S    
C31   C36   S    
H53   O61   S    
C83   O62   S    
C111  C155  A    
O45   Zn10  S    
H60   N9    S    
C143  H35   S    
O27   Zn14  S    
O1    Zn1   S    
C106  C150  A    
C123  C132  A    
C121  C130  A    
C3    C6    T    
C91   C147  S    
C35   C96   S    
C35   N12   S    
C109  O71   S    
C133  C142  A    
C130  C157  S    
C112  O74   S    
O44   Zn5   S    
C105  C113  A    
O35   Zn11  S    
O20   Zn7   S    
O17   Zn4   S    
C150  C167  S    
C41   O18   A    
C85   C94   S    
C17   H94   S    
C7    C156  S    
C160  O33   A    
C157  O31   A    
H58   N1    S    
C134  O79   S    
C124  C163  S    
C107  C151  A    
C55   O57   S    
C122  C165  S    
C87   C96   S    
C132  O76   S    
C57   C80   S    
C44   C65   S    
C11   H39   S    
C141  C150  A    
O40   Zn16  S    
O13   Zn8   S    
O23   Zn7   S    
C139  C148  A    
C30   C34   S    
C120  C129  A    
C125  O46   A    
C135  O80   S    
H80   N3    S    
C32   C37   S    
C68   C94   S    
C39   O16   A    
H42   O50   S    
H103  O76   S    
C40   O15   A    
C85   C99   S    
C10   H28   S    
C68   N15   S    
C1    O45   A    
C61   C67   A    
C138  O82   S    
C24   N11   S    
C82   C102  S    
C2    C87   S    
C102  N7    S    
C64   C69   A    
H93   O66   S    
H84   N4    S    
C94   C102  S    
H70   N13   S    
H85   N5    S    
C145  C154  A    
H102  O75   S    
H65   N11   S    
H76   N16   S    
C88   C158  S    
C54   O55   S    
C85   O64   S    
C161  O8    A    
C118  C127  A    
C90   C99   S    
O10   Zn6   S    
C158  N1    S    
H96   O69   S    
C94   C125  S    
C132  C141  A    
C81   O41   A    
C29   C41   S    
C47   O28   A    
C108  C117  A    
C6    C155  S    
H101  O74   S    
O1    Zn3   S    
C110  C119  A    
H89   N7    S    
C41   O20   A    
C89   C98   S    
C68   C82   S    
C14   C22   A    
C112  C121  A    
C59   C65   A    
C110  O72   S    
C138  C146  A    
C50   O51   S    
C34   C36   T    
O46   Zn6   S    
C106  O68   S    
C107  C116  A    
O78   Zn9   S    
C55   C73   A    
C9    C18   A    
O84   Zn14  S    
O26   Zn9   S    
O32   Zn9   S    
C112  C156  A    
C51   C60   A    
C13   C102  S    
C24   C86   S    
C140  C149  A    
H75   N15   S    
C78   C87   S    
H57   O65   S    
O23   Zn5   S    
C1    C90   S    
H45   O53   S    
C13   C90   S    
C122  C131  A    
C43   O22   A    
C2    C84   S    
H68   N12   S    
H69   N13   S    
C95   C104  S    
C3    C152  S    
C133  O77   S    
C80   C104  S    
C39   O14   A    
C142  H34   S    
C137  C145  A    
C127  C135  A    
O14   Zn16  S    
C100  N5    S    
C95   C114  S    
C5    C154  S    
H5    O81   S    
C61   H19   S    
C157  O5    A    
C80   C89   S    
C19   C26   A    
C45   O27   A    
C164  O11   A    
H49   O58   S    
C108  C152  A    
C146  C155  A    
C120  H30   S    
C109  C153  A    
C97   N2    S    
O36   Zn12  S    
C72   C76   S    
C81   C89   S    
C60   C66   A    
H7    O83   S    
O18   Zn5   S    
C130  C139  A    
C145  H37   S    
C79   C88   S    
C16   H83   S    
H104  O77   S    
C147  O4    A    
C107  O69   S    
C149  C166  S    
C79   C100  S    
C160  O7    A    
C15   H72   S    
C12   H50   S    
C62   C69   A    
C136  O47   A    
O67   Zn1   S    
C10   C19   A    
O23   Zn14  S    
C23   H12   S    
C162  O9    A    
C103  O78   A    
C115  H24   S    
C21   H10   S    
C46   C97   S    
C42   O21   A    
H6    O82   S    
O34   Zn15  S    
C86   O65   S    
O41   Zn2   S    
C116  C124  A    
C131  O75   S    
C119  H29   S    
C46   N13   S    
C20   C27   A    
H67   N12   S    
C82   C90   S    
C4    C167  T    
C8    C30   A    
O33   Zn10  S    
C108  O70   S    
C105  O66   S    
C123  C164  S    
C83   C158  S    
O7    Zn3   S    
C57   C98   S    
C96   N16   S    
C86   C98   S    
C1    O40   A    
C98   N3    S    
C148  H40   S    
O39   Zn15  S    
C100  C158  S    
O37   Zn13  S    
C83   C97   S    
H47   O55   S    
C148  C156  A    
H64   N10   S    
C151  C168  S    
C84   O63   S    
C49   O50   S    
C80   O60   S    
C159  O6    A    
C146  H38   S    
C24   C89   S    
O22   Zn10  S    
H62   N9    S    
C17   C26   A    
H88   N6    S    
C141  H33   S    
O56   Zn11  S    
C9    H17   S    
H100  O73   S    
O31   Zn1   S    
C56   C65   A    
C84   C96   S    
C144  C153  A    
C14   H61   S    
C117  H26   S    
C58   C66   A    
O15   Zn2   S    
C129  C138  A    
C88   C92   S    
C27   C39   S    
H56   O64   S    
H73   N14   S    
C125  O2    A    
O34   Zn13  S    
C15   C23   A    
C11   C31   A    
C127  C161  S    
C12   C32   A    
H77   N16   S    
H91   N8    S    
C47   C67   S    
C25   H13   S    
O16   Zn3   S    
C35   C93   S    
H51   O59   S    
C113  H23   S    
C63   C67   A    
O12   Zn9   S    
C81   O56   A    
H95   O68   S    
C43   O25   A    
C76   C77   T    
C163  O10   A    
C9    C31   A    
C2    C101  S    
C63   H21   S    
C12   C21   A    
H43   O51   S    
C49   C58   A    
C92   O67   A    
C111  C120  A    
C24   C104  S    
C128  C137  A    
C110  C154  A    
C16   C33   A    
C139  O83   S    
C53   C62   A    
O12   Zn2   S    
C55   C64   A    
C47   O30   A    
O34   Zn6   S    
C92   O42   A    
O8    Zn4   S    
C78   O58   S    
H79   N2    S    
C116  H25   S    
O1    Zn16  S    
C135  C144  A    
C111  O73   S    
H71   N14   S    
O2    Zn15  S    
C23   C28   A    
H59   N1    S    
C40   O17   A    
O11   Zn7   S    
C129  C159  S    
C48   O49   S    
C128  C160  S    
O25   Zn1   S    
O48   Zn8   S    
C48   C56   A    
C143  C152  A    
C60   H18   S    
C53   C73   A    
C18   C27   A    
C44   O26   A    
O21   Zn8   S    
C64   H22   S    
C57   N14   S    
H44   O52   S    
C105  C149  A    
C79   O59   S    
C68   C99   S    
H87   N6    S    
C71   C75   S    
C26   C40   S    
C56   H14   S    
H4    O80   S    
C28   C42   S    
O34   Zn8   S    
C165  O39   A    
C59   H16   S    
H74   N15   S    
O43   Zn4   S    
C165  O13   A    
O6    Zn2   S    
C54   C72   A    
C161  O35   A    
H66   N11   S    
C57   C95   S    
H90   N7    S    
H3    O79   S    
C126  C162  S    
C159  O32   A    
H55   O63   S    
