data_mof_unit_pretest_1417.cif
_audit_creation_date              2012-10-26T18:52:17-0400
_audit_creation_method            fapswitch 2.2
_symmetry_space_group_name_H-M    P1
_symmetry_Int_Tables_number       1
_space_group_crystal_system       triclinic
_cell_length_a                    13.884288
_cell_length_b                    14.84694
_cell_length_c                    14.669831
_cell_angle_alpha                 115.600999
_cell_angle_beta                  107.077598
_cell_angle_gamma                 72.392072
_cell_volume                      2552.23605176

loop_
_atom_site_label
_atom_site_type_symbol
_atom_type_description
_atom_site_fract_x
_atom_site_fract_y
_atom_site_fract_z
_atom_type_partial_charge
C1    C     C_R   0.517602 0.118603 0.688691 0.536805
C2    C     C_R   0.567622 0.495888 0.890608 0.236993
C3    C     C_R   0.569845 0.382603 0.109943 -0.070928
C4    C     C_R   0.553796 0.600153 0.916220 -0.070112
C5    C     C_R   0.299100 0.323858 0.371986 -0.096113
C6    C     C_R   0.700929 0.676270 0.627365 -0.104836
C7    C     C_R   0.338898 0.228656 0.378320 0.351555
C8    C     C_R   0.660889 0.771560 0.621953 0.341675
C9    C     C_R   0.493806 0.282149 0.484712 0.341380
C10   C     C_R   0.507246 0.717541 0.512117 0.360236
C11   C     C_R   0.460887 0.376129 0.468101 0.030217
C12   C     C_R   0.483682 0.881337 0.311491 0.537643
C13   C     C_R   0.539621 0.623519 0.529262 -0.005085
C14   C     C_R   0.358351 0.398045 0.417579 -0.040995
C15   C     C_R   0.641853 0.602086 0.580828 -0.044200
C16   C     C_R   0.686873 0.986793 0.504120 0.542673
C17   C     C_R   0.313126 0.013269 0.495972 0.552655
C18   C     C_R   0.523049 0.450872 0.502544 0.062400
C19   C     C_R   0.477401 0.549124 0.495682 0.027599
C20   C     C_R   0.370593 0.570992 0.459897 -0.129548
C21   C     C_R   0.629819 0.429848 0.539539 -0.088667
C22   C     C_R   0.313633 0.495281 0.416328 -0.131371
C23   C     C_R   0.548810 0.354820 0.930329 -0.034403
C24   C     C_R   0.686607 0.505336 0.582487 -0.151138
C25   C     C_1   0.207532 0.021314 0.494060 0.011225
C26   C     C_1   0.792480 0.979059 0.506451 -0.010222
C27   C     C_2   0.013025 0.034969 0.491286 -0.121933
C28   C     C_2   0.987021 0.965993 0.509965 -0.118047
C29   C     C_1   0.881311 0.972699 0.508248 -0.045129
C30   C     C_1   0.118715 0.027996 0.492643 -0.034134
C31   C     C_R   0.532692 0.185474 0.798672 -0.051813
C32   C     C_R   0.486411 0.812709 0.203523 -0.050989
C33   C     C_R   0.566562 0.211475 0.979920 0.243156
C34   C     C_R   0.522014 0.635570 0.083903 -0.027384
C35   C     C_R   0.516590 0.776388 0.034903 0.243424
C36   C     C_R   0.554071 0.146466 0.875487 -0.122508
C37   C     C_R   0.497625 0.846522 0.132661 -0.121689
C38   C     C_R   0.527198 0.289464 0.826713 -0.116078
C39   C     C_R   0.490514 0.709142 0.175339 -0.119375
C40   C     C_3   0.672375 0.564873 0.283318 0.004302
C41   C     C_3   0.741265 0.484704 0.326723 -0.274381
C42   C     C_3   0.842924 0.515741 0.390710 -0.473408
C43   C     C_3   0.706908 0.388203 0.818632 0.022843
C44   C     C_3   0.774167 0.463004 0.840275 -0.281995
C45   C     C_R   0.561934 0.316138 0.007060 0.033546
C46   C     C_3   0.886541 0.409399 0.837598 -0.479954
C47   C     C_R   0.529983 0.670807 0.011061 0.030818
C48   C     C_R   0.551938 0.459003 0.959201 -0.021908
C49   C     C_R   0.543213 0.528392 0.061778 -0.014130
C50   C     C_R   0.561005 0.486815 0.138372 0.237743
Cu1   Cu    Cu3+1 0.526370 0.916390 0.524860 1.013776
Cu2   Cu    Cu3+1 0.473630 0.083610 0.475140 0.996228
H1    H     H_    0.044912 0.904038 0.526416 0.143430
H2    H     H_    0.502091 0.319388 0.766582 0.223241
H3    H     H_    0.493773 0.926903 0.153955 0.123215
H4    H     H_    0.558613 0.065985 0.854339 0.125745
H5    H     H_    0.232714 0.513976 0.384054 0.114639
H6    H     H_    0.767657 0.486707 0.614447 0.104500
H7    H     H_    0.583889 0.100245 0.024129 0.325818
H8    H     H_    0.514453 0.884523 0.992230 0.325048
H9    H     H_    0.666525 0.640944 0.347231 0.178857
H10   H     H_    0.708281 0.569480 0.227002 0.125172
H11   H     H_    0.700773 0.474876 0.375776 0.188665
H12   H     H_    0.955135 0.096914 0.474807 0.133068
H13   H     H_    0.757554 0.410366 0.262402 0.160557
H14   H     H_    0.885368 0.524792 0.342734 0.151484
H15   H     H_    0.891105 0.455843 0.420462 0.154652
H16   H     H_    0.828799 0.588689 0.457219 0.163434
H17   H     H_    0.723426 0.320205 0.748345 0.184156
H18   H     H_    0.727894 0.360012 0.882487 0.122751
H19   H     H_    0.745789 0.498506 0.781976 0.185865
H20   H     H_    0.769265 0.524525 0.917443 0.156029
H21   H     H_    0.894222 0.349799 0.759981 0.148716
H22   H     H_    0.933250 0.465837 0.855190 0.157320
H23   H     H_    0.221181 0.339413 0.330560 0.133870
H24   H     H_    0.916612 0.373653 0.895831 0.155595
H25   H     H_    0.425590 0.666464 0.377051 0.320485
H26   H     H_    0.632050 0.223708 0.525613 0.314149
H27   H     H_    0.680729 0.909410 0.691769 0.363420
H28   H     H_    0.318627 0.090995 0.308875 0.363739
H29   H     H_    0.778708 0.660752 0.669108 0.135325
H30   H     H_    0.328724 0.646723 0.465412 0.160149
H31   H     H_    0.673184 0.355270 0.534605 0.127335
H32   H     H_    0.581530 0.354376 0.170082 0.184591
H33   H     H_    0.564190 0.625165 0.861038 0.192767
H34   H     H_    0.467605 0.688122 0.226221 0.204085
N1    N     N_R   0.433980 0.209250 0.437830 -0.228516
N2    N     N_R   0.566020 0.790750 0.562170 -0.212641
O1    O     O_R   0.534760 0.019630 0.662610 -0.538189
O2    O     O_3   0.525874 0.808981 0.963256 -0.715331
O3    O     O_3   0.571640 0.545294 0.242652 -0.606355
O4    O     O_3   0.600908 0.432101 0.798940 -0.556784
O5    O     O_3   0.425238 0.732413 0.436670 -0.670994
O6    O     O_3   0.575658 0.271728 0.561290 -0.665638
O7    O     O_3   0.724175 0.840891 0.671732 -0.694585
O8    O     O_3   0.275305 0.159603 0.329307 -0.691139
O9    O     O_R   0.465240 0.980370 0.337390 -0.536790
O10   O     O_R   0.490220 0.160840 0.620610 -0.451817
O11   O     O_R   0.509780 0.839160 0.379390 -0.463278
O12   O     O_R   0.663260 0.919400 0.523940 -0.479237
O13   O     O_R   0.336740 0.080600 0.476060 -0.478116
O14   O     O_R   0.618720 0.060610 0.481950 -0.507624
O15   O     O_R   0.381280 0.939390 0.518050 -0.441153
O16   O     O_3   0.583156 0.174463 0.056240 -0.720103

loop_
_geom_bond_atom_site_label_1
_geom_bond_atom_site_label_2
_ccdc_geom_bond_type
C11   C18   A    
C40   C41   S    
C23   C45   A    
C20   H30   S    
C18   C21   A    
C33   C45   A    
C41   C42   S    
C19   C20   A    
C35   C47   A    
C22   H5    S    
C46   H24   S    
C7    O8    S    
C10   N2    A    
H7    O16   S    
C28   C29   S    
C35   C37   A    
C11   C14   A    
Cu1   O15   S    
C33   O16   S    
Cu2   O9    S    
C1    C31   S    
C33   C36   A    
C40   H10   S    
C44   H19   S    
C18   C19   A    
C32   C39   A    
Cu2   O10   S    
C17   O13   A    
C12   O11   A    
C6    C15   A    
C7    N1    A    
C21   H31   S    
C10   C13   A    
H28   O8    S    
C43   H17   S    
C6    H29   S    
C12   C32   S    
C27   C30   S    
C42   H16   S    
C8    O7    S    
C3    C50   A    
C44   C46   S    
Cu1   O11   S    
Cu2   O13   S    
C13   C19   A    
Cu1   Cu2   S    
C5    C7    A    
C16   O12   A    
C6    C8    A    
C4    H33   S    
C10   O5    S    
C2    C48   A    
C3    C45   A    
C40   H9    S    
C34   C39   A    
C8    N2    A    
C5    H23   S    
C2    C4    A    
C43   C44   S    
H27   O7    S    
C36   H4    S    
C38   H2    S    
Cu2   O14   S    
C12   O9    A    
C32   C37   A    
C2    O4    S    
C9    C11   A    
C5    C14   A    
C16   O14   A    
C48   C49   A    
C20   C22   A    
C43   H18   S    
C13   C15   A    
C42   H15   S    
C41   H11   S    
C46   H22   S    
C25   C30   T    
C15   C24   A    
C34   C49   A    
C1    O1    A    
C23   C48   A    
Cu2   N1    S    
C16   C26   S    
Cu1   N2    S    
C41   H13   S    
C28   H1    S    
H8    O2    S    
C23   C38   A    
C43   O4    S    
C31   C38   A    
Cu1   O12   S    
C17   C25   S    
C14   C22   A    
C17   O15   A    
C1    O10   A    
Cu1   O1    S    
H26   O6    S    
H25   O5    S    
C44   H20   S    
C40   O3    S    
C27   H12   S    
C37   H3    S    
C35   O2    S    
C50   O3    S    
C26   C29   T    
C24   H6    S    
C49   C50   A    
C21   C24   A    
C3    H32   S    
C42   H14   S    
C31   C36   A    
C34   C47   A    
C39   H34   S    
C9    O6    S    
C46   H21   S    
C9    N1    A    
C27   C28   D    
C4    C47   A    
