data_mof_unit_pretest_145.cif
_audit_creation_date              2012-12-10T18:43:11-0500
_audit_creation_method            fapswitch 2.2
_symmetry_space_group_name_H-M    P1
_symmetry_Int_Tables_number       1
_space_group_crystal_system       triclinic
_cell_length_a                    10.673896
_cell_length_b                    9.844766
_cell_length_c                    10.748953
_cell_angle_alpha                 90.025106
_cell_angle_beta                  90.203981
_cell_angle_gamma                 90.627613
_cell_volume                      1129.4465195

loop_
_atom_site_label
_atom_site_type_symbol
_atom_type_description
_atom_site_fract_x
_atom_site_fract_y
_atom_site_fract_z
_atom_type_partial_charge
C1    C     C_R   0.259980 0.498813 0.502245 0.906405
C2    C     C_R   0.933142 0.408021 0.588155 0.166216
C3    C     C_R   0.871946 0.502064 0.511308 -0.080010
C4    C     C_R   0.127252 0.495890 0.506287 -0.085838
C5    C     C_R   0.936649 0.595354 0.437863 -0.247162
C6    C     C_R   0.064611 0.593295 0.436511 -0.244638
C7    C     C_R   0.574511 0.072893 0.580727 -0.074558
C8    C     C_R   0.425597 0.071017 0.419214 -0.090277
C9    C     C_R   0.574598 0.929013 0.580639 -0.077247
C10   C     C_R   0.425392 0.927160 0.419388 -0.067344
C11   C     C_3   0.144776 0.172016 0.598873 -0.734322
C12   C     C_R   0.739737 0.500651 0.503289 0.907615
C13   C     C_3   0.829584 0.392676 0.787181 -0.798215
C14   C     C_R   0.496934 0.499788 0.262559 0.925336
C15   C     C_R   0.501973 0.499881 0.737469 0.936011
C16   C     C_2   0.492952 0.385386 0.932940 -0.167802
C17   C     C_2   0.500554 0.385129 0.066817 -0.165293
C18   C     C_2   0.512573 0.499815 0.869019 -0.338193
C19   C     C_2   0.484177 0.499515 0.131140 -0.330561
C20   C     C_R   0.063309 0.400377 0.581334 0.139698
H1    H     H_    0.472871 0.289242 0.886880 0.172507
H2    H     H_    0.365644 0.871952 0.354986 0.122742
H3    H     H_    0.103063 0.299967 0.746597 0.220999
H4    H     H_    0.055823 0.113017 0.603284 0.206351
H5    H     H_    0.218125 0.115265 0.649882 0.240265
H6    H     H_    0.173169 0.180556 0.499896 0.251441
H7    H     H_    0.896889 0.229098 0.687308 0.224341
H8    H     H_    0.914952 0.416017 0.842990 0.228813
H9    H     H_    0.766882 0.325308 0.842343 0.244843
H10   H     H_    0.779242 0.488458 0.767500 0.237892
H11   H     H_    0.518969 0.288860 0.112443 0.170854
H12   H     H_    0.540430 0.595150 0.911926 0.147945
H13   H     H_    0.457874 0.594877 0.088570 0.147255
H14   H     H_    0.887954 0.667902 0.379812 0.167616
H15   H     H_    0.114849 0.665758 0.378764 0.161124
H16   H     H_    0.634081 0.128144 0.645276 0.138440
H17   H     H_    0.366141 0.124772 0.354573 0.122152
H18   H     H_    0.634306 0.875271 0.645065 0.126421
N1    N     N_R   0.500000 0.857200 0.500000 -0.077778
N2    N     N_R   0.500000 0.142810 0.500000 -0.077176
N3    N     N_2   0.130712 0.304963 0.654901 -0.301617
N4    N     N_2   0.863141 0.325247 0.672650 -0.305021
O1    O     O_R   0.316770 0.614620 0.499990 -0.629190
O2    O     O_R   0.683230 0.614620 0.500010 -0.632542
O3    O     O_R   0.316800 0.385290 0.500000 -0.601745
O4    O     O_R   0.683200 0.385290 0.500000 -0.596280
O5    O     O_R   0.500000 0.614630 0.319080 -0.626991
O6    O     O_R   0.500000 0.614630 0.680920 -0.627784
O7    O     O_R   0.500030 0.385300 0.319080 -0.622558
O8    O     O_R   0.499970 0.385300 0.680920 -0.608220
Zn1   Zn    Zn3+2 0.500000 0.653120 0.500000 0.939935
Zn2   Zn    Zn3+2 0.500000 0.346880 0.500000 0.955143

loop_
_geom_bond_atom_site_label_1
_geom_bond_atom_site_label_2
_ccdc_geom_bond_type
C15   C18   S    
N1    Zn1   S    
C7    N2    A    
C13   H8    S    
C14   O5    A    
C7    H16   S    
C11   H4    S    
O8    Zn2   S    
H3    N3    S    
O7    Zn2   S    
O1    Zn1   S    
C5    H14   S    
C1    C4    S    
C2    C3    A    
C12   O2    A    
C10   H2    S    
H7    N4    S    
C1    O3    A    
C16   H1    S    
C15   O6    A    
C2    N4    S    
C20   N3    S    
O2    Zn1   S    
C4    C6    A    
C9    H18   S    
C17   C19   D    
C11   N3    S    
O6    Zn1   S    
C5    C6    A    
C17   H11   S    
O3    Zn2   S    
C14   O7    A    
C18   H12   S    
C8    H17   S    
C11   H5    S    
C2    C20   A    
C4    C20   A    
O4    Zn2   S    
C13   H10   S    
C9    N1    A    
C6    H15   S    
C16   C18   D    
C19   H13   S    
C15   O8    A    
C13   H9    S    
C7    C9    A    
C13   N4    S    
O5    Zn1   S    
C3    C12   S    
C8    N2    A    
C11   H6    S    
N2    Zn2   S    
C14   C19   S    
C1    O1    A    
C8    C10   A    
C16   C17   S    
C10   N1    A    
C3    C5    A    
C12   O4    A    
