data_mof_unit_pretest_544.cif
_audit_creation_date              2012-12-10T19:50:00-0500
_audit_creation_method            fapswitch 2.2
_symmetry_space_group_name_H-M    P1
_symmetry_Int_Tables_number       1
_space_group_crystal_system       triclinic
_cell_length_a                    14.120626
_cell_length_b                    14.923342
_cell_length_c                    15.446526
_cell_angle_alpha                 90.131676
_cell_angle_beta                  66.033609
_cell_angle_gamma                 90.621033
_cell_volume                      2974.18304688

loop_
_atom_site_label
_atom_site_type_symbol
_atom_type_description
_atom_site_fract_x
_atom_site_fract_y
_atom_site_fract_z
_atom_type_partial_charge
C1    C     C_R   0.498803 0.672204 0.503988 0.880451
C2    C     C_R   0.497833 0.327819 0.503645 0.880517
C3    C     C_R   0.394007 0.435816 0.093140 -0.223773
C4    C     C_R   0.607810 0.561035 0.906086 -0.224074
C5    C     C_R   0.315663 0.438138 0.060357 0.121707
C6    C     C_R   0.686208 0.558469 0.938816 0.121359
C7    C     C_R   0.460124 0.908828 0.461652 -0.176610
C8    C     C_R   0.572564 0.091389 0.458395 -0.173410
C9    C     C_R   0.463640 0.817008 0.455482 -0.227044
C10   C     C_R   0.574339 0.183230 0.452070 -0.230643
C11   C     C_R   0.494732 0.767830 0.515814 -0.098002
C12   C     C_R   0.491613 0.232246 0.515262 -0.089913
C13   C     C_R   0.520035 0.810169 0.586247 0.094636
C14   C     C_R   0.406036 0.189883 0.588512 0.100967
C15   C     C_R   0.518719 0.904270 0.590398 0.185898
C16   C     C_R   0.403816 0.095776 0.593054 0.185681
C17   C     C_R   0.488098 0.951946 0.527893 0.047540
C18   C     C_R   0.487938 0.048183 0.527739 0.046351
C19   C     C_R   0.913829 0.571552 0.460038 -0.257042
C20   C     C_R   0.118553 0.425597 0.466768 -0.258214
C21   C     C_R   0.814312 0.569622 0.459800 -0.003876
C22   C     C_R   0.218366 0.427510 0.466347 0.010098
C23   C     C_R   0.433983 0.503536 0.677731 0.856995
C24   C     C_R   0.566079 0.496161 0.322302 0.893873
C25   C     C_R   0.777768 0.429807 0.538855 0.035440
C26   C     C_R   0.190716 0.573066 0.531923 0.018008
C27   C     C_R   0.877565 0.428017 0.538389 -0.264565
C28   C     C_R   0.091298 0.574720 0.531526 -0.259436
C29   C     C_R   0.947075 0.499906 0.499343 0.137100
C30   C     C_R   0.053387 0.500014 0.499370 0.125700
C31   C     C_R   0.389197 0.512170 0.782438 -0.145918
C32   C     C_R   0.611311 0.486825 0.217644 -0.145062
C33   C     C_R   0.252914 0.500858 0.943508 0.149023
C34   C     C_R   0.748219 0.496806 0.056700 0.147616
C35   C     C_R   0.281362 0.509513 0.843703 0.148665
C36   C     C_R   0.719341 0.489271 0.156699 0.147323
C37   C     C_R   0.461334 0.524347 0.821846 -0.290151
C38   C     C_R   0.539515 0.474129 0.177951 -0.285263
C39   C     C_R   0.434872 0.512260 0.917934 0.057645
C40   C     C_R   0.566482 0.485297 0.081658 0.055117
C41   C     C_R   0.332399 0.484752 0.975715 0.031224
C42   C     C_R   0.669086 0.512441 0.023911 0.030367
C43   C     C_R   0.511636 0.517065 0.954797 0.054121
C44   C     C_R   0.489968 0.480128 0.044557 0.053295
H1    H     H_    0.965151 0.627860 0.428162 0.145329
H2    H     H_    0.093242 0.367058 0.440047 0.157801
H3    H     H_    0.790530 0.624001 0.427254 0.121771
H4    H     H_    0.268811 0.370922 0.438475 0.130635
H5    H     H_    0.724475 0.374727 0.570313 0.141685
H6    H     H_    0.218479 0.630735 0.557521 0.137164
H7    H     H_    0.899677 0.371527 0.569717 0.148042
H8    H     H_    0.043791 0.633500 0.557445 0.157839
H9    H     H_    0.458900 0.465295 0.224571 0.180016
H10   H     H_    0.541788 0.533627 0.775040 0.181893
H11   H     H_    0.380184 0.394783 0.154721 0.170773
H12   H     H_    0.621874 0.601993 0.844427 0.167514
H13   H     H_    0.436892 0.946759 0.413868 0.162709
H14   H     H_    0.636662 0.053522 0.408457 0.161703
H15   H     H_    0.443421 0.784126 0.402544 0.164173
H16   H     H_    0.639850 0.216280 0.396948 0.155310
N1    N     N_R   0.747530 0.500020 0.500000 -0.088527
N2    N     N_R   0.252470 0.499980 0.500000 -0.087483
O1    O     O_R   0.420530 0.630930 0.499990 -0.624629
O2    O     O_R   0.579470 0.369070 0.500010 -0.625529
O3    O     O_R   0.579480 0.630940 0.499990 -0.615964
O4    O     O_R   0.420520 0.369060 0.500010 -0.619108
O5    O     O_R   0.375120 0.499990 0.632240 -0.614004
O6    O     O_R   0.624880 0.500010 0.367760 -0.612566
O7    O     O_R   0.534080 0.500000 0.632240 -0.608907
O8    O     O_R   0.465920 0.500000 0.367760 -0.606091
Zn1   Zn    Zn3+2 0.393860 0.499990 0.500000 0.929924
Zn2   Zn    Zn3+2 0.606140 0.500010 0.500000 0.927534
I1    I     I_    0.191326 0.344820 0.127529 -0.440236
I2    I     I_    0.811438 0.650680 0.870410 -0.437885
C45   C     C_3   0.802039 0.486281 0.196529 -0.370998
C46   C     C_3   0.808268 0.393867 0.237369 -0.800539
H17   H     H_    0.877475 0.391908 0.254341 0.254521
H18   H     H_    0.739333 0.378416 0.302962 0.267835
H19   H     H_    0.814340 0.339773 0.186211 0.252521
H20   H     H_    0.879833 0.503345 0.142120 0.206354
H21   H     H_    0.788802 0.539297 0.250448 0.210383
C47   C     C_3   0.198538 0.514710 0.804316 -0.376457
C48   C     C_3   0.193848 0.608249 0.765196 -0.797603
H22   H     H_    0.125897 0.611638 0.746496 0.249616
H23   H     H_    0.264323 0.624493 0.701194 0.262010
H24   H     H_    0.186492 0.661004 0.818029 0.260798
H25   H     H_    0.211013 0.462762 0.749497 0.215725
H26   H     H_    0.120571 0.497818 0.858502 0.207247
C49   C     C_3   0.142713 0.518681 0.016379 -0.405734
C50   C     C_3   0.106010 0.614001 0.011740 -0.859527
H27   H     H_    0.171337 0.662892 0.992125 0.276619
H28   H     H_    0.068645 0.618403 0.961389 0.265795
H29   H     H_    0.046212 0.633146 0.082149 0.245692
H30   H     H_    0.087362 0.468391 0.010366 0.212834
H31   H     H_    0.138811 0.513523 0.089155 0.240493
C51   C     C_3   0.858517 0.478442 0.984336 -0.404786
C52   C     C_3   0.895240 0.383518 0.990731 -0.859574
H32   H     H_    0.931705 0.380217 0.041834 0.265724
H33   H     H_    0.830100 0.334432 0.010396 0.275199
H34   H     H_    0.955749 0.363766 0.920915 0.247500
H35   H     H_    0.862527 0.482245 0.911429 0.240600
H36   H     H_    0.913808 0.529238 0.989566 0.212354
C53   C     C_3   0.540496 0.756179 0.660225 -0.386012
C54   C     C_3   0.656332 0.746205 0.634761 -0.750772
H37   H     H_    0.696356 0.719296 0.562209 0.256641
H38   H     H_    0.692454 0.811623 0.638319 0.273381
H39   H     H_    0.667859 0.699420 0.685361 0.244398
H40   H     H_    0.502717 0.787827 0.730996 0.232750
H41   H     H_    0.504176 0.688664 0.669531 0.194752
C55   C     C_3   0.322333 0.243908 0.664619 -0.378202
C56   C     C_3   0.225620 0.253004 0.644344 -0.787886
H42   H     H_    0.169865 0.298366 0.697308 0.234503
H43   H     H_    0.246030 0.281249 0.572771 0.259266
H44   H     H_    0.187124 0.187089 0.648424 0.275722
H45   H     H_    0.301110 0.212532 0.735217 0.234355
H46   H     H_    0.351103 0.311826 0.671661 0.195630
I3    I     I_    0.562052 0.976390 0.689404 -0.356513
I4    I     I_    0.275929 0.023512 0.696945 -0.361221

loop_
_geom_bond_atom_site_label_1
_geom_bond_atom_site_label_2
_ccdc_geom_bond_type
C22   H4    S    
C51   H36   S    
C27   C29   A    
C11   C13   A    
C23   O7    A    
C56   H42   S    
C1    C11   S    
C46   H19   S    
C45   C46   S    
C2    C12   S    
C54   H38   S    
C52   H32   S    
C24   O8    A    
C39   C41   A    
C20   C30   A    
C32   C36   A    
C19   C21   A    
C34   C51   S    
C16   I4    S    
C26   H6    S    
C47   H26   S    
C47   H25   S    
C15   C17   A    
C23   O5    A    
C49   H30   S    
C55   C56   S    
C8    H14   S    
C3    H11   S    
O4    Zn1   S    
C27   H7    S    
C7    C17   A    
C34   C42   A    
C1    O3    A    
C53   H40   S    
C32   C38   A    
C13   C53   S    
C45   H20   S    
C21   N1    A    
C40   C42   A    
C51   H35   S    
C4    H12   S    
C1    O1    A    
C54   H37   S    
C52   H33   S    
C35   C47   S    
C2    O2    A    
C6    I2    S    
C3    C44   A    
C46   H17   S    
C4    C6    A    
C45   H21   S    
C39   C43   A    
C3    C5    A    
C8    C18   A    
C31   C37   A    
C9    H15   S    
C23   C31   S    
C49   H31   S    
O7    Zn2   S    
C10   H16   S    
C43   C44   A    
C24   C32   S    
C29   C30   S    
C36   C45   S    
C33   C49   S    
C22   N2    A    
C50   H28   S    
C48   H22   S    
O6    Zn2   S    
C51   C52   S    
C17   C18   S    
C56   H43   S    
C25   N1    A    
C9    C11   A    
O1    Zn1   S    
C10   C12   A    
C37   H10   S    
N1    Zn2   S    
C16   C18   A    
C48   H23   S    
C12   C14   A    
C13   C15   A    
C14   C16   A    
C20   C22   A    
C19   C29   A    
C55   H46   S    
C52   H34   S    
C50   H29   S    
C7    C9    A    
C5    C41   A    
C46   H18   S    
C2    O4    A    
C19   H1    S    
C4    C43   A    
C25   C27   A    
O3    Zn2   S    
C26   C28   A    
C53   H41   S    
C33   C41   A    
C28   C30   A    
C26   N2    A    
C37   C39   A    
C38   C40   A    
C28   H8    S    
C50   H27   S    
C38   H9    S    
C14   C55   S    
C31   C35   A    
C33   C35   A    
C34   C36   A    
N2    Zn1   S    
C56   H44   S    
O5    Zn1   S    
O2    Zn2   S    
C5    I1    S    
C25   H5    S    
O8    Zn1   S    
C24   O6    A    
C15   I3    S    
C40   C44   A    
C48   H24   S    
C8    C10   A    
C47   C48   S    
C6    C42   A    
C53   C54   S    
C49   C50   S    
C55   H45   S    
C7    H13   S    
C54   H39   S    
C20   H2    S    
C21   H3    S    
