data_mof_unit_pretest_520.cif
_audit_creation_date              2013-03-05T16:06:00-0500
_audit_creation_method            fapswitch 2.2
_symmetry_space_group_name_H-M    P1
_symmetry_Int_Tables_number       1
_space_group_crystal_system       triclinic
_cell_length_a                    8.722355
_cell_length_b                    14.948509
_cell_length_c                    17.426847
_cell_angle_alpha                 100.789319
_cell_angle_beta                  98.032332
_cell_angle_gamma                 99.126705
_cell_volume                      2169.90974191

loop_
_atom_site_label
_atom_site_type_symbol
_atom_site_description
_atom_site_fract_x
_atom_site_fract_y
_atom_site_fract_z
_atom_type_partial_charge
P1    P     P_3+3 0.993950 0.412000 0.316970 0.538381
O1    O     O_2   0.823670 0.438410 0.305690 -0.325104
O2    O     O_3   0.097540 0.445020 0.403910 -0.364104
O3    O     O_3   0.626660 0.608370 0.360070 -0.357646
O4    O     O_2   0.692140 0.540002 0.222695 -0.378813
O5    O     O_3   0.961881 0.289501 0.278844 -0.610506
O6    O     O_3   0.599730 0.695252 0.225461 -0.600049
H1    H     H_    0.657721 0.765381 0.345099 0.048430
C1    C     C_3   0.690001 0.861267 0.269775 -0.810163
H2    H     H_    0.679112 0.922228 0.314949 0.243926
H3    H     H_    0.817198 0.859407 0.276749 0.197402
P2    P     P_3+3 0.694070 0.714570 0.569730 0.542395
P3    P     P_3+3 0.118755 0.776207 0.409366 0.558098
O7    O     O_2   0.863840 0.726690 0.546510 -0.278571
O8    O     O_3   0.059500 0.657930 0.401470 -0.366757
O9    O     O_2   0.001079 0.824207 0.453260 -0.367070
O10   O     O_3   0.741345 0.748991 0.673740 -0.499474
O11   O     O_3   0.082746 0.798727 0.313405 -0.513547
C2    C     C_3   0.997717 0.717746 0.259886 0.404052
H4    H     H_    0.882041 0.698444 0.277077 0.130195
H5    H     H_    0.059575 0.658579 0.260116 0.101225
C3    C     C_3   0.972186 0.733267 0.174945 -0.751817
H6    H     H_    0.899923 0.669244 0.135067 0.181711
H7    H     H_    0.906467 0.790232 0.171112 0.229512
C4    C     C_3   0.270981 0.781133 0.697336 0.535292
C5    C     C_3   0.272573 0.870206 0.759326 -0.678841
H8    H     H_    0.340639 0.868293 0.817711 0.239213
H9    H     H_    0.324972 0.933742 0.740620 0.270160
H10   H     H_    0.150713 0.876407 0.766688 0.239562
Ba1   Ba    Ba6+2 0.844370 0.541120 0.463210 1.684477
C6    C     C_3   0.975864 0.233978 0.336302 0.722302
H11   H     H_    0.056083 0.272159 0.391534 0.060327
C7    C     C_3   0.035615 0.143695 0.305303 -0.822264
H12   H     H_    0.007859 0.091871 0.342037 0.222496
H13   H     H_    0.164634 0.156285 0.313444 0.165863
C8    C     C_3   0.796726 0.679709 0.707052 0.213605
H14   H     H_    0.906072 0.667542 0.684721 0.081257
H15   H     H_    0.706279 0.614796 0.690177 0.097936
C9    C     C_3   0.835392 0.709251 0.798974 -0.122694
H16   H     H_    0.922429 0.668321 0.819516 0.025106
P4    P     P_3+3 0.195760 0.588070 0.683040 0.515176
O12   O     O_2   0.366040 0.561620 0.694360 -0.365571
O13   O     O_3   0.092170 0.555060 0.596100 -0.344902
O14   O     O_3   0.563060 0.391710 0.639940 -0.311952
O15   O     O_3   0.212796 0.706454 0.731024 -0.638242
P5    P     P_3+3 0.069752 0.219366 0.581818 0.484994
O16   O     O_3   0.598320 0.387100 0.455790 -0.275040
O17   O     O_3   0.130210 0.342150 0.598540 -0.434862
O18   O     O_2   0.159925 0.173840 0.520108 -0.364764
O19   O     O_3   0.125440 0.174219 0.665524 -0.463107
Ba2   Ba    Ba6+2 0.345470 0.458960 0.536800 1.699126
P6    P     P_3+3 0.567235 0.589688 0.257745 0.514667
C10   C     C_3   0.598040 0.772226 0.286439 0.629555
O20   O     O_3   0.591400 0.612970 0.544220 -0.409679
C11   C     C_3   0.414645 0.254904 0.261710 0.230631
C12   C     C_3   0.371931 0.181083 0.182111 -0.241415
H17   H     H_    0.277506 0.124565 0.187579 0.153564
H18   H     H_    0.323697 0.212818 0.133264 0.077471
P7    P     P_3+3 0.491854 0.269987 0.427901 0.636379
O21   O     O_2   0.325880 0.273340 0.453540 -0.351531
O22   O     O_3   0.458139 0.210341 0.325174 -0.502540
C13   C     C_3   0.181376 0.244650 0.734263 0.288988
H19   H     H_    0.275171 0.297477 0.722899 0.115949
C14   C     C_3   0.254638 0.201020 0.800621 0.034016
H20   H     H_    0.307767 0.256012 0.854424 0.127248
H21   H     H_    0.348818 0.167575 0.780390 0.131466
P8    P     P_3+3 0.620969 0.410355 0.742741 0.544280
C15   C     C_3   0.628833 0.232201 0.733507 0.755853
H22   H     H_    0.732509 0.257875 0.708048 -0.032841
O23   O     O_2   0.512516 0.472195 0.779743 -0.318248
O24   O     O_3   0.565459 0.305731 0.773335 -0.587712
C16   C     C_3   0.681689 0.175138 0.794832 -0.770014
H23   H     H_    0.580712 0.145720 0.820157 0.186226
H24   H     H_    0.764820 0.221096 0.845300 0.272029
C17   C     C_2   0.248872 0.514356 0.274790 -0.182770
C18   C     C_3   0.368181 0.512007 0.218637 0.241144
C19   C     C_2   0.297984 0.527522 0.139871 -0.270870
C20   C     C_2   0.140491 0.506619 0.115289 0.061475
C21   C     C_2   0.036491 0.470325 0.171189 -0.283773
C22   C     C_1   0.099532 0.471734 0.247081 0.114605
C23   C     C_R   0.899411 0.467978 0.860612 0.325642
C24   C     C_R   0.830844 0.465321 0.781935 0.092764
C25   C     C_R   0.087636 0.527796 0.751602 0.315391
C26   C     C_R   0.156554 0.531254 0.830966 -0.295191
C27   C     C_R   0.063682 0.503431 0.886690 -0.020006
C28   C     C_2   0.073239 0.520451 0.034859 -0.115385
C29   C     C_2   0.142777 0.504533 0.969499 -0.070248
C30   C     C_R   0.924305 0.498803 0.730556 -0.526959
H25   H     H_    0.259267 0.486969 0.975393 0.163707
H26   H     H_    0.960283 0.542071 0.029042 0.190649
H27   H     H_    0.376561 0.553784 0.102657 0.174957
H28   H     H_    0.281473 0.558627 0.850210 0.214465
H29   H     H_    0.288587 0.543712 0.337648 0.171530
H30   H     H_    0.867528 0.508894 0.675406 0.209132
C31   C     C_R   0.330400 0.821611 0.459137 0.355553
H31   H     H_    0.371399 0.687856 0.477129 0.184405
H32   H     H_    0.190779 0.955691 0.411736 0.162260
C32   C     C_R   0.582553 0.791684 0.521139 0.221164
C33   C     C_R   0.760358 0.232706 0.519612 -0.452609
C34   C     C_R   0.857765 0.173612 0.542156 0.126986
C35   C     C_R   0.796604 0.079305 0.533209 -0.109226
C36   C     C_R   0.634395 0.042581 0.504467 0.076616
C37   C     C_R   0.538389 0.102659 0.476698 0.037871
C38   C     C_R   0.565027 0.947637 0.499989 0.036852
C39   C     C_R   0.401930 0.915149 0.466407 -0.008973
C40   C     C_R   0.313876 0.976174 0.438059 -0.036687
C41   C     C_R   0.381397 0.066400 0.441303 -0.039952
C42   C     C_R   0.651249 0.884597 0.529077 -0.201760
C43   C     C_R   0.423821 0.760178 0.484353 -0.430281
C44   C     C_R   0.601177 0.197728 0.483661 0.315743
H33   H     H_    0.771265 0.905841 0.559977 0.192186
H34   H     H_    0.878968 0.036727 0.549736 0.178860
H35   H     H_    0.305659 0.106928 0.415714 0.149077
N1    N     N_R   0.822226 0.211388 0.355104 0.176125
O25   O     O_R   0.745895 0.126538 0.345080 -0.408759
O26   O     O_R   0.746756 0.278594 0.358560 -0.436329
C45   C     C_2   0.971360 0.101907 0.219313 0.882767
H36   H     H_    0.977541 0.144297 0.175252 0.004071
O27   O     O_2   0.916099 0.019288 0.197888 -0.561840
C46   C     C_2   0.912692 0.809470 0.829806 0.708632
H37   H     H_    0.027643 0.826678 0.867759 -0.019677
O28   O     O_2   0.845964 0.871898 0.815460 -0.483099
N2    N     N_R   0.696019 0.688374 0.835195 0.261606
O29   O     O_R   0.577507 0.729943 0.823336 -0.354849
O30   O     O_R   0.699649 0.638459 0.888815 -0.367819
N3    N     N_R   0.435393 0.780874 0.291192 0.195525
O31   O     O_R   0.384011 0.856819 0.284954 -0.390123
O32   O     O_R   0.340189 0.711034 0.302835 -0.520893
C47   C     C_2   0.632011 0.873774 0.187774 0.963717
H38   H     H_    0.642283 0.823360 0.136095 -0.020096
O33   O     O_2   0.572619 0.940494 0.178720 -0.447527
C48   C     C_2   0.276210 0.297518 0.270822 0.266215
H39   H     H_    0.185787 0.292344 0.219870 0.001278
O34   O     O_2   0.277125 0.349793 0.333187 -0.508399
C49   C     C_2   0.535946 0.333553 0.255933 0.662449
H40   H     H_    0.605308 0.328583 0.208898 0.003531
O35   O     O_2   0.551409 0.406787 0.303570 -0.505807
N4    N     N_R   0.502191 0.138763 0.157229 0.314336
O36   O     O_R   0.476031 0.078307 0.090400 -0.284783
O37   O     O_R   0.644601 0.163155 0.197453 -0.324921
C50   C     C_2   0.125090 0.755022 0.146150 0.853100
H41   H     H_    0.204941 0.706360 0.144158 -0.010292
O38   O     O_2   0.160597 0.827443 0.124471 -0.512532
C51   C     C_2   0.052676 0.292841 0.759757 0.391697
H42   H     H_    0.986935 0.324598 0.718718 0.018437
O39   O     O_2   0.023799 0.298949 0.826745 -0.582755
N5    N     N_R   0.140575 0.129875 0.820166 0.266748
O40   O     O_R   0.093825 0.049716 0.771382 -0.330940
O41   O     O_R   0.106276 0.140428 0.891211 -0.350301
N6    N     N_R   0.507795 0.174772 0.668401 0.203859
O42   O     O_R   0.440034 0.213904 0.616210 -0.368456
O43   O     O_R   0.460133 0.086440 0.663461 -0.395308
C52   C     C_2   0.759815 0.096643 0.763860 0.814351
H43   H     H_    0.786020 0.048788 0.801340 0.121239
O44   O     O_2   0.794777 0.085557 0.697946 -0.567048
C53   C     C_2   0.878027 0.413669 0.136613 0.735858
H44   H     H_    0.840923 0.348219 0.152997 0.017219
O45   O     O_2   0.785741 0.440381 0.090868 -0.527347
N7    N     N_R   0.805278 0.426908 0.910993 0.247525
O46   O     O_R   0.678580 0.456842 0.926688 -0.305985
O47   O     O_R   0.849552 0.362061 0.944232 -0.358260
C54   C     C_2   0.835442 0.328519 0.524215 0.721718
H45   H     H_    0.921934 0.345156 0.487721 0.034982
O48   O     O_2   0.807807 0.390179 0.572491 -0.599060
C55   C     C_2   0.433739 0.779118 0.682785 0.602516
H46   H     H_    0.461222 0.713104 0.658728 0.040229
O49   O     O_2   0.531867 0.850587 0.694194 -0.548631
N8    N     N_R   0.170913 0.781331 0.623195 0.202675
O50   O     O_R   0.159001 0.713400 0.563059 -0.402659
O51   O     O_R   0.122346 0.856547 0.611449 -0.356961

loop_
_geom_bond_atom_site_label_1
_geom_bond_atom_site_label_2
_geom_bond_distance
_ccdc_geom_bond_type
Ba1   Ba2   4.747962 S    
C7    C45   1.501236 S    
C55   H46   1.074826 S    
C23   N7    1.437112 S    
P4    O12   1.592109 D    
C2    H4    1.102499 S    
C11   C12   1.559746 S    
C23   C24   1.407862 A    
N4    O36   1.300540 A    
C32   C42   1.395754 A    
N2    O29   1.299823 A    
C19   C20   1.348147 D    
C35   H34   1.077058 S    
Ba1   O20   3.011625 S    
P5    O18   1.539611 D    
C5    H8    1.111755 S    
N3    O31   1.302106 A    
P3    O11   1.762402 S    
P3    C31   1.885608 S    
C37   C44   1.415717 A    
C53   H44   1.083249 S    
N5    O41   1.301008 A    
O6    P6    1.766951 S    
O11   C2    1.408721 S    
C50   O38   1.220704 D    
C24   C30   1.399669 A    
N2    O30   1.300456 A    
P8    O24   1.763191 S    
C40   C41   1.370888 A    
C9    C46   1.504865 S    
P4    C25   1.891361 S    
P7    C44   1.865747 S    
C9    N2    1.463383 S    
C12   H17   1.110184 S    
P1    O1    1.591830 D    
C41   H35   1.071482 S    
C13   C14   1.542429 S    
C31   C39   1.412534 A    
C21   C53   1.481757 S    
O17   Ba2   2.821312 S    
N5    O40   1.300607 A    
C15   H22   1.107999 S    
P2    O10   1.759203 S    
C6    C7    1.553616 S    
O4    P6    1.544180 D    
O10   C8    1.395853 S    
C52   O44   1.217612 D    
C1    H2    1.113085 S    
C6    N1    1.427517 S    
P2    C32   1.866276 S    
O12   Ba2   2.850243 S    
P2    Ba1   3.441460 S    
C20   C28   1.506201 S    
N8    O51   1.303293 A    
O5    C6    1.419676 S    
P7    O21   1.579036 D    
C55   O49   1.223243 D    
C32   C43   1.407735 A    
P2    O20   1.584531 S    
P4    O13   1.597331 S    
O7    Ba1   2.846963 S    
C3    H6    1.110584 S    
C38   C39   1.429641 A    
C46   O28   1.221110 D    
N1    O25   1.303539 A    
C54   O48   1.205105 D    
C27   C29   1.506009 S    
C4    N8    1.455431 S    
C30   H30   1.066145 S    
P7    O22   1.805097 S    
P1    O5    1.789685 S    
C35   C36   1.416557 A    
Ba1   O16   2.857791 S    
C49   H40   1.083263 S    
C2    C3    1.532138 S    
C26   C27   1.427018 A    
C51   O39   1.218241 D    
C28   H26   1.082037 S    
C9    H16   1.110075 S    
O2    Ba2   2.891353 S    
C20   C21   1.534581 S    
C48   H39   1.084287 S    
O16   Ba2   3.010789 S    
C4    C55   1.480494 S    
C4    C5    1.546460 S    
C33   C44   1.413365 A    
C8    C9    1.552995 S    
P1    O2    1.597338 S    
C14   H21   1.092846 S    
O2    Ba1   3.015995 S    
C17   C18   1.524832 S    
C13   H19   1.109511 S    
C33   C54   1.459954 S    
C12   N4    1.463595 S    
N7    O46   1.300693 A    
P3    O8    1.735295 S    
C15   C16   1.552645 S    
N7    O47   1.300312 A    
C7    H12   1.112660 S    
C18   C19   1.497406 S    
C36   C38   1.435077 A    
C1    H3    1.104447 S    
H31   C43   1.081606 S    
N4    O37   1.297902 A    
C5    H10   1.104420 S    
C48   O34   1.212242 D    
H32   C40   1.078191 S    
O14   Ba2   2.858622 S    
C16   H24   1.099446 S    
N8    O50   1.295343 A    
O3    P6    1.742347 S    
C29   H25   1.085092 S    
C14   N5    1.459981 S    
C31   C43   1.410253 A    
O19   C13   1.408190 S    
N6    O43   1.302714 A    
Ba1   O13   2.890646 S    
C25   C26   1.417002 A    
C1    C10   1.539642 S    
O6    C10   1.416133 S    
C8    H15   1.111722 S    
C4    O15   1.413285 S    
C38   C42   1.416936 A    
C46   H37   1.085390 S    
C17   H29   1.085480 S    
O8    Ba1   2.820607 S    
C37   C41   1.397381 A    
C47   H38   1.084851 S    
C17   C22   1.334770 D    
C49   O35   1.219594 D    
P5    C34   1.851779 S    
C19   H27   1.085639 S    
N3    O32   1.293085 A    
C16   C52   1.500604 S    
C2    H5    1.107018 S    
C28   C29   1.363536 D    
C6    H11   1.105082 S    
C13   C51   1.500866 S    
C16   H23   1.105583 S    
P6    C18   1.886998 S    
H1    C10   1.110767 S    
N1    O26   1.282370 A    
C42   H33   1.076860 S    
C1    C47   1.503645 S    
C54   H45   1.081326 S    
C39   C40   1.396794 A    
P5    O19   1.758941 S    
C5    H9    1.112233 S    
C33   C34   1.389704 A    
O1    Ba1   2.849732 S    
C51   H42   1.079133 S    
Ba2   O20   2.857045 S    
C14   H20   1.113004 S    
P8    O23   1.545933 D    
C45   O27   1.218716 D    
P2    O7    1.580858 D    
C45   H36   1.084856 S    
O13   Ba2   3.016964 S    
C15   O24   1.417670 S    
C11   C49   1.480288 S    
C11   O22   1.431659 S    
C3    C50   1.498935 S    
C53   O45   1.218493 D    
P1    Ba1   3.436424 S    
C7    H13   1.095511 S    
C12   H18   1.114054 S    
C25   C30   1.396606 A    
C3    H7    1.106169 S    
C36   C37   1.424783 A    
C23   C27   1.423850 A    
C15   N6    1.466938 S    
C10   N3    1.457120 S    
O16   P7    1.789690 S    
C21   C22   1.354476 D    
P5    O17   1.783703 S    
P8    C24   1.859041 S    
C8    H14   1.107446 S    
C11   C48   1.465854 S    
P3    O9    1.549539 D    
P1    C22   1.894359 S    
P4    O15   1.783489 S    
N6    O42   1.295150 A    
O14   P8    1.748644 S    
C34   C35   1.397193 A    
Ba2   O21   2.847217 S    
C26   H28   1.082673 S    
C52   H43   1.084299 S    
C50   H41   1.083266 S    
P4    Ba2   3.437000 S    
O3    Ba1   2.859282 S    
C47   O33   1.219830 D    
