data_mof_unit_pretest_959.cif
_audit_creation_date              2013-03-05T16:43:52-0500
_audit_creation_method            fapswitch 2.2
_symmetry_space_group_name_H-M    P1
_symmetry_Int_Tables_number       1
_space_group_crystal_system       triclinic
_cell_length_a                    9.857196
_cell_length_b                    10.704786
_cell_length_c                    16.545057
_cell_angle_alpha                 89.756529
_cell_angle_beta                  85.087987
_cell_angle_gamma                 89.523246
_cell_volume                      1739.3378057

loop_
_atom_site_label
_atom_site_type_symbol
_atom_site_description
_atom_site_fract_x
_atom_site_fract_y
_atom_site_fract_z
_atom_type_partial_charge
O1    O     O_R   0.385310 0.683210 0.499990 -0.613202
O2    O     O_R   0.614650 0.683240 0.500000 -0.623472
C1    C     C_R   0.499601 0.739668 0.500344 0.905128
O3    O     O_R   0.371780 0.500000 0.615800 -0.617072
O4    O     O_R   0.601120 0.500040 0.615800 -0.612328
C2    C     C_R   0.480671 0.506376 0.653442 0.840369
Zn1   Zn    Zn3+2 0.346870 0.499980 0.499990 0.945634
Zn2   Zn    Zn3+2 0.653130 0.500020 0.500010 0.946047
O5    O     O_R   0.385350 0.316760 0.500000 -0.612793
O6    O     O_R   0.614690 0.316790 0.500010 -0.581770
O7    O     O_R   0.398880 0.499960 0.384200 -0.616219
O8    O     O_R   0.628220 0.500000 0.384200 -0.627351
C3    C     C_R   0.500871 0.260154 0.501633 0.906466
C4    C     C_R   0.519036 0.501263 0.346142 0.858101
C5    C     C_R   0.466177 0.550664 0.736536 -0.015338
C6    C     C_R   0.554737 0.643238 0.759573 -0.199905
C7    C     C_R   0.536531 0.695011 0.836422 -0.190488
C8    C     C_R   0.429197 0.654766 0.890848 0.118694
C9    C     C_R   0.335935 0.567298 0.866461 -0.181459
C10   C     C_R   0.353865 0.515905 0.789133 -0.206352
C11   C     C_R   0.420444 0.538037 0.134604 -0.108065
C12   C     C_R   0.417410 0.500823 0.215027 -0.232666
C13   C     C_R   0.649228 0.573594 0.220220 -0.203032
C14   C     C_R   0.651706 0.611718 0.139677 -0.197886
C15   C     C_R   0.535644 0.598319 0.097663 0.204808
C16   C     C_2   0.432006 0.680996 0.977292 0.171454
C17   C     C_2   0.540705 0.635953 0.012542 -0.273356
C18   C     C_R   0.530563 0.521095 0.258794 -0.034383
H1    H     H_    0.325892 0.458195 0.243330 0.145445
H2    H     H_    0.737889 0.589776 0.253049 0.152047
H3    H     H_    0.631985 0.607934 0.975139 0.132731
H4    H     H_    0.253983 0.533857 0.908630 0.123029
H5    H     H_    0.332914 0.519284 0.101379 0.142815
H6    H     H_    0.282032 0.447619 0.770896 0.136433
C19   C     C_R   0.406216 0.938005 0.458429 0.080934
C20   C     C_R   0.502236 0.871244 0.498100 -0.128244
C21   C     C_R   0.610803 0.932172 0.529808 -0.291046
H7    H     H_    0.689325 0.880185 0.557837 0.161155
C22   C     C_R   0.614552 0.061229 0.530190 0.205211
C23   C     C_R   0.506183 0.128090 0.498994 -0.204259
C24   C     C_R   0.408287 0.065648 0.459198 0.081336
C25   C     C_3   0.255701 0.074924 0.468750 0.048574
C26   C     C_3   0.253925 0.932761 0.467002 -0.529091
H8    H     H_    0.215184 0.114568 0.528128 0.131365
H9    H     H_    0.213345 0.891108 0.525695 0.182136
H10   H     H_    0.212233 0.892219 0.412661 0.211389
C27   C     C_R   0.918778 0.515273 0.570640 0.242786
N1    N     N_R   0.857140 0.500860 0.500530 -0.101230
C28   C     C_R   0.938058 0.472368 0.431649 -0.155736
H11   H     H_    0.892183 0.451969 0.376184 0.147481
C29   C     C_R   0.081974 0.472158 0.431675 -0.118411
H12   H     H_    0.143887 0.451347 0.376204 0.155460
N2    N     N_R   0.142780 0.500820 0.500530 -0.105282
C30   C     C_R   0.061280 0.515531 0.570536 0.206620
C31   C     C_3   0.059078 0.625511 0.625352 -0.503313
C32   C     C_3   0.904989 0.625137 0.625943 -0.535523
H13   H     H_    0.095921 0.601454 0.685177 0.204480
H14   H     H_    0.106950 0.709122 0.595297 0.209813
H15   H     H_    0.636372 0.677271 0.717636 0.139603
H16   H     H_    0.742815 0.654134 0.110679 0.131463
N3    N     N_2   0.719006 0.121996 0.569188 -0.278464
H17   H     H_    0.730869 0.086734 0.626311 0.210603
C33   C     C_3   0.847753 0.129420 0.520386 -0.753496
H18   H     H_    0.892552 0.034554 0.510188 0.216220
H19   H     H_    0.919719 0.186817 0.552277 0.225019
H20   H     H_    0.833929 0.174238 0.460911 0.253543
N4    N     N_2   0.194686 0.133924 0.400705 -0.277327
H21   H     H_    0.091228 0.119946 0.401700 0.224838
C34   C     C_3   0.264746 0.128317 0.320018 -0.751964
H22   H     H_    0.203641 0.178707 0.276682 0.216177
H23   H     H_    0.278593 0.029899 0.299868 0.234049
H24   H     H_    0.365097 0.174958 0.318970 0.242111
H25   H     H_    0.854494 0.599901 0.686282 0.199549
H26   H     H_    0.862683 0.709070 0.596916 0.207361
N5    N     N_2   0.312403 0.726253 0.023299 -0.309225
H27   H     H_    0.227093 0.730040 0.991322 0.215804
C35   C     C_3   0.330612 0.840379 0.067588 -0.773828
H28   H     H_    0.233892 0.865462 0.103446 0.229750
H29   H     H_    0.358963 0.917902 0.024663 0.232073
H30   H     H_    0.410668 0.828486 0.110353 0.257471
H31   H     H_    0.609121 0.762502 0.854798 0.130006

loop_
_geom_bond_atom_site_label_1
_geom_bond_atom_site_label_2
_geom_bond_distance
_ccdc_geom_bond_type
C29   N2    1.368991 A    
C31   C32   1.518124 S    
C33   H19   1.110519 S    
C12   H1    1.083510 S    
C24   C25   1.501339 S    
C9    C10   1.391549 A    
C8    C16   1.461323 S    
N2    C30   1.360825 A    
Zn1   O7    1.940295 S    
C16   C17   1.347852 D    
C20   C21   1.398754 A    
O1    C1    1.283357 A    
O4    C2    1.294031 A    
O7    C4    1.293045 A    
C11   H5    1.082570 S    
C5    C6    1.401416 A    
C34   H23   1.110195 S    
C8    C9    1.402027 A    
N3    C33   1.447238 S    
O5    C3    1.287721 A    
C3    C23   1.414967 S    
C2    C5    1.451216 S    
C19   C20   1.388723 A    
C6    C7    1.386090 A    
C28   C29   1.418631 A    
C13   C14   1.390300 A    
C19   C26   1.497213 S    
C14   H16   1.083534 S    
C10   H6    1.083433 S    
C33   H20   1.111256 S    
C12   C18   1.399715 A    
C11   C12   1.385277 A    
C34   H22   1.110461 S    
C25   H8    1.112775 S    
O3    Zn1   1.952494 S    
C9    H4    1.083348 S    
C16   N5    1.429679 S    
C35   H29   1.111765 S    
C5    C10   1.400166 A    
C22   N3    1.424109 S    
C32   H26   1.111853 S    
C17   H3    1.088228 S    
C29   H12   1.080721 S    
C13   H2    1.083244 S    
C14   C15   1.397266 A    
O3    C2    1.288667 A    
C22   C23   1.413615 A    
C35   H28   1.110508 S    
N4    H21   1.030691 S    
N4    C34   1.450781 S    
C6    H15   1.081114 S    
C34   H24   1.110522 S    
N5    H27   1.031570 S    
Zn2   N1    2.011817 S    
C21   H7    1.084411 S    
N5    C35   1.447580 S    
C27   N1    1.364658 A    
Zn2   O8    1.952494 S    
C7    C8    1.398926 A    
C13   C18   1.404064 A    
C26   H9    1.111120 S    
C27   C30   1.404543 A    
C23   C24   1.390972 A    
O8    C4    1.292565 A    
C31   H13   1.111651 S    
C25   N4    1.460011 S    
C25   C26   1.522496 S    
Zn1   N2    2.010955 S    
C35   H30   1.110288 S    
Zn1   O5    1.994572 S    
C11   C15   1.403363 A    
C30   C31   1.488057 S    
N1    C28   1.367940 A    
C32   H25   1.110044 S    
O1    Zn1   2.000795 S    
O2    Zn2   1.994571 S    
O6    C3    1.277909 A    
O4    Zn2   1.940295 S    
C15   C17   1.460023 S    
O2    C1    1.280045 A    
C21   C22   1.382388 A    
C1    C20   1.409223 S    
C7    H31   1.083571 S    
N3    H17   1.031757 S    
C19   C24   1.366840 A    
C26   H10   1.111370 S    
C33   H18   1.111742 S    
Zn2   O6    2.000796 S    
C28   H11   1.081050 S    
C31   H14   1.110898 S    
C4    C18   1.454707 S    
C27   C32   1.491307 S    
