data_mof_unit_pretest_1867.cif
_audit_creation_date              2013-03-05T16:59:11-0500
_audit_creation_method            fapswitch 2.2
_symmetry_space_group_name_H-M    P1
_symmetry_Int_Tables_number       1
_space_group_crystal_system       triclinic
_cell_length_a                    16.789907
_cell_length_b                    16.807984
_cell_length_c                    17.501837
_cell_angle_alpha                 88.868751
_cell_angle_beta                  90.750168
_cell_angle_gamma                 93.959121
_cell_volume                      4926.00910857

loop_
_atom_site_label
_atom_site_type_symbol
_atom_site_description
_atom_site_fract_x
_atom_site_fract_y
_atom_site_fract_z
_atom_type_partial_charge
O1    O     O_R   0.433430 0.500000 0.610870 -0.611088
O2    O     O_R   0.566570 0.500000 0.389130 -0.599808
O3    O     O_R   0.566520 0.499990 0.610900 -0.542224
O4    O     O_R   0.433480 0.500010 0.389100 -0.582504
C1    C     C_R   0.500659 0.504884 0.646863 0.965605
C2    C     C_R   0.499582 0.501591 0.353564 1.011533
O5    O     O_R   0.426030 0.383870 0.500690 -0.593225
O6    O     O_R   0.573970 0.616130 0.499310 -0.599891
O7    O     O_R   0.559120 0.383870 0.500710 -0.603320
O8    O     O_R   0.440880 0.616130 0.499290 -0.583003
C3    C     C_R   0.489893 0.346309 0.501974 0.989049
C4    C     C_R   0.510259 0.653747 0.499770 0.989920
Zn1   Zn    Zn3+2 0.411140 0.500000 0.499980 1.089569
Zn2   Zn    Zn3+2 0.588860 0.500000 0.500020 1.095198
C5    C     C_R   0.483745 0.260269 0.494537 -0.142143
C6    C     C_R   0.517039 0.740156 0.491547 -0.135835
C7    C     C_R   0.543609 0.226256 0.453725 -0.114341
C8    C     C_R   0.455287 0.776537 0.452908 -0.163736
C9    C     C_R   0.537361 0.145895 0.438371 -0.118339
C10   C     C_R   0.462015 0.857288 0.436525 -0.114187
C11   C     C_R   0.471143 0.097910 0.464498 0.258228
C12   C     C_R   0.530521 0.903465 0.459824 0.263499
C13   C     C_R   0.410109 0.131720 0.503112 -0.205318
C14   C     C_R   0.593463 0.867456 0.496103 -0.201078
C15   C     C_R   0.416290 0.212630 0.520295 0.283967
C16   C     C_R   0.586936 0.786077 0.514233 0.285018
N1    N     N_2   0.467406 0.014354 0.459781 -0.161551
N2    N     N_2   0.534349 0.987218 0.455791 -0.159790
H1    H     H_    0.401758 0.742560 0.434547 0.228293
H2    H     H_    0.594733 0.262235 0.432060 0.213533
H3    H     H_    0.413009 0.884054 0.407223 0.179942
H4    H     H_    0.584705 0.121075 0.407027 0.179326
H5    H     H_    0.360063 0.093677 0.524095 0.195944
H6    H     H_    0.645316 0.904109 0.515095 0.196200
C17   C     C_R   0.456586 0.450792 0.150205 -0.170449
C18   C     C_R   0.551502 0.497241 0.857297 -0.184374
C19   C     C_R   0.468361 0.441159 0.228626 0.279270
C20   C     C_R   0.560944 0.493257 0.778644 0.284764
C21   C     C_R   0.497717 0.507707 0.271251 -0.254221
C22   C     C_R   0.500583 0.520329 0.729187 -0.275438
C23   C     C_R   0.513662 0.583242 0.235429 0.283341
C24   C     C_R   0.435710 0.558736 0.760425 0.284975
C25   C     C_R   0.501320 0.590816 0.156875 -0.169006
C26   C     C_R   0.427837 0.561388 0.839344 -0.180001
C27   C     C_R   0.473790 0.524804 0.115055 0.011110
C28   C     C_R   0.484846 0.529842 0.886836 0.010875
C29   C     C_1   0.472585 0.530206 0.034560 0.030849
C30   C     C_1   0.476225 0.531578 0.966811 0.035353
C31   C     C_R   0.167728 0.474322 0.566960 -0.194780
C32   C     C_R   0.835218 0.570732 0.473804 -0.209538
H7    H     H_    0.137069 0.453532 0.618404 0.180728
H8    H     H_    0.867952 0.624447 0.453074 0.180120
C33   C     C_R   0.251801 0.473446 0.563690 0.050316
C34   C     C_R   0.750756 0.566560 0.473650 0.032604
H9    H     H_    0.284102 0.451638 0.612743 0.189918
H10   H     H_    0.720218 0.617236 0.452495 0.196114
N3    N     N_R   0.292770 0.500020 0.499970 -0.156405
N4    N     N_R   0.707230 0.499980 0.500030 -0.154835
C35   C     C_R   0.250666 0.526833 0.437586 0.441263
C36   C     C_R   0.747084 0.435598 0.526396 0.449628
C37   C     C_R   0.166750 0.527361 0.438848 -0.275472
C38   C     C_R   0.831198 0.437776 0.526200 -0.255052
H11   H     H_    0.135004 0.549080 0.389183 0.189340
H12   H     H_    0.861247 0.386624 0.547516 0.194813
C39   C     C_R   0.124261 0.502049 0.503913 0.068590
C40   C     C_R   0.876377 0.505633 0.500730 0.067639
C41   C     C_1   0.036872 0.504737 0.504414 0.034863
C42   C     C_1   0.964069 0.506643 0.502700 0.033275
N5    N     N_R   0.290676 0.555991 0.370152 0.215526
O9    O     O_R   0.335432 0.622113 0.372302 -0.389788
O10   O     O_R   0.268379 0.527428 0.304102 -0.363032
N6    N     N_R   0.704832 0.365074 0.555737 0.209796
O11   O     O_R   0.724493 0.295541 0.534043 -0.398099
O12   O     O_R   0.661138 0.369013 0.616034 -0.289682
N7    N     N_R   0.356303 0.244048 0.566821 0.220062
O13   O     O_R   0.377018 0.291116 0.622911 -0.381025
O14   O     O_R   0.282265 0.216149 0.560986 -0.348745
N8    N     N_R   0.649121 0.752512 0.559095 0.214969
O15   O     O_R   0.723235 0.778312 0.549389 -0.358333
O16   O     O_R   0.631113 0.705915 0.617524 -0.341034
H13   H     H_    0.436586 0.399941 0.116047 0.193703
H14   H     H_    0.596703 0.475299 0.895586 0.189009
N9    N     N_R   0.451356 0.363787 0.263719 0.216993
O17   O     O_R   0.396829 0.314150 0.234554 -0.334088
O18   O     O_R   0.496500 0.338877 0.318874 -0.436804
N10   N     N_R   0.632243 0.462397 0.750857 0.242475
O19   O     O_R   0.655297 0.395536 0.779296 -0.315568
O20   O     O_R   0.684006 0.510293 0.715071 -0.305394
N11   N     N_R   0.540405 0.652767 0.277826 0.205205
O21   O     O_R   0.515888 0.722136 0.258203 -0.351551
O22   O     O_R   0.597554 0.649344 0.328406 -0.406935
N12   N     N_R   0.379605 0.598560 0.713146 0.221264
O23   O     O_R   0.304396 0.594624 0.730913 -0.373109
O24   O     O_R   0.405322 0.649707 0.660800 -0.366724
H15   H     H_    0.515266 0.647663 0.128027 0.192013
H16   H     H_    0.378022 0.589453 0.863725 0.195273

loop_
_geom_bond_atom_site_label_1
_geom_bond_atom_site_label_2
_geom_bond_distance
_ccdc_geom_bond_type
C23   N11   1.439044 S    
C40   C42   1.471214 S    
O7    Zn2   1.980929 S    
C17   H13   1.084404 S    
C21   C23   1.415136 A    
O5    C3    1.281046 A    
C16   N8    1.437797 S    
C31   C39   1.404620 A    
C20   N10   1.431644 S    
O1    C1    1.283868 A    
C9    C11   1.403784 A    
C14   C16   1.395246 A    
N8    O16   1.301664 A    
C5    C15   1.414564 A    
Zn1   N3    1.987442 S    
C36   N6    1.428787 S    
N4    C36   1.379810 A    
C13   H5    1.083699 S    
C36   C38   1.410253 A    
C27   C29   1.409919 S    
O4    Zn1   1.981331 S    
N5    O10   1.301049 A    
C38   H12   1.084082 S    
C3    C5    1.451008 S    
N9    O17   1.301492 A    
C18   H14   1.084731 S    
C31   H7    1.082873 S    
C25   H15   1.084357 S    
C18   C28   1.389617 A    
N11   O22   1.300407 A    
C24   N12   1.436975 S    
C22   C24   1.424303 A    
C11   N1    1.405483 S    
C12   N2    1.405176 S    
C7    H2    1.083548 S    
C23   C25   1.392343 A    
O2    C2    1.279978 A    
C24   C26   1.391153 A    
C9    H4    1.083099 S    
C26   C28   1.385658 A    
C28   C30   1.410140 S    
C33   H9    1.080911 S    
C6    C16   1.416141 A    
Zn2   N4    1.987442 S    
C34   H10   1.080914 S    
C35   C37   1.410040 A    
C38   C40   1.394369 A    
N10   O20   1.301302 A    
C41   C42   1.224950 T    
C4    C6    1.453402 S    
N6    O12   1.298468 A    
C33   N3    1.369066 A    
N8    O15   1.301334 A    
C39   C41   1.471217 S    
C14   H6    1.083698 S    
C15   N7    1.438126 S    
N7    O13   1.301647 A    
C26   H16   1.084406 S    
O7    C3    1.284068 A    
C32   H8    1.082863 S    
C29   C30   1.187790 T    
O6    C4    1.279813 A    
N12   O24   1.301086 A    
C8    H1    1.079802 S    
C32   C34   1.414959 A    
N7    O14   1.301406 A    
O3    Zn2   1.981330 S    
O8    C4    1.286466 A    
C35   N5    1.427176 S    
O4    C2    1.277743 A    
N9    O18   1.300134 A    
C10   C12   1.403066 A    
C11   C13   1.394099 A    
C12   C14   1.393506 A    
O1    Zn1   1.971718 S    
C17   C27   1.390768 A    
C34   N4    1.369327 A    
C5    C7    1.400557 A    
O6    Zn2   1.984681 S    
C17   C19   1.391992 A    
N10   O19   1.301322 A    
C37   H11   1.084045 S    
N6    O11   1.301194 A    
O3    C1    1.287852 A    
O8    Zn1   1.980926 S    
C32   C40   1.404426 A    
C6    C8    1.399658 A    
C18   C20   1.391175 A    
C25   C27   1.390259 A    
C20   C22   1.417220 A    
C31   C33   1.414592 A    
N12   O23   1.301365 A    
C7    C9    1.379003 A    
C8    C10   1.378928 A    
C13   C15   1.395152 A    
N5    O9    1.298778 A    
O2    Zn2   1.971716 S    
N3    C35   1.378156 A    
C37   C39   1.395307 A    
O5    Zn1   1.984681 S    
C19   C21   1.413433 A    
C1    C22   1.469085 S    
N1    N2    1.245112 D    
C2    C21   1.442356 S    
C19   N9    1.439346 S    
N11   O21   1.301387 A    
C10   H3    1.083213 S    
