data_mof_unit_pretest_461.cif
_audit_creation_date              2012-10-26T19:42:16-0400
_audit_creation_method            fapswitch 2.2
_symmetry_space_group_name_H-M    P1
_symmetry_Int_Tables_number       1
_space_group_crystal_system       triclinic
_cell_length_a                    9.596718
_cell_length_b                    10.862044
_cell_length_c                    17.365331
_cell_angle_alpha                 92.96763
_cell_angle_beta                  86.736011
_cell_angle_gamma                 90.873177
_cell_volume                      1804.66444784

loop_
_atom_site_label
_atom_site_type_symbol
_atom_type_description
_atom_site_fract_x
_atom_site_fract_y
_atom_site_fract_z
_atom_type_partial_charge
C1    C     C_R   0.500892 0.736890 0.494225 0.547121
C2    C     C_R   0.522569 0.507292 0.266714 0.022598
C3    C     C_R   0.257013 0.874109 0.444686 -0.123999
C4    C     C_R   0.482580 0.497506 0.649535 0.578292
C5    C     C_R   0.126338 0.928152 0.453475 -0.094098
C6    C     C_R   0.110932 0.042613 0.492656 0.112344
C7    C     C_R   0.229859 0.108420 0.515168 -0.072864
C8    C     C_R   0.364915 0.058937 0.499964 0.004156
C9    C     C_R   0.374616 0.933244 0.476481 0.016847
C10   C     C_R   0.500002 0.870800 0.488027 -0.005739
C11   C     C_R   0.620138 0.938516 0.505827 -0.156634
C12   C     C_R   0.361071 0.435034 0.772976 0.243376
C13   C     C_R   0.616158 0.065785 0.513372 -0.160116
C14   C     C_R   0.490704 0.127895 0.508976 -0.005061
C15   C     C_R   0.864737 0.338251 0.395159 -0.060019
C16   C     C_R   0.497425 0.262564 0.504715 0.544521
C17   C     C_R   0.940936 0.260819 0.342505 0.061409
C18   C     C_R   0.085356 0.261096 0.343407 -0.154975
C19   C     C_R   0.152608 0.338086 0.396066 -0.122495
C20   C     C_R   0.078893 0.420173 0.448881 0.131022
C21   C     C_R   0.929457 0.420290 0.448676 0.119836
C22   C     C_R   0.922459 0.576889 0.548164 -0.013931
C23   C     C_R   0.403106 0.488619 0.147795 -0.110964
C24   C     C_R   0.070408 0.577219 0.547910 -0.013642
C25   C     C_R   0.517194 0.500413 0.350415 0.532272
C26   C     C_R   0.476020 0.490306 0.733444 -0.022562
C27   C     C_R   0.590494 0.533826 0.773953 -0.156038
C28   C     C_R   0.592698 0.522675 0.853197 0.264353
C29   C     C_R   0.474431 0.473885 0.893758 -0.007687
C30   C     C_R   0.361967 0.426586 0.853082 -0.147538
C31   C     C_3   0.133204 0.439938 0.742475 0.002249
C32   C     C_3   0.022250 0.372817 0.696467 -0.360378
C33   C     C_3   0.796370 0.458453 0.897145 -0.009713
C34   C     C_R   0.403873 0.473903 0.226533 -0.129843
C35   C     C_3   0.921100 0.498313 0.943080 -0.378057
C36   C     C_R   0.641024 0.555142 0.227101 -0.119169
C37   C     C_R   0.639483 0.571413 0.148137 -0.112860
C38   C     C_R   0.521092 0.537102 0.108228 0.026974
C39   C     C_2   0.467442 0.465059 0.977904 -0.132582
C40   C     C_2   0.522466 0.551856 0.025099 -0.111696
Cu1   Cu    Cu3+1 0.359340 0.500010 0.500010 0.925048
Cu2   Cu    Cu3+1 0.640660 0.499990 0.499990 0.917545
H1    H     H_    0.680556 0.574461 0.743896 0.139977
H2    H     H_    0.310958 0.437436 0.256038 0.124050
H3    H     H_    0.146657 0.200289 0.303821 0.114812
H4    H     H_    0.262688 0.329035 0.392930 0.187997
H5    H     H_    0.122649 0.640329 0.587327 0.120795
H6    H     H_    0.732933 0.582819 0.257391 0.129421
H7    H     H_    0.574361 0.632992 0.002675 0.181844
H8    H     H_    0.275215 0.381739 0.883565 0.113600
H9    H     H_    0.309482 0.464194 0.118203 0.105327
H10   H     H_    0.413859 0.385367 0.001526 0.113234
H11   H     H_    0.928222 0.098165 0.456796 0.228181
H12   H     H_    0.730842 0.609629 0.118053 0.105579
H13   H     H_    0.979171 0.179518 0.535204 0.221979
H14   H     H_    0.811248 0.116867 0.321506 0.221620
H15   H     H_    0.940129 0.130203 0.252967 0.231153
H16   H     H_    0.147450 0.534616 0.721267 0.136304
H17   H     H_    0.095207 0.446201 0.804149 0.112332
H18   H     H_    0.998157 0.281607 0.720451 0.151784
H19   H     H_    0.925415 0.427960 0.699461 0.095989
H20   H     H_    0.060028 0.358530 0.635099 0.170849
H21   H     H_    0.835119 0.420897 0.839172 0.124483
H22   H     H_    0.739395 0.384113 0.928306 0.144056
H23   H     H_    0.717413 0.893262 0.514558 0.153102
H24   H     H_    0.885109 0.532181 0.002181 0.154580
H25   H     H_    0.991268 0.418895 0.947396 0.090836
H26   H     H_    0.980178 0.573287 0.914116 0.153157
H27   H     H_    0.264346 0.786005 0.412898 0.149143
H28   H     H_    0.036169 0.878930 0.432162 0.119696
H29   H     H_    0.213644 0.194104 0.548436 0.159077
H30   H     H_    0.710854 0.116329 0.524853 0.163032
H31   H     H_    0.864241 0.639638 0.587820 0.116152
H32   H     H_    0.755111 0.329163 0.391692 0.201355
N1    N     N_R   0.852190 0.498790 0.499250 -0.246702
N2    N     N_R   0.148060 0.498710 0.499220 -0.249585
N3    N     N_3   0.973874 0.090537 0.509439 -0.652073
N4    N     N_3   0.868797 0.180754 0.289252 -0.633101
O1    O     O_R   0.381190 0.680360 0.500010 -0.509918
O2    O     O_3   0.710757 0.561345 0.890077 -0.570917
O3    O     O_R   0.618760 0.680340 0.500000 -0.505212
O4    O     O_R   0.367440 0.500030 0.613600 -0.465222
O5    O     O_R   0.605010 0.500010 0.613590 -0.516855
O6    O     O_R   0.381240 0.319660 0.500000 -0.531922
O7    O     O_R   0.618810 0.319640 0.499990 -0.529602
O8    O     O_R   0.394990 0.499990 0.386410 -0.530665
O9    O     O_R   0.632560 0.499970 0.386400 -0.522683
O10   O     O_3   0.258808 0.373752 0.732275 -0.538342

loop_
_geom_bond_atom_site_label_1
_geom_bond_atom_site_label_2
_ccdc_geom_bond_type
Cu1   Cu2   S    
C19   C20   A    
C25   O9    A    
C19   H4    S    
C7    C8    A    
Cu1   O8    S    
Cu2   N1    S    
C29   C30   A    
C31   H16   S    
C36   C37   A    
C3    H27   S    
C32   H19   S    
C7    H29   S    
C5    C6    A    
H13   N3    S    
C1    O3    A    
C40   H7    S    
C16   O6    A    
H14   N4    S    
C20   N2    A    
C18   C19   A    
C31   H17   S    
C25   O8    A    
C8    C9    A    
C9    C10   A    
C2    C34   A    
C39   H10   S    
C30   H8    S    
C13   C14   A    
Cu2   O3    S    
C22   N1    A    
C12   O10   S    
C34   H2    S    
C39   C40   D    
C24   N2    A    
C6    N3    S    
C35   H24   S    
Cu1   O6    S    
C12   C26   A    
H11   N3    S    
C37   C38   A    
C3    C9    A    
C23   H9    S    
C31   C32   S    
C35   H25   S    
C33   H21   S    
C23   C34   A    
C29   C39   S    
C17   C18   A    
C26   C27   A    
Cu2   O7    S    
C37   H12   S    
C16   O7    A    
C1    O1    A    
C22   C24   A    
C32   H18   S    
C18   H3    S    
C1    C10   S    
C2    C36   A    
C15   C17   A    
C28   C29   A    
C8    C14   A    
C31   O10   S    
C12   C30   A    
C24   H5    S    
H15   N4    S    
Cu2   O5    S    
C3    C5    A    
C5    H28   S    
Cu1   O1    S    
C4    C26   S    
C33   O2    S    
C6    C7    A    
C13   H30   S    
C23   C38   A    
C21   N1    A    
C32   H20   S    
Cu1   N2    S    
C38   C40   S    
C11   C13   A    
C4    O5    A    
C35   H26   S    
C33   H22   S    
Cu1   O4    S    
C17   N4    S    
C33   C35   S    
C36   H6    S    
C2    C25   S    
C14   C16   S    
C28   O2    S    
C10   C11   A    
C27   H1    S    
C15   C21   A    
C15   H32   S    
C4    O4    A    
C20   C21   A    
C27   C28   A    
Cu2   O9    S    
C22   H31   S    
C11   H23   S    
