data_mof_unit_pretest_1181.cif
_audit_creation_date              2012-12-11T16:05:09-0500
_audit_creation_method            fapswitch 2.2
_symmetry_space_group_name_H-M    P1
_symmetry_Int_Tables_number       1
_space_group_crystal_system       triclinic
_cell_length_a                    10.618337
_cell_length_b                    10.658638
_cell_length_c                    16.878301
_cell_angle_alpha                 98.790201
_cell_angle_beta                  99.191485
_cell_angle_gamma                 61.782492
_cell_volume                      1655.03625842

loop_
_atom_site_label
_atom_site_type_symbol
_atom_type_description
_atom_site_fract_x
_atom_site_fract_y
_atom_site_fract_z
_atom_type_partial_charge
Br1   Br    Br    0.335855 0.577261 0.124540 -0.466518
Br2   Br    Br    0.776784 0.069267 0.149626 -0.414405
Br3   Br    Br    0.823293 0.641855 0.319795 -0.477552
C1    C     C_R   0.350452 0.781581 0.401120 0.551049
C2    C     C_3   0.446158 0.734240 0.267094 -0.129608
C3    C     C_3   0.329770 0.832480 0.323013 0.003298
C4    C     C_R   0.366832 0.343654 0.359965 0.532888
C5    C     C_3   0.324467 0.965325 0.295283 -0.164340
C6    C     C_3   0.205792 0.966451 0.228054 -0.168755
C7    C     C_3   0.212375 0.833344 0.256319 0.075565
C8    C     C_3   0.328032 0.735452 0.200981 0.135000
C9    C     C_3   0.322783 0.865963 0.172790 0.031469
C10   C     C_3   0.460093 0.260345 0.775916 -0.109898
C11   C     C_3   0.399932 0.400521 0.735778 -0.113654
C12   C     C_3   0.662573 0.373565 0.232882 -0.136518
C13   C     C_3   0.337044 0.333958 0.663173 0.053929
C14   C     C_3   0.397221 0.194579 0.702712 -0.108881
C15   C     C_3   0.254249 0.255910 0.740394 -0.112344
C16   C     C_R   0.712062 0.412428 0.390183 0.557413
C17   C     C_3   0.194300 0.396324 0.699653 -0.115956
C18   C     C_3   0.257065 0.461777 0.773819 -0.119199
C19   C     C_3   0.318027 0.321762 0.812885 0.048057
C20   C     C_1   0.767663 0.368280 0.715464 -0.045020
C21   C     C_1   0.812310 0.330125 0.782199 -0.044118
C22   C     C_1   0.357924 0.765799 0.714671 -0.050421
C23   C     C_3   0.758028 0.381493 0.310111 0.005149
C24   C     C_1   0.325798 0.811873 0.782126 -0.044016
C25   C     C_R   0.891755 0.310102 0.090013 0.548917
C26   C     C_R   0.291980 0.261691 0.122503 0.564219
C27   C     C_R   0.293573 0.895141 0.089952 0.574580
C28   C     C_R   0.379605 0.716357 0.631911 0.527943
C29   C     C_R   0.878268 0.302303 0.862280 0.541555
C30   C     C_R   0.308302 0.294263 0.892078 0.572503
C31   C     C_R   0.282095 0.880268 0.859747 0.549923
C32   C     C_R   0.366884 0.345564 0.585012 0.531758
C33   C     C_R   0.717856 0.410741 0.635424 0.529123
C34   C     C_3   0.885771 0.243883 0.281394 -0.121526
C35   C     C_1   0.325880 0.317480 0.277853 -0.018416
C36   C     C_1   0.306544 0.292523 0.206916 -0.005152
C37   C     C_3   0.791624 0.236727 0.202827 0.183493
C38   C     C_2   0.080179 0.819362 0.262465 0.658943
C39   C     C_3   0.932559 0.336202 0.242992 -0.136584
C40   C     C_3   0.804824 0.472846 0.272248 0.158919
C41   C     C_3   0.709872 0.466107 0.194174 -0.132189
C42   C     C_3   0.836700 0.329638 0.165577 0.031126
C43   C     C_3   0.440685 0.867263 0.237981 -0.116078
Cr1   Cr    Cr6+3 0.608340 0.611040 0.520430 1.054739
Cr2   Cr    Cr6+3 0.287650 0.601120 0.489350 1.083029
Cr3   Cr    Cr6+3 0.604040 0.287870 0.490280 1.068655
Cr4   Cr    Cr6+3 0.054020 0.052700 0.970850 1.074291
Cr5   Cr    Cr6+3 0.059230 0.375120 0.993390 1.090725
Cr6   Cr    Cr6+3 0.374950 0.061200 0.992340 1.070732
H1    H     H_    0.552898 0.385981 0.232762 0.168806
H2    H     H_    0.043910 0.320840 0.245856 0.118652
H3    H     H_    0.641572 0.554884 0.155687 0.164828
H4    H     H_    0.539469 0.643564 0.292612 0.150977
H5    H     H_    0.535120 0.878592 0.227273 0.188127
H6    H     H_    0.320349 0.059611 0.335450 0.135418
H7    H     H_    0.954145 0.726707 0.215787 0.378809
H8    H     H_    0.108974 0.059581 0.205348 0.131857
H9    H     H_    0.460568 0.459967 0.732023 0.087053
H10   H     H_    0.568681 0.206920 0.808802 0.138027
H11   H     H_    0.452724 0.085608 0.671904 0.142768
H12   H     H_    0.193743 0.196389 0.744646 0.124797
H13   H     H_    0.086313 0.449867 0.666191 0.150575
H14   H     H_    0.201796 0.570369 0.805070 0.141678
H15   H     H_    0.957073 0.156364 0.319986 0.177204
O1    O     O_R   0.751220 0.499230 0.435170 -0.457661
O2    O     O_R   0.412990 0.180750 0.091610 -0.454036
O3    O     O_R   0.366620 0.943130 0.065760 -0.525639
O4    O     O_R   0.477220 0.727600 0.436870 -0.502066
O5    O     O_R   0.160510 0.906330 0.879210 -0.500336
O6    O     O_R   0.930190 0.179050 0.889450 -0.492116
O7    O     O_R   0.909140 0.398170 0.896710 -0.504255
O8    O     O_R   0.186190 0.363460 0.918830 -0.485053
O9    O     O_R   0.401670 0.173200 0.913310 -0.502937
O10   O     O_R   0.356120 0.936130 0.900470 -0.493681
O11   O     O_3   0.162740 0.163010 0.985530 -0.314235
O12   O     O_R   0.297880 0.469080 0.560050 -0.511710
O13   O     O_R   0.258650 0.745120 0.411470 -0.474839
O14   O     O_R   0.297070 0.467240 0.395960 -0.470216
O15   O     O_R   0.488830 0.252610 0.387790 -0.502986
O16   O     O_R   0.724400 0.302390 0.420980 -0.469796
O17   O     O_R   0.752100 0.501210 0.612190 -0.500325
O18   O     O_R   0.478040 0.729440 0.600970 -0.503949
O19   O     O_R   0.259530 0.747110 0.588490 -0.484188
O20   O     O_2   0.997612 0.896746 0.312172 -0.477502
O21   O     O_R   0.050614 0.719818 0.209903 -0.615169
O22   O     O_R   0.489720 0.254590 0.564810 -0.518244
O23   O     O_R   0.725220 0.304230 0.585080 -0.475222
O24   O     O_3   0.500010 0.500010 0.500020 -0.332399
O25   O     O_R   0.171830 0.913880 0.057510 -0.467102
O26   O     O_R   0.940690 0.186050 0.054730 -0.484235
O27   O     O_R   0.920470 0.405720 0.075010 -0.509177
O28   O     O_R   0.196690 0.370460 0.084120 -0.428342

loop_
_geom_bond_atom_site_label_1
_geom_bond_atom_site_label_2
_ccdc_geom_bond_type
C22   C28   S    
C28   O18   A    
C18   H14   S    
C2    H4    S    
Br1   C8    S    
Cr5   O7    S    
Cr3   O23   S    
C15   H12   S    
Br3   C40   S    
Cr1   O18   S    
Cr2   O12   S    
Cr5   O8    S    
C12   C41   S    
C1    O13   A    
C34   C37   S    
C31   O10   A    
C29   O7    A    
C2    C3    S    
C16   O16   A    
C12   H1    S    
Cr2   O14   S    
C25   O27   A    
C34   C39   S    
C19   C30   S    
C16   C23   S    
Cr4   O5    S    
H7    O21   S    
Cr6   O2    S    
C5    H6    S    
C30   O8    A    
C10   H10   S    
C5    C6    S    
Cr2   O24   S    
C20   C21   T    
C6    C7    S    
C15   C17   S    
C28   O19   A    
C10   C11   S    
C7    C38   S    
Cr3   O24   S    
Cr6   O11   S    
Cr4   O11   S    
C27   O3    A    
C23   C40   S    
C26   O2    A    
C24   C31   S    
C37   C42   S    
C38   O20   D    
C25   C42   S    
C17   H13   S    
C9    C43   S    
Cr4   O6    S    
C29   O6    A    
C26   O28   A    
C13   C14   S    
C12   C23   S    
C3    C5    S    
C11   H9    S    
C25   O26   A    
C39   C42   S    
Cr3   O15   S    
C40   C41   S    
C21   C29   S    
C30   O9    A    
C13   C17   S    
C26   C36   S    
C14   C15   S    
C16   O1    A    
Cr4   O26   S    
Cr1   O17   S    
Cr1   O4    S    
C32   O22   A    
Cr4   O25   S    
C4    O14   A    
C43   H5    S    
C11   C13   S    
C1    C3    S    
C39   C40   S    
Cr6   O10   S    
C31   O5    A    
Cr1   O1    S    
C41   C42   S    
C11   C18   S    
C33   O23   A    
C38   O21   S    
C9    C27   S    
C15   C19   S    
Cr1   O24   S    
Cr3   O22   S    
Cr6   O9    S    
C3    C7    S    
C8    C9    S    
C23   C34   S    
C2    C8    S    
C22   C24   T    
C2    C43   S    
C10   C14   S    
C6    H8    S    
Cr3   O16   S    
Cr5   O11   S    
C13   C32   S    
C39   H2    S    
C41   H3    S    
Cr2   O13   S    
C35   C36   T    
C33   O17   A    
C34   H15   S    
C32   O12   A    
C4    C35   S    
C10   C19   S    
Cr2   O19   S    
C6    C9    S    
C5    C43   S    
C12   C37   S    
Cr6   O3    S    
C7    C8    S    
Cr5   O27   S    
Br2   C37   S    
C4    O15   A    
C17   C18   S    
C20   C33   S    
C18   C19   S    
C1    O4    A    
C14   H11   S    
Cr5   O28   S    
C27   O25   A    
