data_mof_unit_pretest_1939.cif
_audit_creation_date              2012-12-10T18:15:22-0500
_audit_creation_method            fapswitch 2.2
_symmetry_space_group_name_H-M    P1
_symmetry_Int_Tables_number       1
_space_group_crystal_system       triclinic
_cell_length_a                    22.530919
_cell_length_b                    22.456038
_cell_length_c                    14.669938
_cell_angle_alpha                 90.002431
_cell_angle_beta                  90.008463
_cell_angle_gamma                 89.996186
_cell_volume                      7422.3309181

loop_
_atom_site_label
_atom_site_type_symbol
_atom_type_description
_atom_site_fract_x
_atom_site_fract_y
_atom_site_fract_z
_atom_type_partial_charge
C1    C     C_R   0.080070 0.419853 0.500004 0.834069
C2    C     C_R   0.080069 0.580140 0.500013 0.837498
C3    C     C_R   0.580066 0.919859 0.500010 0.837358
C4    C     C_R   0.580069 0.080140 0.500012 0.837827
C5    C     C_1   0.163248 0.661785 0.500488 0.024219
C6    C     C_1   0.163360 0.338297 0.500039 0.070768
C7    C     C_1   0.663254 0.161779 0.500475 0.023982
C8    C     C_1   0.663274 0.838246 0.500423 0.022758
C9    C     C_1   0.838403 0.336402 0.500090 -0.055857
C10   C     C_1   0.838408 0.663607 0.500048 -0.055524
C11   C     C_1   0.338403 0.836401 0.500103 -0.056190
C12   C     C_1   0.338401 0.163629 0.500019 -0.054355
C13   C     C_1   0.875665 0.374559 0.500000 -0.172594
C14   C     C_1   0.875667 0.625444 0.499997 -0.172011
C15   C     C_1   0.375666 0.874558 0.500003 -0.173387
C16   C     C_1   0.375658 0.125457 0.499999 -0.174460
C17   C     C_3   0.975205 0.557543 0.052799 -0.421861
C18   C     C_3   0.969744 0.554789 0.946753 -0.394991
C19   C     C_3   0.969891 0.444547 0.947266 -0.432476
C20   C     C_3   0.964818 0.447770 0.053295 -0.420930
C21   C     C_3   0.475859 0.057822 0.052797 -0.422529
C22   C     C_3   0.470381 0.055133 0.946749 -0.395557
C23   C     C_3   0.469257 0.944897 0.947269 -0.433056
C24   C     C_3   0.464234 0.948175 0.053299 -0.420705
C25   C     C_3   0.003545 0.499396 0.091998 0.129484
C26   C     C_3   0.003588 0.499780 0.907954 0.146959
C27   C     C_3   0.503541 0.999359 0.091998 0.129651
C28   C     C_3   0.503589 0.999734 0.907954 0.148296
C29   C     C_3   0.070097 0.501168 0.944929 0.306283
C30   C     C_3   0.069699 0.492652 0.054851 0.327812
C31   C     C_3   0.570110 0.000348 0.944926 0.307221
C32   C     C_3   0.569616 0.991869 0.054856 0.327035
C33   C     C_1   0.001294 0.499930 0.804812 0.124678
C34   C     C_1   0.001280 0.499802 0.195187 0.133594
C35   C     C_1   0.501294 0.999912 0.804812 0.122169
C36   C     C_1   0.501279 0.999791 0.195187 0.133598
C37   C     C_R   0.919993 0.419749 0.499995 0.816863
C38   C     C_R   0.919992 0.580251 0.499997 0.816299
C39   C     C_R   0.419994 0.919748 0.499995 0.816752
C40   C     C_R   0.419987 0.080253 0.499998 0.816865
C41   C     C_3   0.799694 0.250371 0.586339 -0.382551
C42   C     C_3   0.800284 0.249441 0.415642 -0.440501
C43   C     C_3   0.797345 0.747590 0.411899 -0.439427
C44   C     C_3   0.802573 0.752544 0.582251 -0.382548
C45   C     C_3   0.298963 0.751109 0.587280 -0.383170
C46   C     C_3   0.300990 0.748726 0.416642 -0.440578
C47   C     C_3   0.301175 0.251339 0.416243 -0.433553
C48   C     C_3   0.298784 0.248909 0.587015 -0.432788
C49   C     C_3   0.250920 0.700562 0.413272 0.412779
C50   C     C_3   0.247062 0.705223 0.593867 0.405203
C51   C     C_3   0.247776 0.296024 0.591876 0.390625
C52   C     C_3   0.250321 0.298614 0.411174 0.390917
C53   C     C_3   0.750185 0.201307 0.412304 0.412824
C54   C     C_3   0.747852 0.204424 0.593039 0.405006
C55   C     C_3   0.750978 0.798752 0.589369 0.405111
C56   C     C_3   0.747119 0.795596 0.408694 0.412012
C57   C     C_1   0.125119 0.624534 0.500115 -0.106501
C58   C     C_1   0.125170 0.375493 0.500015 -0.106263
C59   C     C_1   0.625122 0.124532 0.500113 -0.107087
C60   C     C_1   0.625128 0.875478 0.500100 -0.111974
C61   C     C_3   0.792910 0.289856 0.500322 0.177792
C62   C     C_3   0.792923 0.710161 0.500198 0.176911
C63   C     C_3   0.292908 0.789858 0.500355 0.178173
C64   C     C_3   0.292922 0.210201 0.500060 0.196987
C65   C     C_3   0.210010 0.707190 0.501171 0.161811
C66   C     C_3   0.210194 0.293005 0.500080 0.204645
C67   C     C_3   0.710021 0.207179 0.501136 0.161833
C68   C     C_3   0.710061 0.792868 0.500996 0.161897
C69   C     C_3   0.181080 0.770197 0.496198 -0.502409
C70   C     C_3   0.181130 0.229952 0.496987 -0.492995
C71   C     C_3   0.681056 0.270221 0.498000 -0.502493
C72   C     C_3   0.681118 0.729851 0.505318 -0.502566
C73   C     C_3   0.730138 0.318600 0.498939 -0.393914
C74   C     C_3   0.730233 0.681500 0.506187 -0.393840
C75   C     C_3   0.230156 0.818584 0.497152 -0.393749
C76   C     C_3   0.230162 0.181518 0.497010 -0.400627
Cu1   Cu    Cu3+1 0.999990 0.500000 0.589920 0.993478
Cu2   Cu    Cu3+1 0.999990 0.500000 0.410080 0.998588
Cu3   Cu    Cu3+1 0.499990 0.000000 0.589920 0.988781
Cu4   Cu    Cu3+1 0.499990 0.000000 0.410080 0.999572
H1    H     H_    0.843210 0.227017 0.583456 0.197628
H2    H     H_    0.844745 0.227930 0.417825 0.201661
H3    H     H_    0.841782 0.769097 0.408789 0.201951
H4    H     H_    0.845908 0.775687 0.574015 0.197369
H5    H     H_    0.342496 0.727732 0.585725 0.197159
H6    H     H_    0.345429 0.727241 0.420134 0.201494
H7    H     H_    0.345141 0.273678 0.420961 0.203753
H8    H     H_    0.342812 0.271336 0.586701 0.203713
H9    H     H_    0.800214 0.277294 0.352866 0.161181
H10   H     H_    0.801551 0.278992 0.648264 0.171659
H11   H     H_    0.806556 0.726092 0.646164 0.172355
H12   H     H_    0.795198 0.717613 0.351545 0.161652
H13   H     H_    0.301449 0.776043 0.353320 0.161218
H14   H     H_    0.300304 0.780254 0.648660 0.171408
H15   H     H_    0.298774 0.219788 0.648429 0.160080
H16   H     H_    0.302889 0.223992 0.352999 0.160200
H17   H     H_    0.724328 0.347518 0.559896 0.180521
H18   H     H_    0.725324 0.347380 0.437618 0.182640
H19   H     H_    0.723373 0.650661 0.447734 0.182794
H20   H     H_    0.726555 0.654724 0.569768 0.180599
H21   H     H_    0.223835 0.848016 0.557408 0.180586
H22   H     H_    0.225862 0.846841 0.435173 0.182717
H23   H     H_    0.225693 0.153555 0.434751 0.181514
H24   H     H_    0.223977 0.151822 0.556995 0.181665
H25   H     H_    0.149498 0.777657 0.553124 0.178698
H26   H     H_    0.152703 0.775296 0.434876 0.200436
H27   H     H_    0.151896 0.224514 0.436669 0.193163
H28   H     H_    0.150223 0.222826 0.554863 0.193515
H29   H     H_    0.649958 0.277191 0.555696 0.178413
H30   H     H_    0.652162 0.275839 0.437357 0.200272
H31   H     H_    0.650189 0.722188 0.447640 0.200396
H32   H     H_    0.652058 0.724932 0.565938 0.177944
H33   H     H_    0.921955 0.551609 0.928014 0.178719
H34   H     H_    0.930103 0.563778 0.082266 0.179191
H35   H     H_    0.917546 0.455424 0.072081 0.185777
H36   H     H_    0.924343 0.442843 0.917971 0.181911
H37   H     H_    0.422560 0.052512 0.927996 0.177953
H38   H     H_    0.430826 0.064563 0.082251 0.178547
H39   H     H_    0.417052 0.956363 0.072097 0.185583
H40   H     H_    0.423689 0.943729 0.917987 0.181760
H41   H     H_    0.976453 0.404268 0.084531 0.163937
H42   H     H_    0.991008 0.402032 0.926972 0.162785
H43   H     H_    0.985423 0.597040 0.915644 0.176760
H44   H     H_    0.000723 0.597603 0.073052 0.165854
H45   H     H_    0.475379 0.904542 0.084530 0.163828
H46   H     H_    0.489874 0.902137 0.926963 0.161705
H47   H     H_    0.486552 0.097199 0.915648 0.175958
H48   H     H_    0.501819 0.097593 0.073061 0.165501
N1    N     N_1   0.000150 0.500000 0.724970 -0.149884
N2    N     N_1   0.000150 0.500000 0.275030 -0.147513
N3    N     N_1   0.500150 0.000000 0.724970 -0.150710
N4    N     N_1   0.500150 1.000000 0.275030 -0.147509
O1    O     O_R   0.060270 0.439640 0.575970 -0.565588
O2    O     O_R   0.060270 0.439640 0.424030 -0.563437
O3    O     O_R   0.060270 0.560360 0.424030 -0.556155
O4    O     O_R   0.060270 0.560360 0.575970 -0.565405
O5    O     O_R   0.560270 0.939640 0.575970 -0.573278
O6    O     O_R   0.560270 0.939640 0.424030 -0.559359
O7    O     O_R   0.560270 0.060360 0.424030 -0.555804
O8    O     O_R   0.560270 0.060360 0.575970 -0.565539
O9    O     O_R   0.939710 0.439640 0.575970 -0.574829
O10   O     O_R   0.939710 0.439640 0.424030 -0.576590
O11   O     O_R   0.939710 0.560360 0.424030 -0.575061
O12   O     O_R   0.939710 0.560360 0.575970 -0.574145
O13   O     O_R   0.439710 0.939640 0.575970 -0.575268
O14   O     O_R   0.439710 0.939640 0.424030 -0.576369
O15   O     O_R   0.439710 0.060360 0.424030 -0.575307
O16   O     O_R   0.439710 0.060360 0.575970 -0.573771
Br1   Br    Br    0.279626 0.626651 0.623013 -0.385601
Br2   Br    Br    0.287440 0.621348 0.402591 -0.403340
Br3   Br    Br    0.285329 0.378170 0.395398 -0.402812
Br4   Br    Br    0.282203 0.375026 0.615341 -0.408095
Br5   Br    Br    0.780658 0.125615 0.619954 -0.383868
Br6   Br    Br    0.786604 0.122195 0.399309 -0.403523
Br7   Br    Br    0.782900 0.874101 0.386353 -0.405681
Br8   Br    Br    0.784567 0.878329 0.607140 -0.378117
N5    N     N_3   0.215273 0.707907 0.329581 -0.571339
H49   H     H_    0.240340 0.693970 0.273490 0.246740
H50   H     H_    0.206231 0.752793 0.316950 0.197375
N6    N     N_3   0.210097 0.719807 0.673795 -0.562894
H51   H     H_    0.170011 0.696432 0.671725 0.229205
H52   H     H_    0.200866 0.765318 0.678270 0.204436
N7    N     N_3   0.209381 0.283839 0.671280 -0.580326
H53   H     H_    0.231897 0.295762 0.730907 0.249825
H54   H     H_    0.201325 0.238242 0.678319 0.199558
N8    N     N_3   0.214202 0.288778 0.328535 -0.578637
H55   H     H_    0.238369 0.302372 0.271330 0.250917
H56   H     H_    0.206375 0.243439 0.317892 0.198991
N9    N     N_3   0.713835 0.209365 0.329484 -0.571628
H57   H     H_    0.738425 0.195911 0.272624 0.246661
H58   H     H_    0.704693 0.254355 0.317935 0.197287
N10   N     N_3   0.711566 0.218318 0.673982 -0.562686
H59   H     H_    0.671466 0.194956 0.672242 0.229088
H60   H     H_    0.702374 0.263786 0.679552 0.204216
N11   N     N_3   0.717525 0.787762 0.674144 -0.560010
H61   H     H_    0.677399 0.811111 0.673749 0.226431
H62   H     H_    0.708581 0.742570 0.684140 0.204371
N12   N     N_3   0.708000 0.784708 0.329695 -0.572108
H63   H     H_    0.730583 0.796142 0.269913 0.249113
H64   H     H_    0.698560 0.739390 0.322574 0.197930
N13   N     N_3   0.108533 0.535857 0.101682 -0.572116
H65   H     H_    0.152050 0.532026 0.077646 0.254825
H66   H     H_    0.094612 0.579864 0.095254 0.197774
N14   N     N_3   0.097345 0.558346 0.917324 -0.594381
H67   H     H_    0.143175 0.557289 0.928470 0.247692
H68   H     H_    0.080200 0.594778 0.952512 0.204176
N15   N     N_3   0.105973 0.453773 0.901522 -0.547899
H69   H     H_    0.083596 0.413252 0.898499 0.201216
H70   H     H_    0.115370 0.465293 0.833922 0.251201
N16   N     N_3   0.093442 0.433353 0.079115 -0.541586
H71   H     H_    0.070191 0.398638 0.048323 0.207288
H72   H     H_    0.091186 0.426979 0.149656 0.237687
N17   N     N_3   0.608924 0.034654 0.101659 -0.571183
H73   H     H_    0.652401 0.030319 0.077651 0.255799
H74   H     H_    0.595504 0.078813 0.095175 0.197698
N18   N     N_3   0.598024 0.057192 0.917278 -0.594556
H75   H     H_    0.643837 0.055602 0.928442 0.248025
H76   H     H_    0.581297 0.093836 0.952424 0.203865
N19   N     N_3   0.605428 0.952522 0.901546 -0.546999
H77   H     H_    0.582595 0.912255 0.898604 0.199208
H78   H     H_    0.614928 0.963895 0.833922 0.248895
N20   N     N_3   0.592702 0.932316 0.079162 -0.539468
H79   H     H_    0.569051 0.897853 0.048430 0.207335
H80   H     H_    0.590403 0.926001 0.149712 0.238461

loop_
_geom_bond_atom_site_label_1
_geom_bond_atom_site_label_2
_ccdc_geom_bond_type
C76   H24   S    
C22   H37   S    
C72   H32   S    
C19   H42   S    
N5    H49   S    
Cu4   N4    S    
C48   H15   S    
C72   C74   S    
C43   H3    S    
N9    H57   S    
C6    C58   T    
N7    H53   S    
C42   H2    S    
C24   C27   S    
C41   C61   S    
C54   Br5   S    
C31   N19   S    
C55   C68   S    
C2    C57   S    
N11   H62   S    
C56   N12   S    
Cu1   Cu2   S    
C73   H17   S    
C46   C49   S    
N16   H71   S    
N20   H80   S    
C49   Br2   S    
C9    C61   S    
C45   C50   S    
C29   N14   S    
C11   C63   S    
C70   H27   S    
Cu2   O10   S    
C42   C53   S    
C31   N18   S    
C12   C64   S    
Cu4   O6    S    
C48   C64   S    
C14   C38   S    
C20   C25   S    
C71   H30   S    
N14   H67   S    
C4    C59   S    
C38   O11   A    
C19   C26   S    
C9    C13   T    
C26   C33   S    
C52   N8    S    
C49   C65   S    
C11   C15   T    
C48   C51   S    
C12   C16   T    
C28   C35   S    
N17   H74   S    
C18   C26   S    
C75   H22   S    
C23   C24   S    
C48   H8    S    
C51   N7    S    
C3    O5    A    
Cu1   O4    S    
Cu2   O3    S    
C13   C37   S    
C53   N9    S    
C25   C34   S    
C3    C60   S    
C76   H23   S    
Cu4   O14   S    
C41   H10   S    
C21   C27   S    
C72   H31   S    
Cu3   N3    S    
N19   H77   S    
N5    H50   S    
C22   C28   S    
C21   C22   S    
N8    H56   S    
N9    H58   S    
C49   N5    S    
C10   C62   S    
Cu1   O1    S    
C56   Br7   S    
C1    O1    A    
C45   H14   S    
C18   H33   S    
C7    C59   T    
N10   H60   S    
C17   H34   S    
N12   H63   S    
N13   H66   S    
C61   C73   S    
C73   H18   S    
C37   O10   A    
C40   O16   A    
C54   N10   S    
C21   H38   S    
Cu3   O13   S    
N20   H79   S    
C74   H19   S    
C47   C64   S    
C71   C73   S    
C69   H25   S    
C32   N17   S    
C74   H20   S    
C54   C67   S    
C44   C62   S    
N13   H65   S    
C45   C63   S    
C2    O4    A    
C29   N15   S    
C68   C72   S    
C51   C66   S    
C47   H7    S    
C55   N11   S    
C45   H5    S    
C29   C30   S    
C4    O8    A    
C17   H44   S    
C31   C32   S    
C47   H16   S    
C41   H1    S    
C39   O13   A    
C5    C65   S    
C17   C18   S    
C64   C76   S    
C3    O6    A    
Cu1   N1    S    
C23   C28   S    
C21   H48   S    
Cu2   O2    S    
C42   C61   S    
C15   C39   S    
C20   H41   S    
C47   C52   S    
C44   H11   S    
C37   O9    A    
C16   C40   S    
C23   H46   S    
N18   H76   S    
Cu3   O5    S    
C51   Br4   S    
C8    C68   S    
C10   C14   T    
N8    H55   S    
C30   N13   S    
C69   C75   S    
C1    O2    A    
C35   N3    T    
C23   H40   S    
C52   C66   S    
N10   H59   S    
N19   H78   S    
C33   N1    T    
C25   C30   S    
C24   H39   S    
N16   H72   S    
C55   Br8   S    
C40   O15   A    
N7    H54   S    
C27   C32   S    
C38   O12   A    
C28   C31   S    
C43   H12   S    
N18   H75   S    
C44   H4    S    
C20   H35   S    
N12   H64   S    
C69   H26   S    
Cu3   O16   S    
C27   C36   S    
Cu4   O15   S    
Cu4   O7    S    
C18   H43   S    
C2    O3    A    
C5    C57   T    
C46   C63   S    
C42   H9    S    
C50   N6    S    
N6    H51   S    
C19   C20   S    
C36   N4    T    
Cu2   N2    S    
Cu1   O12   S    
C17   C25   S    
N15   H69   S    
N11   H61   S    
C56   C68   S    
C1    C58   S    
C8    C60   T    
C4    O7    A    
C70   C76   S    
C50   Br1   S    
C22   H47   S    
C24   H45   S    
C46   H13   S    
C63   C75   S    
C19   H36   S    
C52   Br3   S    
C65   C69   S    
C71   H29   S    
C39   O14   A    
N14   H68   S    
Cu3   O8    S    
C44   C55   S    
C67   C71   S    
C30   N16   S    
C32   N20   S    
C53   C67   S    
C50   C65   S    
Cu1   O9    S    
C41   C54   S    
N15   H70   S    
C7    C67   S    
Cu3   Cu4   S    
C43   C56   S    
C6    C66   S    
C66   C70   S    
C34   N2    T    
C26   C29   S    
N17   H73   S    
C75   H21   S    
C62   C74   S    
C70   H28   S    
Cu2   O11   S    
C53   Br6   S    
C43   C62   S    
N6    H52   S    
C46   H6    S    
