data_mof_unit_pretest_155.cif
_audit_creation_date              2012-12-10T16:59:16-0500
_audit_creation_method            fapswitch 2.2
_symmetry_space_group_name_H-M    P1
_symmetry_Int_Tables_number       1
_space_group_crystal_system       triclinic
_cell_length_a                    7.713047
_cell_length_b                    8.550173
_cell_length_c                    27.801595
_cell_angle_alpha                 91.164026
_cell_angle_beta                  85.806392
_cell_angle_gamma                 93.884565
_cell_volume                      1824.1292418

loop_
_atom_site_label
_atom_site_type_symbol
_atom_type_description
_atom_site_fract_x
_atom_site_fract_y
_atom_site_fract_z
_atom_type_partial_charge
C1    C     C_R   0.546143 0.795017 0.498759 0.976627
C2    C     C_R   0.453857 0.204983 0.501242 0.976843
C3    C     C_R   0.497568 0.489306 0.898408 -0.086884
C4    C     C_R   0.536703 0.483264 0.100779 -0.097700
C5    C     C_R   0.547882 0.628284 0.873050 -0.002816
C6    C     C_R   0.472428 0.349498 0.126962 -0.006454
C7    C     C_R   0.607297 0.762613 0.897660 -0.162702
C8    C     C_R   0.406815 0.216395 0.102824 -0.160385
C9    C     C_R   0.435656 0.353919 0.873015 -0.088884
C10   C     C_R   0.603680 0.617576 0.125660 -0.069793
C11   C     C_R   0.505036 0.497787 0.646972 -0.110888
C12   C     C_R   0.496352 0.500614 0.352969 -0.112163
C13   C     C_R   0.591514 0.619384 0.023983 0.010830
C14   C     C_R   0.459469 0.347070 0.974495 -0.001601
C15   C     C_R   0.464615 0.346593 0.025456 0.074120
C16   C     C_R   0.574148 0.623533 0.973660 0.074433
C17   C     C_R   0.531593 0.482914 0.049872 0.071250
C18   C     C_R   0.510012 0.486548 0.949040 0.070283
C19   C     C_R   0.669217 0.747445 0.049280 -0.296605
C20   C     C_R   0.404902 0.211974 0.948105 -0.267884
C21   C     C_R   0.676275 0.748013 0.099141 0.244199
C22   C     C_R   0.386783 0.214539 0.898489 0.239751
C23   C     C_R   0.502634 0.499919 0.594104 0.880828
C24   C     C_R   0.497532 0.500117 0.405888 0.880392
C25   C     C_R   0.617122 0.761551 0.947005 -0.235655
C26   C     C_R   0.401588 0.214971 0.053204 -0.236227
C27   C     C_2   0.570563 0.958516 0.498025 -0.379479
C28   C     C_2   0.429437 0.041484 0.501978 -0.379453
C29   C     C_R   0.538589 0.630268 0.823211 0.504691
C30   C     C_R   0.471956 0.352573 0.177164 0.508688
C31   C     C_R   0.427813 0.362917 0.822567 0.520958
C32   C     C_R   0.592896 0.616958 0.176426 0.515778
C33   C     C_R   0.335290 0.487448 0.724143 -0.085809
C34   C     C_R   0.669472 0.504949 0.276385 -0.091560
C35   C     C_R   0.343292 0.485999 0.674177 -0.249269
C36   C     C_R   0.659081 0.511391 0.326274 -0.244893
C37   C     C_R   0.661241 0.510572 0.671455 0.184762
C38   C     C_R   0.341419 0.485138 0.327962 0.183644
C39   C     C_R   0.650282 0.511243 0.721664 -0.118562
C40   C     C_R   0.354708 0.479658 0.277674 -0.113579
C41   C     C_R   0.488676 0.499828 0.747837 0.264140
C42   C     C_R   0.517603 0.489093 0.252071 0.261455
H1    H     H_    0.013940 0.379053 0.464781 0.194080
H2    H     H_    0.986067 0.621048 0.535177 0.194147
H3    H     H_    0.768541 0.520043 0.740630 0.149818
H4    H     H_    0.237521 0.468684 0.258261 0.148704
H5    H     H_    0.646814 0.870334 0.878868 0.181719
H6    H     H_    0.355845 0.112747 0.122327 0.190722
H7    H     H_    0.779972 0.524604 0.343888 0.188347
H8    H     H_    0.221620 0.475216 0.656900 0.188656
H9    H     H_    0.795819 0.512542 0.256500 0.149970
H10   H     H_    0.209911 0.478604 0.744511 0.154088
H11   H     H_    0.731535 0.848813 0.031309 0.143404
H12   H     H_    0.379969 0.100097 0.964913 0.153480
H13   H     H_    0.656648 0.872698 0.963026 0.142010
H14   H     H_    0.342392 0.109229 0.038178 0.140672
H15   H     H_    0.703663 0.010021 0.494242 0.178315
H16   H     H_    0.296337 0.989980 0.505761 0.178306
N1    N     N_R   0.481809 0.498437 0.799200 -0.350599
N2    N     N_R   0.528644 0.485722 0.200647 -0.355711
N3    N     N_2   0.950320 0.457960 0.486880 -0.180567
N4    N     N_2   0.049680 0.542040 0.513120 -0.180608
O1    O     O_R   0.389250 0.738570 0.503220 -0.612563
O2    O     O_R   0.610750 0.261430 0.496780 -0.612594
O3    O     O_R   0.678390 0.711630 0.494810 -0.631253
O4    O     O_R   0.321610 0.288370 0.505190 -0.631186
O5    O     O_R   0.355440 0.513440 0.575450 -0.621960
O6    O     O_R   0.644560 0.486560 0.424550 -0.622261
O7    O     O_R   0.644590 0.486500 0.567040 -0.630175
O8    O     O_R   0.355410 0.513500 0.432960 -0.629957
O9    O     O_2   0.586228 0.762867 0.798659 -0.561467
O10   O     O_2   0.414413 0.223892 0.202518 -0.548418
O11   O     O_2   0.641465 0.746945 0.201736 -0.511855
O12   O     O_2   0.369588 0.237700 0.796604 -0.531797
Zn1   Zn    Zn3+2 0.306940 0.517990 0.505620 0.935407
Zn2   Zn    Zn3+2 0.693060 0.482010 0.494380 0.935210
N5    N     N_2   0.830607 0.524363 0.647419 -0.319194
H17   H     H_    0.856701 0.443864 0.620266 0.252090
C43   C     C_3   0.897792 0.683406 0.637675 -0.758085
H18   H     H_    0.034786 0.683206 0.622353 0.234754
H19   H     H_    0.895663 0.754528 0.671592 0.264127
H20   H     H_    0.818724 0.737581 0.611464 0.237280
N6    N     N_2   0.171331 0.473423 0.351590 -0.319643
H21   H     H_    0.145825 0.554685 0.378561 0.251771
C44   C     C_3   0.102650 0.315116 0.361827 -0.759722
H22   H     H_    0.965657 0.316725 0.377060 0.234917
H23   H     H_    0.180941 0.261310 0.388306 0.237588
H24   H     H_    0.104410 0.242802 0.328148 0.263818
N7    N     N_2   0.759363 0.880746 0.121879 -0.242618
H25   H     H_    0.735824 0.986268 0.107043 0.223933
C45   C     C_3   0.942943 0.867189 0.127213 -0.685247
H26   H     H_    0.995503 0.970508 0.147675 0.246516
H27   H     H_    0.015591 0.862754 0.091218 0.203262
H28   H     H_    0.963204 0.759842 0.147403 0.251638
N8    N     N_2   0.327176 0.075083 0.873796 -0.247427
H29   H     H_    0.423534 0.018584 0.854216 0.272656
C46   C     C_3   0.190731 0.972523 0.897204 -0.742516
H30   H     H_    0.129427 0.895997 0.869582 0.258245
H31   H     H_    0.088436 0.041979 0.915858 0.241250
H32   H     H_    0.245797 0.896326 0.923307 0.222096

loop_
_geom_bond_atom_site_label_1
_geom_bond_atom_site_label_2
_ccdc_geom_bond_type
C38   N6    S    
C8    C26   A    
C22   N8    S    
C23   O7    A    
N8    H29   S    
C34   C42   A    
C46   H30   S    
C24   O8    A    
C39   C41   A    
C21   N7    S    
N5    H17   S    
C33   H10   S    
C40   H4    S    
C34   H9    S    
O3    Zn2   S    
C3    C18   A    
C19   C21   A    
C9    C22   A    
C31   N1    A    
O7    Zn2   S    
C23   O5    A    
C11   C37   A    
C14   C18   A    
C29   N1    A    
C30   N2    A    
C1    O3    A    
C12   C36   A    
C39   H3    S    
C19   H11   S    
C40   C42   A    
N3    Zn2   S    
C1    O1    A    
C46   H31   S    
C2    O2    A    
C5    C29   A    
N5    C43   S    
C10   C21   A    
C13   C19   A    
C44   H23   S    
C14   C20   A    
C41   N1    S    
C4    C6    A    
C27   H15   S    
C42   N2    S    
C45   H26   S    
C43   H19   S    
C9    C31   A    
C15   C26   A    
C6    C8    A    
C3    C5    A    
C44   H22   S    
C37   N5    S    
C7    H5    S    
C8    H6    S    
C3    C9    A    
C45   H27   S    
N6    H21   S    
C35   H8    S    
O2    Zn2   S    
C4    C17   A    
C20   H12   S    
N6    C44   S    
C20   C22   A    
N4    Zn1   S    
O5    Zn1   S    
C32   N2    A    
C4    C10   A    
C32   O11   S    
C46   H32   S    
H1    N3    S    
C5    C7    A    
C44   H24   S    
C16   C25   A    
C15   C17   A    
C6    C30   A    
C25   H13   S    
C2    O4    A    
C26   H14   S    
C43   H20   S    
C30   O10   S    
N8    C46   S    
C28   H16   S    
O6    Zn2   S    
C12   C24   S    
C7    C25   A    
C13   C17   A    
H2    N4    S    
C11   C35   A    
C33   C41   A    
C37   C39   A    
C45   H28   S    
C38   C40   A    
O1    Zn1   S    
O4    Zn1   S    
C11   C23   S    
C33   C35   A    
C34   C36   A    
C12   C38   A    
N3    N4    D    
C31   O12   S    
C24   O6    A    
C43   H18   S    
C10   C32   A    
O8    Zn1   S    
C16   C18   A    
N7    C45   S    
C13   C16   A    
C27   C28   D    
C1    C27   S    
C14   C15   A    
C2    C28   S    
N7    H25   S    
C36   H7    S    
C29   O9    S    
