data_mof_unit_pretest_1718.cif
_audit_creation_date              2012-12-11T19:34:28-0500
_audit_creation_method            fapswitch 2.2
_symmetry_space_group_name_H-M    P1
_symmetry_Int_Tables_number       1
_space_group_crystal_system       triclinic
_cell_length_a                    8.295099
_cell_length_b                    15.032457
_cell_length_c                    18.756964
_cell_angle_alpha                 98.933099
_cell_angle_beta                  92.850356
_cell_angle_gamma                 98.774934
_cell_volume                      2277.03302964

loop_
_atom_site_label
_atom_site_type_symbol
_atom_type_description
_atom_site_fract_x
_atom_site_fract_y
_atom_site_fract_z
_atom_type_partial_charge
Ba1   Ba    Ba6+2 0.852320 0.543020 0.467270 1.772408
Ba2   Ba    Ba6+2 0.337520 0.457050 0.532740 1.778402
C1    C     C_3   0.737120 0.883289 0.293205 0.589553
C2    C     C_3   0.400694 0.588700 0.255256 0.062877
C3    C     C_2   0.356195 0.563604 0.175094 -0.085831
C4    C     C_3   0.103515 0.731102 0.276371 0.269444
C5    C     C_2   0.207344 0.515094 0.150488 -0.064821
C6    C     C_2   0.100732 0.475653 0.204844 -0.141402
C7    C     C_1   0.156578 0.481979 0.273997 0.000790
C8    C     C_R   0.042813 0.496317 0.929718 0.520171
C9    C     C_R   0.149878 0.505817 0.071869 0.453065
C10   C     C_R   0.087067 0.528757 0.801859 -0.154029
C11   C     C_R   0.032129 0.521874 0.728315 0.099585
C12   C     C_3   0.671013 0.790844 0.313358 0.841661
C13   C     C_R   0.767657 0.444117 0.753153 -0.060961
C14   C     C_R   0.821347 0.450165 0.826127 0.523798
C15   C     C_R   0.983329 0.491509 0.851732 -0.143851
C16   C     C_3   0.094508 0.759161 0.201985 -0.286538
C17   C     C_R   0.874025 0.477722 0.704725 -0.357410
C18   C     C_R   0.855091 0.169588 0.549322 0.024902
C19   C     C_R   0.789321 0.075712 0.542113 -0.048903
C20   C     C_R   0.654190 0.886995 0.525290 -0.077724
C21   C     C_R   0.803179 0.922928 0.566612 -0.003942
C22   C     C_R   0.871214 0.014737 0.573306 -0.082295
C23   C     C_3   0.399664 0.287896 0.304988 0.620868
C24   C     C_R   0.587184 0.792622 0.514600 0.035949
C25   C     C_R   0.435826 0.761832 0.475179 -0.248293
C26   C     C_R   0.611228 0.196025 0.483227 0.039715
C27   C     C_R   0.546980 0.102543 0.473119 -0.071801
C28   C     C_3   0.247571 0.734613 0.621991 0.474710
C29   C     C_R   0.634771 0.042170 0.503523 0.024809
C30   C     C_R   0.396882 0.067830 0.433279 -0.056307
C31   C     C_R   0.329943 0.976760 0.426237 -0.043014
C32   C     C_R   0.413043 0.915507 0.456372 -0.001765
C33   C     C_R   0.568280 0.947903 0.494382 0.011633
C34   C     C_3   0.295369 0.219948 0.245257 -0.283154
C35   C     C_R   0.344458 0.822848 0.449680 0.053768
C36   C     C_R   0.761308 0.228746 0.522826 -0.145067
C37   C     C_3   0.290990 0.837909 0.643551 0.608896
C38   C     C_3   0.909940 0.247328 0.343380 1.067465
C39   C     C_3   0.790815 0.183222 0.286699 -0.217977
C40   C     C_3   0.707293 0.687381 0.701270 0.668833
C41   C     C_3   0.585960 0.699893 0.759500 0.279067
C42   C     C_3   0.058982 0.270399 0.725096 0.207630
C43   C     C_3   0.057047 0.243765 0.800094 0.648923
C44   C     C_3   0.539974 0.218056 0.683447 0.565151
C45   C     C_3   0.521412 0.124594 0.706624 0.649518
C46   C     C_2   0.302347 0.527860 0.299878 -0.194602
Cl1   Cl    Cl    0.020749 0.178047 0.388785 -0.771982
Cl2   Cl    Cl    0.903450 0.711533 0.748317 -0.575999
Cl3   Cl    Cl    0.623561 0.811309 0.813309 -0.482443
Cl4   Cl    Cl    0.525755 0.367059 0.262807 -0.697492
F1    F     F_    0.158545 0.873147 0.671605 -0.613578
F2    F     F_    0.829809 0.296945 0.393215 -0.724925
F3    F     F_    0.502895 0.783700 0.312159 -0.788600
F4    F     F_    0.673357 0.888870 0.224781 -0.649494
F5    F     F_    0.212519 0.233797 0.824198 -0.573526
F6    F     F_    0.360949 0.096665 0.720397 -0.590179
F7    F     F_    0.715078 0.415355 0.871386 -0.645988
H1    H     H_    0.721859 0.789086 0.368976 -0.096797
H2    H     H_    0.462845 0.692780 0.733892 0.042407
H3    H     H_    0.701326 0.938540 0.332783 -0.041592
H4    H     H_    0.320004 0.325288 0.339998 0.021530
H5    H     H_    0.215081 0.168043 0.268952 0.123801
H6    H     H_    0.218688 0.255723 0.212738 0.114871
H7    H     H_    0.374853 0.184085 0.208677 0.149241
H8    H     H_    0.111721 0.701336 0.160035 0.077176
H9    H     H_    0.146318 0.334826 0.727681 0.052081
H10   H     H_    0.934136 0.282075 0.709380 -0.015635
H11   H     H_    0.014213 0.297455 0.838583 -0.076243
H12   H     H_    0.396220 0.855220 0.684941 0.068570
H13   H     H_    0.972546 0.178462 0.798351 0.035963
H14   H     H_    0.668455 0.236092 0.670212 -0.439098
H15   H     H_    0.457220 0.213445 0.634186 0.022728
H16   H     H_    0.556397 0.074055 0.662842 -0.114660
H17   H     H_    0.008228 0.670768 0.276934 0.071483
H18   H     H_    0.602426 0.127524 0.756177 0.029138
H19   H     H_    0.436619 0.594975 0.138844 0.123891
H20   H     H_    0.978662 0.439288 0.186786 0.133474
H21   H     H_    0.209659 0.563607 0.819950 0.140262
H22   H     H_    0.342484 0.533603 0.356560 0.061828
H23   H     H_    0.324886 0.870059 0.596097 -0.144402
H24   H     H_    0.830952 0.472807 0.648629 0.089044
H25   H     H_    0.871088 0.881244 0.594277 0.183734
H26   H     H_    0.987428 0.037384 0.604414 0.154889
H27   H     H_    0.212500 0.955671 0.396188 0.123119
H28   H     H_    0.225085 0.712396 0.285925 0.071599
H29   H     H_    0.326886 0.110218 0.407423 0.143713
H30   H     H_    0.382765 0.690467 0.469119 0.061242
H31   H     H_    0.810136 0.300765 0.529447 0.092722
H32   H     H_    0.973657 0.778892 0.190125 0.169126
H33   H     H_    0.192127 0.817943 0.199914 0.172540
H34   H     H_    0.721635 0.222876 0.254616 0.144434
H35   H     H_    0.356378 0.706967 0.602739 -0.304494
H36   H     H_    0.148072 0.718852 0.578054 0.032051
H37   H     H_    0.705349 0.136081 0.312817 0.106410
H38   H     H_    0.859057 0.141393 0.248623 0.092064
H39   H     H_    0.683754 0.616024 0.671879 -0.133194
H40   H     H_    0.872193 0.893984 0.294037 0.003450
H41   H     H_    0.588245 0.647576 0.795211 0.033417
N1    N     N_R   0.196798 0.537556 0.954978 -0.205574
N2    N     N_R   0.248719 0.542280 0.024246 -0.204914
N3    N     N_R   0.996245 0.464131 0.046634 -0.206484
N4    N     N_R   0.944385 0.459451 0.977320 -0.129258
O1    O     O_2   0.865600 0.448450 0.327030 -0.376195
O2    O     O_2   0.194589 0.175487 0.544055 -0.444320
O3    O     O_3   0.107927 0.200455 0.676330 -0.550818
O4    O     O_3   0.118270 0.449980 0.414460 -0.459527
O5    O     O_3   0.581870 0.610700 0.539390 -0.490108
O6    O     O_2   0.335870 0.275730 0.458590 -0.441970
O7    O     O_3   0.499450 0.239956 0.342048 -0.632332
O8    O     O_2   0.431141 0.448157 0.752212 -0.459322
O9    O     O_3   0.499330 0.282559 0.739553 -0.505267
O10   O     O_3   0.656870 0.615610 0.375490 -0.478955
O11   O     O_2   0.722642 0.543889 0.243787 -0.432950
O12   O     O_3   0.698584 0.752839 0.656071 -0.617052
O13   O     O_3   0.017090 0.303066 0.307420 -0.685341
O14   O     O_3   0.716977 0.720242 0.263687 -0.620858
O15   O     O_2   0.853830 0.724300 0.541460 -0.458797
O16   O     O_3   0.080790 0.663040 0.412350 -0.514196
O17   O     O_2   0.011583 0.825412 0.463995 -0.498296
O18   O     O_3   0.079181 0.804079 0.328913 -0.613493
O19   O     O_2   0.324110 0.551580 0.673010 -0.504858
O20   O     O_3   0.071440 0.550090 0.585550 -0.492797
O21   O     O_3   0.532840 0.384460 0.624520 -0.515423
O22   O     O_3   0.198167 0.697904 0.682929 -0.559291
O23   O     O_3   0.607840 0.389380 0.460620 -0.407934
O24   O     O_3   0.108920 0.337040 0.587660 -0.486380
P1    P     P_3+3 0.033440 0.421460 0.337070 1.107992
P2    P     P_3+3 0.679060 0.710980 0.562120 1.020852
P3    P     P_3+3 0.129735 0.779685 0.414690 0.946163
P4    P     P_3+3 0.156270 0.578610 0.662940 1.060585
P5    P     P_3+3 0.066017 0.219571 0.588109 1.029642
P6    P     P_3+3 0.624857 0.614311 0.282900 1.078979
P7    P     P_3+3 0.514581 0.275145 0.436054 1.074451
P8    P     P_3+3 0.557639 0.391830 0.718326 1.088461

loop_
_geom_bond_atom_site_label_1
_geom_bond_atom_site_label_2
_ccdc_geom_bond_type
C28   O22   S    
Ba2   O5    S    
N1    N2    A    
O19   P4    D    
C32   C35   A    
O7    P7    S    
C5    C6    S    
Ba2   O19   S    
C5    C9    S    
C20   C33   A    
C19   C29   A    
C43   F5    S    
C24   C25   A    
C16   H32   S    
C26   C27   A    
O8    P8    D    
Ba1   Ba2   S    
C27   C30   A    
Ba1   P1    S    
C40   H39   S    
C23   H4    S    
C34   H7    S    
C42   O3    S    
C39   H37   S    
Ba1   O10   S    
C8    C15   S    
C38   Cl1   S    
O16   P3    S    
O15   P2    D    
C46   H22   S    
O20   P4    S    
C32   C33   A    
Ba1   O15   S    
N3    N4    A    
Ba1   O5    S    
C26   P7    S    
O2    P5    D    
C39   H34   S    
C14   C15   A    
C12   O14   S    
O9    P8    S    
C10   C15   A    
C6    H20   S    
Ba2   P4    S    
C21   C22   A    
C25   H30   S    
O3    P5    S    
O22   P4    S    
C18   P5    S    
O13   P1    S    
C22   H26   S    
C24   P2    S    
Ba2   O23   S    
C12   F3    S    
C43   H13   S    
O6    P7    D    
O17   P3    D    
C17   H24   S    
C45   H18   S    
C4    C16   S    
C21   H25   S    
C11   C17   A    
C41   H41   S    
Ba1   P2    S    
C3    C5    D    
C34   H6    S    
C6    C7    D    
O1    P1    D    
C13   P8    S    
Ba1   O4    S    
C16   H8    S    
C4    H28   S    
C35   P3    S    
Ba1   O16   S    
C13   C17   A    
C31   H27   S    
C28   H36   S    
C18   C36   A    
C1    F4    S    
C26   C36   A    
C31   C32   A    
O10   P6    S    
C42   H10   S    
C10   C11   A    
O4    P1    S    
C1    C12   S    
C40   Cl2   S    
O21   P8    S    
C40   O12   S    
C38   C39   S    
C38   F2    S    
C39   H38   S    
C42   H9    S    
C40   C41   S    
C4    O18   S    
O18   P3    S    
C44   H15   S    
C42   C43   S    
C41   H2    S    
C2    P6    S    
C2    C46   S    
C1    H3    S    
C44   C45   S    
Ba2   O6    S    
Ba2   O20   S    
C44   O9    S    
C43   H11   S    
C8    N1    A    
Ba1   O23   S    
C37   H23   S    
O23   P7    S    
C2    C3    S    
O14   P6    S    
C4    H17   S    
O11   P6    D    
C7    P1    S    
C12   H1    S    
C36   H31   S    
Ba2   O24   S    
C16   H33   S    
C30   C31   A    
C8    N4    A    
C23   Cl4   S    
C45   H16   S    
C27   C29   A    
O24   P5    S    
C45   F6    S    
C41   Cl3   S    
C37   F1    S    
C25   C35   A    
C10   H21   S    
Ba2   O4    S    
C11   P4    S    
C28   C37   S    
C38   O13   S    
C9    N2    A    
C29   C33   A    
Ba1   O20   S    
C23   O7    S    
C23   C34   S    
Ba2   O21   S    
C1    H40   S    
O12   P2    S    
C18   C19   A    
C7    C46   D    
C28   H35   S    
C20   C24   A    
C19   C22   A    
O5    P2    S    
C37   H12   S    
C20   C21   A    
C9    N3    A    
C3    H19   S    
C34   H5    S    
C14   F7    S    
C44   H14   S    
C13   C14   A    
Ba1   O1    S    
C30   H29   S    
