data_mof_unit_pretest_1132.cif
_audit_creation_date              2012-12-10T20:27:58-0500
_audit_creation_method            fapswitch 2.2
_symmetry_space_group_name_H-M    P1
_symmetry_Int_Tables_number       1
_space_group_crystal_system       triclinic
_cell_length_a                    12.851882
_cell_length_b                    10.674932
_cell_length_c                    9.865374
_cell_angle_alpha                 90.023741
_cell_angle_beta                  97.284791
_cell_angle_gamma                 89.946801
_cell_volume                      1342.53434154

loop_
_atom_site_label
_atom_site_type_symbol
_atom_type_description
_atom_site_fract_x
_atom_site_fract_y
_atom_site_fract_z
_atom_type_partial_charge
C1    C     C_R   0.496878 0.259955 0.499578 0.882916
C2    C     C_R   0.455711 0.935143 0.373854 -0.221164
C3    C     C_R   0.480224 0.871365 0.498022 -0.111349
C4    C     C_R   0.298371 0.504590 0.473228 0.860018
C5    C     C_R   0.485286 0.936079 0.621168 0.139689
C6    C     C_3   0.564834 0.928534 0.745378 -0.475002
C7    C     C_3   0.565245 0.070518 0.745419 -0.480554
C8    C     C_R   0.410657 0.472179 0.056398 0.238979
C9    C     C_R   0.585291 0.539050 0.085941 -0.136439
C10   C     C_R   0.585304 0.538996 0.942042 -0.152629
C11   C     C_R   0.410647 0.472408 0.913932 0.297257
C12   C     C_R   0.026372 0.554114 0.553158 0.146873
C13   C     C_3   0.350094 0.353332 0.897331 -0.494095
C14   C     C_3   0.350538 0.352519 0.051382 -0.532588
C15   C     C_R   0.496724 0.740004 0.499535 0.866581
C16   C     C_R   0.701553 0.500724 0.527008 0.883570
C17   C     C_R   0.812948 0.510762 0.544069 -0.037883
C18   C     C_R   0.185979 0.510041 0.456990 -0.129158
C19   C     C_R   0.024972 0.421239 0.349725 -0.215762
C20   C     C_R   0.131387 0.437926 0.353391 -0.196253
C21   C     C_R   0.134251 0.573761 0.554514 -0.093272
C22   C     C_2   0.194209 0.660711 0.653779 0.394175
C23   C     C_R   0.972923 0.476014 0.450243 0.163955
C24   C     C_R   0.866981 0.454786 0.447175 -0.274990
C25   C     C_R   0.863557 0.587112 0.646542 -0.234883
C26   C     C_R   0.969634 0.610427 0.650113 -0.175230
C27   C     C_R   0.485517 0.063849 0.621239 0.128274
C28   C     C_R   0.480635 0.128518 0.498081 -0.104593
C29   C     C_R   0.455968 0.064697 0.373905 -0.224050
H1    H     H_    0.825768 0.396281 0.367722 0.148493
H2    H     H_    0.396891 0.274209 0.102824 0.206554
H3    H     H_    0.820166 0.633103 0.719756 0.149759
H4    H     H_    0.983832 0.362745 0.270492 0.144516
H5    H     H_    0.004902 0.674118 0.727591 0.192648
H6    H     H_    0.172003 0.389151 0.279354 0.156801
H7    H     H_    0.444038 0.113684 0.277153 0.164177
H8    H     H_    0.443565 0.886004 0.277038 0.177138
H9    H     H_    0.531619 0.887654 0.834207 0.210896
H10   H     H_    0.247804 0.727848 0.617614 0.061945
H11   H     H_    0.640370 0.886723 0.723931 0.198137
H12   H     H_    0.532592 0.111557 0.834593 0.202097
H13   H     H_    0.640993 0.111476 0.723883 0.205271
H14   H     H_    0.654806 0.568864 0.151206 0.160699
H15   H     H_    0.654746 0.568563 0.899343 0.152066
H16   H     H_    0.270663 0.367517 0.840271 0.229623
H17   H     H_    0.395780 0.275295 0.859220 0.204125
H18   H     H_    0.271205 0.365357 0.082699 0.208394
N1    N     N_R   0.499290 0.499140 0.142710 -0.114955
N2    N     N_R   0.499290 0.499180 0.857070 -0.119006
O1    O     O_R   0.500010 0.316790 0.614690 -0.616814
O2    O     O_R   0.500000 0.316760 0.385350 -0.622786
O3    O     O_R   0.346360 0.499990 0.595720 -0.610027
O4    O     O_R   0.346350 0.499960 0.366370 -0.616972
O5    O     O_R   0.500000 0.683240 0.614650 -0.619359
O6    O     O_R   0.499990 0.683210 0.385310 -0.618670
O7    O     O_R   0.653650 0.500040 0.633630 -0.627737
O8    O     O_R   0.653640 0.500010 0.404280 -0.625201
O9    O     O_2   0.190142 0.651916 0.776379 -0.591567
Zn1   Zn    Zn3+2 0.500010 0.500020 0.653130 0.951394
Zn2   Zn    Zn3+2 0.499990 0.499980 0.346870 0.945964

loop_
_geom_bond_atom_site_label_1
_geom_bond_atom_site_label_2
_ccdc_geom_bond_type
C22   O9    D    
C1    C28   S    
C19   C23   A    
C23   C24   A    
C8    N1    A    
C6    C7    S    
C11   N2    A    
O3    Zn1   S    
C4    O4    A    
C10   N2    A    
C18   C21   A    
C11   C13   S    
C9    C10   A    
C1    O1    A    
N2    Zn1   S    
O7    Zn1   S    
C14   H2    S    
C16   O8    A    
C4    C18   S    
C25   H3    S    
C16   O7    A    
C2    C3    A    
C25   C26   A    
C7    C27   S    
C5    C27   A    
C13   C14   S    
C13   H16   S    
C1    O2    A    
C2    H8    S    
O6    Zn2   S    
C14   H18   S    
C4    O3    A    
C8    C11   A    
O1    Zn1   S    
C28   C29   A    
O4    Zn2   S    
N1    Zn2   S    
C18   C20   A    
O5    Zn1   S    
C2    C29   A    
C5    C6    S    
C6    H11   S    
C9    H14   S    
C24   H1    S    
C22   H10   S    
C10   H15   S    
C17   C24   A    
C15   O5    A    
C3    C15   S    
C9    N1    A    
C19   H4    S    
C7    H13   S    
C27   C28   A    
C13   H17   S    
C16   C17   S    
O8    Zn2   S    
C12   C23   A    
O2    Zn2   S    
C8    C14   S    
C6    H9    S    
C21   C22   S    
C20   H6    S    
C12   C21   A    
C26   H5    S    
C29   H7    S    
C19   C20   A    
C7    H12   S    
C12   C26   A    
C17   C25   A    
C3    C5    A    
C15   O6    A    
