data_mof_unit_pretest_387.cif
_audit_creation_date              2012-12-11T14:52:36-0500
_audit_creation_method            fapswitch 2.2
_symmetry_space_group_name_H-M    P1
_symmetry_Int_Tables_number       1
_space_group_crystal_system       triclinic
_cell_length_a                    18.836047
_cell_length_b                    10.906274
_cell_length_c                    18.778045
_cell_angle_alpha                 89.836445
_cell_angle_beta                  91.190303
_cell_angle_gamma                 89.551124
_cell_volume                      3856.62590682

loop_
_atom_site_label
_atom_site_type_symbol
_atom_type_description
_atom_site_fract_x
_atom_site_fract_y
_atom_site_fract_z
_atom_type_partial_charge
C1    C     C_R   0.272084 0.042656 0.853435 0.533326
C2    C     C_R   0.697382 0.534408 0.036150 -0.203015
C3    C     C_3   0.996131 0.329286 0.073337 0.045513
C4    C     C_R   0.807943 0.043758 0.963834 -0.193950
C5    C     C_R   0.194948 0.039184 0.035602 -0.197267
C6    C     C_R   0.290227 0.499538 0.033513 -0.132723
C7    C     C_R   0.701376 0.518168 0.962775 -0.166218
C8    C     C_R   0.801249 0.030630 0.037171 -0.126280
C9    C     C_R   0.199083 0.024606 0.962055 -0.161427
C10   C     C_R   0.223526 0.521541 0.063419 -0.039462
C11   C     C_R   0.752566 0.581939 0.924126 -0.034354
C12   C     C_R   0.736803 0.060070 0.068890 -0.033962
C13   C     C_R   0.725444 0.037358 0.144109 0.542737
C14   C     C_R   0.254306 0.080436 0.925048 -0.032662
C15   C     C_R   0.167224 0.563707 0.020230 -0.116552
C16   C     C_R   0.797013 0.665470 0.958557 -0.090039
C17   C     C_R   0.677608 0.092406 0.026130 -0.112213
C18   C     C_R   0.303626 0.152948 0.961605 -0.092726
C19   C     C_R   0.177483 0.588807 0.948929 0.360755
C20   C     C_R   0.795603 0.677607 0.031163 0.349913
C21   C     C_R   0.683227 0.101004 0.953327 0.351055
C22   C     C_R   0.302321 0.161672 0.034255 0.337147
C23   C     C_R   0.245496 0.575708 0.919799 0.028365
C24   C     C_R   0.771877 0.542783 0.853255 0.532548
C25   C     C_R   0.745721 0.611840 0.071150 0.019787
C26   C     C_R   0.749460 0.083547 0.921892 0.026922
C27   C     C_R   0.247298 0.106178 0.072436 0.019859
C28   C     C_R   0.472080 0.723205 0.529081 -0.103767
C29   C     C_R   0.478231 0.726951 0.456400 -0.117922
C30   C     C_R   0.972082 0.223207 0.529081 -0.103630
C31   C     C_R   0.978231 0.226952 0.456400 -0.118537
C32   C     C_R   0.500533 0.834358 0.423406 0.011966
C33   C     C_R   0.484617 0.828508 0.570268 0.020474
C34   C     C_R   0.000533 0.334357 0.423405 0.011172
C35   C     C_R   0.210452 0.498600 0.138776 0.547225
C36   C     C_R   0.984617 0.328509 0.570268 0.020501
C37   C     C_R   0.510382 0.941868 0.463582 -0.124170
C38   C     C_R   0.501731 0.939144 0.537036 -0.125639
C39   C     C_R   0.010380 0.441867 0.463582 -0.124456
C40   C     C_R   0.001729 0.439143 0.537035 -0.125592
C41   C     C_R   0.438067 0.817179 0.862309 0.555260
C42   C     C_R   0.527069 0.822088 0.145742 0.544895
C43   C     C_R   0.937679 0.317025 0.862260 0.554501
C44   C     C_R   0.026896 0.322192 0.145826 0.536080
C45   C     C_R   0.207736 0.687394 0.525592 -0.110216
C46   C     C_3   0.510979 0.733495 0.973887 -0.098668
C47   C     C_R   0.793914 0.682834 0.473739 -0.102872
C48   C     C_R   0.707751 0.187428 0.525584 -0.110037
C49   C     C_R   0.293909 0.182843 0.473740 -0.103105
C50   C     C_R   0.208597 0.683042 0.452885 0.306721
C51   C     C_R   0.792560 0.680813 0.546379 0.312817
C52   C     C_R   0.708610 0.183068 0.452877 0.306836
C53   C     C_R   0.292556 0.180818 0.546380 0.312852
C54   C     C_R   0.253502 0.598725 0.419937 0.033497
C55   C     C_R   0.746477 0.600265 0.580143 0.032273
C56   C     C_R   0.753509 0.098737 0.419932 0.034030
C57   C     C_3   0.459648 0.720379 0.036296 -0.113573
C58   C     C_R   0.246476 0.100264 0.580143 0.032289
C59   C     C_R   0.307101 0.537423 0.459817 0.295403
C60   C     C_R   0.691757 0.542640 0.540941 0.309179
C61   C     C_R   0.807106 0.037431 0.459813 0.296009
C62   C     C_R   0.191759 0.042633 0.540940 0.309154
C63   C     C_R   0.307609 0.545409 0.533318 -0.108049
C64   C     C_R   0.691051 0.550025 0.467373 -0.092381
C65   C     C_R   0.807613 0.045421 0.533314 -0.107980
C66   C     C_R   0.191052 0.050022 0.467372 -0.092144
C67   C     C_R   0.255858 0.616333 0.566431 -0.096690
C68   C     C_3   0.006018 0.227773 0.975400 -0.096200
C69   C     C_R   0.744265 0.615715 0.433553 -0.098558
C70   C     C_R   0.755866 0.116355 0.566425 -0.096724
C71   C     C_R   0.244264 0.115719 0.433553 -0.098761
C72   C     C_R   0.260054 0.633857 0.851193 0.560375
C73   C     C_R   0.738097 0.641981 0.146192 0.558399
C74   C     C_R   0.760419 0.134118 0.851138 0.563111
C75   C     C_R   0.238631 0.139941 0.146845 0.552912
C76   C     C_R   0.269550 0.050083 0.647936 0.582971
C77   C     C_R   0.730432 0.049900 0.352110 0.585040
C78   C     C_R   0.769550 0.550083 0.647936 0.582780
C79   C     C_3   0.954604 0.224460 0.038137 -0.115458
C80   C     C_R   0.230431 0.549899 0.352111 0.594168
C81   C     C_R   0.467101 0.822954 0.645141 0.558506
C82   C     C_R   0.529355 0.824264 0.352609 0.544935
C83   C     C_R   0.967101 0.322954 0.645141 0.558540
C84   C     C_R   0.029355 0.324264 0.352608 0.545107
C85   C     C_R   0.261130 0.641528 0.641444 0.563261
C86   C     C_R   0.738944 0.641544 0.358514 0.559406
C87   C     C_R   0.761132 0.141537 0.641441 0.563401
C88   C     C_R   0.238944 0.141546 0.358514 0.561872
C89   C     C_3   0.444263 0.920448 0.038366 -0.131038
C90   C     C_R   0.301249 0.527059 0.962055 -0.205636
C91   C     C_3   0.495337 0.933525 0.975176 -0.089696
C92   C     C_3   0.947846 0.425789 0.037135 -0.130313
C93   C     C_3   0.999173 0.429016 0.973739 -0.099056
C94   C     C_3   0.407000 0.811833 0.999993 -0.154801
C95   C     C_3   0.547817 0.842064 0.011250 -0.104574
C96   C     C_3   0.905790 0.320667 0.000465 -0.152100
C97   C     C_3   0.047654 0.332559 0.011038 -0.112989
C98   C     C_3   0.458804 0.824641 0.938314 0.039586
C99   C     C_3   0.496460 0.828862 0.073255 0.044379
C100  C     C_3   0.957858 0.323896 0.938518 0.042023
Cr1   Cr    Cr6+3 0.229630 0.835900 0.747350 1.110845
Cr2   Cr    Cr6+3 0.614200 0.677120 0.250660 1.059125
Cr3   Cr    Cr6+3 0.885800 0.177120 0.749340 1.053441
Cr4   Cr    Cr6+3 0.114200 0.177120 0.250660 1.053796
Cr5   Cr    Cr6+3 0.770370 0.835900 0.252650 1.114464
Cr6   Cr    Cr6+3 0.729630 0.335900 0.747350 1.108267
Cr7   Cr    Cr6+3 0.270370 0.335900 0.252650 1.111562
Cr8   Cr    Cr6+3 0.387410 0.989850 0.750850 1.087250
Cr9   Cr    Cr6+3 0.612590 0.989850 0.249150 1.073851
Cr10  Cr    Cr6+3 0.887410 0.489850 0.750850 1.089337
Cr11  Cr    Cr6+3 0.112590 0.489850 0.249150 1.067857
Cr12  Cr    Cr6+3 0.385800 0.677120 0.749340 1.054464
F1    F     F_    0.161148 0.753539 0.415309 -0.613362
F2    F     F_    0.843594 0.754966 0.061402 -0.638023
F3    F     F_    0.624434 0.132964 0.914251 -0.635707
F4    F     F_    0.355532 0.225982 0.066296 -0.644287
F5    F     F_    0.840970 0.748988 0.583133 -0.609041
F6    F     F_    0.661164 0.253566 0.415298 -0.614311
F7    F     F_    0.340963 0.248995 0.583135 -0.609043
F8    F     F_    0.356372 0.465355 0.428351 -0.626254
F9    F     F_    0.641479 0.474784 0.573168 -0.611617
F10   F     F_    0.856372 0.965352 0.428348 -0.626900
F11   F     F_    0.141484 0.974768 0.573165 -0.611591
F12   F     F_    0.121452 0.632522 0.909635 -0.634348
H1    H     H_    0.538864 0.656769 0.947232 0.144651
H2    H     H_    0.509321 0.022119 0.567738 0.163961
H3    H     H_    0.028116 0.525878 0.438982 0.175940
H4    H     H_    0.009318 0.522117 0.567737 0.164020
H5    H     H_    0.348734 0.799459 0.993815 0.118334
H6    H     H_    0.606166 0.853847 0.016901 0.123120
H7    H     H_    0.847096 0.315681 0.994605 0.115580
H8    H     H_    0.106413 0.334651 0.016282 0.111356
H9    H     H_    0.169759 0.748782 0.549564 0.238909
H10   H     H_    0.833366 0.739902 0.449311 0.242708
H11   H     H_    0.669779 0.248825 0.549556 0.238900
H12   H     H_    0.444735 0.633070 0.062368 0.136487
H13   H     H_    0.333359 0.239917 0.449313 0.242740
H14   H     H_    0.348108 0.496649 0.564122 0.215543
H15   H     H_    0.649298 0.504810 0.437128 0.220361
H16   H     H_    0.848108 0.996652 0.564119 0.215514
H17   H     H_    0.149302 0.004802 0.437126 0.220503
H18   H     H_    0.417580 0.996241 0.066815 0.174153
H19   H     H_    0.509307 0.021136 0.949067 0.203581
H20   H     H_    0.924316 0.506673 0.063838 0.160970
H21   H     H_    0.016130 0.513268 0.946056 0.206252
H22   H     H_    0.354134 0.516890 0.941161 0.152494
H23   H     H_    0.030298 0.146260 0.949948 0.141615
H24   H     H_    0.657471 0.485618 0.065469 0.154469
H25   H     H_    0.859530 0.029149 0.940734 0.154918
H26   H     H_    0.151256 0.998258 0.063487 0.157793
H27   H     H_    0.334535 0.465986 0.065805 0.204212
H28   H     H_    0.666728 0.452241 0.937011 0.177616
H29   H     H_    0.846273 0.999256 0.069155 0.188843
H30   H     H_    0.160732 0.967048 0.934713 0.173849
H31   H     H_    0.456319 0.637177 0.552676 0.174854
H32   H     H_    0.469733 0.643184 0.426619 0.195983
H33   H     H_    0.956323 0.137179 0.552676 0.174868
H34   H     H_    0.937709 0.140945 0.066604 0.126503
H35   H     H_    0.969734 0.143186 0.426619 0.195508
H36   H     H_    0.115040 0.578518 0.042019 0.152955
H37   H     H_    0.836639 0.716314 0.929927 0.170230
H38   H     H_    0.625892 0.108657 0.048664 0.166676
H39   H     H_    0.346912 0.197148 0.934682 0.173134
H40   H     H_    0.528119 0.025881 0.438983 0.176157
O1    O     O_R   0.214270 0.709000 0.827470 -0.433177
O2    O     O_R   0.543270 0.717630 0.330160 -0.510210
O3    O     O_R   0.956730 0.217630 0.669840 -0.505129
O4    O     O_R   0.043270 0.217630 0.330160 -0.509549
O5    O     O_R   0.320620 0.625640 0.672920 -0.499878
O6    O     O_R   0.679380 0.625640 0.327080 -0.492594
O7    O     O_R   0.820620 0.125640 0.672920 -0.499709
O8    O     O_R   0.179380 0.125640 0.327080 -0.490268
O9    O     O_3   0.334280 0.834290 0.749180 -0.309232
O10   O     O_3   0.665720 0.834290 0.250820 -0.286000
O11   O     O_3   0.834280 0.334290 0.749180 -0.309616
O12   O     O_R   0.785730 0.709000 0.172530 -0.435967
O13   O     O_3   0.165720 0.334290 0.250820 -0.301507
O14   O     O_R   0.236160 0.958490 0.823130 -0.503343
O15   O     O_R   0.763840 0.958490 0.176870 -0.483150
O16   O     O_R   0.736160 0.458490 0.823130 -0.505306
O17   O     O_R   0.263840 0.458490 0.176870 -0.491099
O18   O     O_R   0.332080 0.075470 0.831280 -0.529743
O19   O     O_R   0.667920 0.075470 0.168720 -0.524722
O20   O     O_R   0.832080 0.575470 0.831280 -0.526797
O21   O     O_R   0.167920 0.575470 0.168720 -0.507688
O22   O     O_R   0.446300 0.918110 0.826620 -0.482223
O23   O     O_R   0.714270 0.209000 0.827470 -0.436135
O24   O     O_R   0.553700 0.918110 0.173380 -0.502681
O25   O     O_R   0.946300 0.418110 0.826620 -0.480379
O26   O     O_R   0.053700 0.418110 0.173380 -0.519028
O27   O     O_R   0.457110 0.716200 0.831760 -0.508464
O28   O     O_R   0.542890 0.716200 0.168240 -0.513293
O29   O     O_R   0.957110 0.216200 0.831760 -0.509926
O30   O     O_R   0.042890 0.216200 0.168240 -0.513457
O31   O     O_R   0.320980 0.624310 0.823030 -0.535040
O32   O     O_R   0.679020 0.624310 0.176970 -0.515302
O33   O     O_R   0.820980 0.124310 0.823030 -0.537316
O34   O     O_R   0.285730 0.209000 0.172530 -0.439812
O35   O     O_R   0.179020 0.124310 0.176970 -0.516246
O36   O     O_R   0.213890 0.710430 0.665540 -0.492847
O37   O     O_R   0.786110 0.710430 0.334460 -0.499593
O38   O     O_R   0.713890 0.210430 0.665540 -0.493050
O39   O     O_R   0.286110 0.210430 0.334460 -0.497781
O40   O     O_R   0.235810 0.959820 0.673020 -0.453688
O41   O     O_R   0.764190 0.959820 0.326980 -0.454726
O42   O     O_R   0.735810 0.459820 0.673020 -0.453577
O43   O     O_R   0.264190 0.459820 0.326980 -0.450209
O44   O     O_R   0.331700 0.076900 0.669350 -0.448275
O45   O     O_R   0.445950 0.919440 0.676520 -0.489684
O46   O     O_R   0.668300 0.076900 0.330650 -0.453738
O47   O     O_R   0.831700 0.576900 0.669350 -0.448445
O48   O     O_R   0.168300 0.576900 0.330650 -0.451019
O49   O     O_R   0.554050 0.919440 0.323480 -0.502278
O50   O     O_R   0.945950 0.419440 0.676520 -0.489501
O51   O     O_R   0.054050 0.419440 0.323480 -0.502055
O52   O     O_R   0.456730 0.717630 0.669840 -0.505231

loop_
_geom_bond_atom_site_label_1
_geom_bond_atom_site_label_2
_ccdc_geom_bond_type
C58   C62   A    
C30   H33   S    
C81   O45   A    
C21   C26   A    
Cr2   O6    S    
C59   F8    S    
C88   O8    A    
C53   C58   A    
C49   H13   S    
C24   O20   A    
C72   O1    A    
C14   C18   A    
C46   H1    S    
Cr1   O9    S    
C2    C7    A    
C4    C8    A    
C3    C79   S    
C79   H34   S    
C68   C100  S    
Cr8   O45   S    
Cr1   O36   S    
C58   C76   S    
C66   H17   S    
Cr10  O11   S    
C7    C11   A    
C4    H25   S    
C50   C54   A    
Cr7   O17   S    
Cr8   O22   S    
C28   C29   A    
Cr10  O50   S    
C25   C73   S    
Cr11  O51   S    
Cr6   O23   S    
C29   C32   A    
Cr9   O49   S    
C10   C15   A    
C30   C31   A    
C95   C99   S    
C81   O52   A    
Cr4   O4    S    
C20   C25   A    
C94   C98   S    
C36   C83   S    
C2    H24   S    
C65   C70   A    
C57   C99   S    
C11   C24   S    
C92   C96   S    
C76   O44   A    
Cr3   O33   S    
C89   C94   S    
C91   C98   S    
Cr11  O48   S    
C47   C69   A    
Cr1   O14   S    
C48   H11   S    
C44   O26   A    
C5    C27   A    
C65   H16   S    
Cr8   O18   S    
C46   C95   S    
Cr4   O13   S    
C13   O19   A    
Cr5   O12   S    
C12   C17   A    
C24   O16   A    
C95   H6    S    
Cr2   O28   S    
Cr6   O11   S    
C57   H12   S    
C93   H21   S    
C10   C35   S    
C8    C12   A    
C89   C91   S    
C87   O38   A    
Cr7   O43   S    
C84   O51   A    
C16   C20   A    
C76   O40   A    
C80   O48   A    
Cr9   O19   S    
C68   C79   S    
C22   F4    S    
Cr12  O9    S    
C46   C98   S    
Cr10  O20   S    
Cr2   O2    S    
C26   C74   S    
C18   C22   A    
C55   C60   A    
Cr7   O13   S    
Cr3   O7    S    
Cr7   O39   S    
C34   C84   S    
Cr5   O15   S    
C27   C75   S    
C70   C87   S    
Cr6   O16   S    
C62   F11   S    
C38   H2    S    
C91   H19   S    
C54   C59   A    
Cr9   O24   S    
C19   F12   S    
C63   C67   A    
C3    C44   S    
Cr11  O21   S    
C94   H5    S    
C67   C85   S    
C62   C66   A    
C34   C39   A    
C32   C37   A    
C36   C40   A    
C21   F3    S    
C39   H3    S    
C43   C100  S    
C97   H8    S    
C39   C40   A    
C55   C78   S    
C41   O27   A    
Cr9   O10   S    
C68   C97   S    
C47   C51   A    
C6    C90   A    
C83   O3    A    
C42   O28   A    
C85   O5    A    
C56   C77   S    
C7    H28   S    
C3    C92   S    
C15   C19   A    
C9    C14   A    
C78   O42   A    
Cr12  O31   S    
C5    C9    A    
C37   C38   A    
C84   O4    A    
C77   O41   A    
Cr6   O38   S    
C82   O49   A    
C1    O14   A    
C3    C97   S    
C85   O36   A    
Cr5   O37   S    
C66   C71   A    
C93   C100  S    
C74   O33   A    
C48   C52   A    
C92   C93   S    
C35   O21   A    
C87   O7    A    
Cr8   O9    S    
Cr3   O11   S    
C23   C90   A    
C56   C61   A    
Cr3   O3    S    
Cr1   O1    S    
C8    H29   S    
C86   O37   A    
C43   O25   A    
C68   H23   S    
C77   O46   A    
C96   H7    S    
C6    H27   S    
Cr6   O42   S    
C89   C99   S    
C28   C33   A    
C57   C94   S    
C29   H32   S    
C47   H10   S    
C22   C27   A    
C51   F5    S    
C63   H14   S    
C35   O17   A    
C61   C65   A    
Cr9   O46   S    
C93   C97   S    
Cr4   O8    S    
C83   O50   A    
C31   C34   A    
C19   C23   A    
C74   O23   A    
C82   O2    A    
C75   O34   A    
C42   O24   A    
Cr8   O44   S    
C86   O6    A    
C45   H9    S    
C23   C72   S    
C72   O31   A    
C48   C70   A    
Cr1   O40   S    
Cr2   O32   S    
Cr5   O10   S    
C6    C10   A    
Cr7   O34   S    
C4    C26   A    
C1    O18   A    
C53   F7    S    
Cr5   O41   S    
C45   C67   A    
C75   O35   A    
C16   H37   S    
Cr2   O10   S    
C64   C69   A    
C43   O29   A    
Cr10  O25   S    
C59   C63   A    
C33   C38   A    
C30   C36   A    
C60   C64   A    
C50   F1    S    
Cr10  O47   S    
C54   C80   S    
C79   C96   S    
C46   C57   S    
C28   H31   S    
C13   O15   A    
C42   C99   S    
C32   C82   S    
C20   F2    S    
C18   H39   S    
C45   C50   A    
C73   O12   A    
C49   C53   A    
C96   C100  S    
C44   O30   A    
Cr4   O35   S    
C41   O22   A    
C2    C25   A    
C51   C55   A    
Cr12  O52   S    
C88   O39   A    
C60   F9    S    
C92   H20   S    
C17   C21   A    
C11   C16   A    
C17   H38   S    
C5    H26   S    
C91   C95   S    
C71   C88   S    
C52   C56   A    
C15   H36   S    
C80   O43   A    
C12   C13   S    
Cr12  O5    S    
Cr11  O26   S    
C90   H22   S    
C49   C71   A    
C73   O32   A    
C37   H40   S    
Cr11  O13   S    
Cr4   O30   S    
C41   C98   S    
C61   F10   S    
C1    C14   S    
Cr3   O29   S    
C33   C81   S    
C78   O47   A    
C31   H35   S    
C69   C86   S    
C89   H18   S    
C9    H30   S    
C52   F6    S    
Cr12  O27   S    
C64   H15   S    
C40   H4    S    
