data_mof_unit_pretest_1488.cif
_audit_creation_date              2012-12-11T15:13:45-0500
_audit_creation_method            fapswitch 2.2
_symmetry_space_group_name_H-M    P1
_symmetry_Int_Tables_number       1
_space_group_crystal_system       triclinic
_cell_length_a                    6.966939
_cell_length_b                    13.67177
_cell_length_c                    20.094073
_cell_angle_alpha                 104.297646
_cell_angle_beta                  89.732474
_cell_angle_gamma                 91.002634
_cell_volume                      1854.40067022

loop_
_atom_site_label
_atom_site_type_symbol
_atom_type_description
_atom_site_fract_x
_atom_site_fract_y
_atom_site_fract_z
_atom_type_partial_charge
O1    O     O_R   0.506780 0.600060 0.449950 -0.539167
O2    O     O_R   0.179840 0.597110 0.589410 -0.544769
O3    O     O_R   0.004570 0.399940 0.550050 -0.540373
C1    C     C_R   0.348363 0.615660 0.617751 0.684914
O4    O     O_R   0.177380 0.612160 0.452890 -0.542279
O5    O     O_R   0.002100 0.415100 0.412560 -0.541893
C2    C     C_R   0.347651 0.637410 0.435342 0.694358
O6    O     O_R   0.509250 0.584900 0.587440 -0.541293
O7    O     O_3   0.337570 0.435330 0.486930 -0.369438
V1    V     V_3+5 0.064650 0.512000 0.502430 1.416134
O8    O     O_R   0.672090 0.402890 0.410590 -0.539152
C3    C     C_R   0.840396 0.380919 0.383280 0.689713
O9    O     O_R   0.674540 0.387840 0.547110 -0.542441
C4    C     C_R   0.841991 0.363087 0.564321 0.710132
V2    V     V_3+5 0.564040 0.488000 0.497570 1.420845
O10   O     O_3   0.840990 0.564670 0.513070 -0.372850
C5    C     C_R   0.857431 0.106411 0.597824 -0.162698
H1    H     H_    0.868453 0.029514 0.567466 0.138857
C6    C     C_R   0.847495 0.282096 0.599032 -0.028138
C7    C     C_R   0.835461 0.308357 0.926401 -0.150108
C8    C     C_R   0.805028 0.381807 0.891316 -0.109212
C9    C     C_R   0.803839 0.356956 0.820093 -0.141431
C10   C     C_R   0.839239 0.257191 0.781270 0.060180
C11   C     C_R   0.868980 0.180225 0.816925 0.011669
C12   C     C_R   0.845973 0.232677 0.708038 0.034629
C13   C     C_R   0.855504 0.130307 0.670486 0.059270
C14   C     C_R   0.870136 0.053429 0.705419 0.174969
C15   C     C_R   0.901011 0.079358 0.777334 0.064509
C16   C     C_R   0.845764 0.307535 0.670618 -0.249768
C17   C     C_R   0.852416 0.181040 0.561902 0.157294
C18   C     C_R   0.864411 0.208181 0.890873 -0.059864
H2    H     H_    0.849459 0.387030 0.695387 0.100025
H3    H     H_    0.830978 0.329371 0.982075 0.100856
H4    H     H_    0.769692 0.417758 0.797095 0.104002
H5    H     H_    0.778147 0.458638 0.919635 0.123938
C19   C     C_3   0.710833 0.181098 0.242230 -0.173496
C20   C     C_3   0.869587 0.194725 0.297825 -0.193231
H6    H     H_    0.881890 0.149184 0.336207 0.122212
H7    H     H_    0.594961 0.123517 0.235147 0.116585
C21   C     C_3   0.848710 0.310342 0.312920 -0.046452
C22   C     C_3   0.691658 0.296863 0.258048 0.227324
C23   C     C_3   0.843232 0.303193 0.203016 -0.187235
C24   C     C_3   0.002665 0.316724 0.258575 -0.173246
C25   C     C_3   0.021462 0.200710 0.242857 0.232324
C26   C     C_3   0.864474 0.187495 0.187882 -0.048219
H8    H     H_    0.830651 0.347636 0.163908 0.115774
H9    H     H_    0.116999 0.375527 0.266102 0.116144
C27   C     C_3   0.531160 0.746770 0.722703 -0.168046
C28   C     C_3   0.394876 0.835455 0.747467 0.222508
H10   H     H_    0.673893 0.746365 0.698159 0.111923
C29   C     C_3   0.355343 0.805122 0.814450 -0.012648
C30   C     C_3   0.489856 0.714214 0.790387 -0.164906
C31   C     C_3   0.315786 0.648573 0.755868 -0.137713
C32   C     C_3   0.181698 0.740093 0.780634 -0.163412
C33   C     C_3   0.221963 0.772368 0.712979 -0.146481
C34   C     C_3   0.356634 0.682430 0.689284 -0.032327
H11   H     H_    0.599383 0.690100 0.822728 0.110115
H12   H     H_    0.283601 0.569894 0.758704 0.109812
H13   H     H_    0.038074 0.737646 0.804402 0.115467
H14   H     H_    0.114820 0.793525 0.678866 0.111613
C35   C     C_R   0.486038 0.877044 0.387595 -0.163457
H15   H     H_    0.481579 0.827979 0.480962 0.103652
H16   H     H_    0.540655 0.997744 0.304814 0.120798
H17   H     H_    0.543275 0.950907 0.412960 0.109503
C36   C     C_R   0.365930 0.714018 0.395869 -0.036291
C37   C     C_R   0.293976 0.686881 0.066221 -0.208335
C38   C     C_R   0.291455 0.607389 0.097853 0.263875
C39   C     C_R   0.335817 0.624353 0.168147 0.149449
C40   C     C_R   0.366905 0.725429 0.209077 -0.001623
C41   C     C_R   0.389720 0.803562 0.173553 0.039943
C42   C     C_R   0.383830 0.752530 0.282831 0.089223
C43   C     C_R   0.453754 0.850700 0.316454 0.151024
C44   C     C_R   0.489116 0.922640 0.279272 -0.210292
C45   C     C_R   0.452356 0.900463 0.209453 -0.181379
C46   C     C_R   0.326961 0.688205 0.325214 -0.240063
C47   C     C_R   0.448105 0.807961 0.426611 -0.165256
C48   C     C_R   0.351458 0.783324 0.102295 -0.136531
H18   H     H_    0.251538 0.618053 0.305190 0.113391
H19   H     H_    0.261214 0.672070 0.011890 0.132813
H20   H     H_    0.476236 0.959980 0.183422 0.119651
O11   O     O_R   0.203580 0.914920 0.912610 -0.543312
O12   O     O_R   0.535710 0.887810 0.047120 -0.542100
O13   O     O_R   0.710730 0.084950 0.087430 -0.543111
C49   C     C_R   0.365615 0.862084 0.064236 0.708555
O14   O     O_R   0.533010 0.902850 0.910600 -0.547874
O15   O     O_R   0.708010 0.100090 0.949930 -0.536976
C50   C     C_R   0.363754 0.878649 0.884005 0.693541
O16   O     O_R   0.206300 0.899780 0.050100 -0.539197
O17   O     O_3   0.375170 0.064580 0.013100 -0.368768
V3    V     V_3+5 0.648200 0.988020 0.997570 1.411365
O18   O     O_R   0.038030 0.112330 0.952840 -0.544449
C51   C     C_R   0.870592 0.135491 0.933717 0.701145
O19   O     O_R   0.040730 0.097300 0.089360 -0.538384
C52   C     C_R   0.872554 0.118089 0.117084 0.699242
V4    V     V_3+5 0.148780 0.012220 0.002360 1.414024
O20   O     O_3   0.871930 0.935430 0.986900 -0.374422
C53   C     C_3   0.856136 0.149421 0.484432 -0.810173
H21   H     H_    0.856501 0.214180 0.460470 0.191310
H22   H     H_    0.986965 0.105066 0.466906 0.211253
H23   H     H_    0.727696 0.101740 0.465592 0.200428
C54   C     C_3   0.504407 0.352880 0.267578 -0.788628
H24   H     H_    0.427777 0.338018 0.217740 0.218403
H25   H     H_    0.415444 0.327547 0.306229 0.219085
H26   H     H_    0.534353 0.434753 0.286870 0.200396
C55   C     C_3   0.205011 0.141293 0.235060 -0.799660
H27   H     H_    0.283585 0.159382 0.284575 0.204564
H28   H     H_    0.169161 0.059403 0.220744 0.208761
H29   H     H_    0.294734 0.160271 0.194135 0.220346
N1    N     N_3   0.429874 0.939329 0.744150 -0.691809
H30   H     H_    0.449291 0.939396 0.692641 0.236707
H31   H     H_    0.557456 0.964002 0.770385 0.241092
C56   C     C_3   0.856741 0.943768 0.665037 -0.838994
H32   H     H_    0.827981 0.891602 0.698006 0.208944
H33   H     H_    0.733266 0.931777 0.629089 0.197297
H34   H     H_    0.991025 0.922626 0.635451 0.213032
N2    N     N_3   0.382914 0.536986 0.191638 -0.708723
H35   H     H_    0.494610 0.553461 0.227308 0.239984
H36   H     H_    0.259949 0.507654 0.210064 0.221172
N3    N     N_3   0.250857 0.507687 0.056673 -0.666034
H37   H     H_    0.370617 0.462986 0.057558 0.253490
H38   H     H_    0.135349 0.477379 0.078826 0.229114
C57   C     C_3   0.993212 0.002481 0.808729 -0.694672
H39   H     H_    0.053684 0.939469 0.770435 0.224385
H40   H     H_    0.121861 0.037189 0.837801 0.230625
H41   H     H_    0.888922 0.970289 0.839733 0.193127

loop_
_geom_bond_atom_site_label_1
_geom_bond_atom_site_label_2
_ccdc_geom_bond_type
C33   C34   S    
C22   C23   S    
O17   V4    S    
O19   C52   A    
C31   H12   S    
C44   C45   A    
V4    O20   S    
C1    O6    A    
C56   H33   S    
C53   H21   S    
C31   C32   S    
C30   C31   S    
C37   H19   S    
C55   H28   S    
C17   C53   S    
C13   C14   A    
C54   H24   S    
C36   C47   A    
C5    C13   A    
C8    C9    A    
C19   C20   S    
C20   C21   S    
N1    H31   S    
O5    C3    A    
O11   V4    S    
C15   C57   S    
V2    O10   S    
N2    H35   S    
C23   H8    S    
C40   C42   A    
O8    V2    S    
C21   C24   S    
O15   C51   A    
N2    H36   S    
C39   C40   A    
C28   C29   S    
C41   C45   A    
C10   C11   A    
O1    V2    S    
O7    V1    S    
C27   H10   S    
C37   C38   A    
O16   V4    S    
O19   V4    S    
C45   H20   S    
O9    C4    A    
C1    C34   S    
C41   C48   A    
C5    C17   A    
H15   C47   S    
C19   C22   S    
C26   C52   S    
C56   H32   S    
C53   H22   S    
C32   H13   S    
N3    H38   S    
C35   C47   A    
C12   C16   A    
C9    H4    S    
C55   H29   S    
O14   C50   A    
C29   C30   S    
C49   O16   A    
O15   V3    S    
C29   C50   S    
O18   C51   A    
O4    C2    A    
H16   C44   S    
C48   C49   S    
C12   C13   A    
C25   C55   S    
O13   C52   A    
C38   C39   A    
C23   C26   S    
C3    C21   S    
C35   H17   S    
O2    C1    A    
C24   C25   S    
C20   H6    S    
C2    C36   S    
C27   C30   S    
N3    H37   S    
C5    H1    S    
C19   C26   S    
O11   C50   A    
O3    C4    A    
C39   N2    S    
C7    H3    S    
C35   C43   A    
C21   C22   S    
C14   C56   S    
C54   H26   S    
O12   C49   A    
O9    V2    S    
C23   C24   S    
C57   H40   S    
C6    C16   A    
C53   H23   S    
C25   C26   S    
C28   N1    S    
C31   C34   S    
C27   C34   S    
O13   V3    S    
C32   C33   S    
C27   C28   S    
O1    C2    A    
C4    C6    S    
C19   H7    S    
C11   C15   A    
C43   C44   A    
O12   V3    S    
O5    V1    S    
O14   V3    S    
V3    O20   S    
C8    H5    S    
O6    V2    S    
C55   H27   S    
C36   C46   A    
C29   C32   S    
C57   H41   S    
O7    V2    S    
C11   C18   A    
O4    V1    S    
O3    V1    S    
C28   C33   S    
N1    H30   S    
C42   C46   A    
C38   N3    S    
C20   C25   S    
C22   C54   S    
C37   C48   A    
C40   C41   A    
C46   H18   S    
C16   H2    S    
C30   H11   S    
O18   V4    S    
C42   C43   A    
C10   C12   A    
C7    C8    A    
C54   H25   S    
C18   C51   S    
C14   C15   A    
C57   H39   S    
C9    C10   A    
V1    O10   S    
O17   V3    S    
C33   H14   S    
C6    C17   A    
C24   H9    S    
C56   H34   S    
O8    C3    A    
C7    C18   A    
O2    V1    S    
