data_mof_unit_pretest_263.cif
_audit_creation_date              2013-03-05T15:45:35-0500
_audit_creation_method            fapswitch 2.2
_symmetry_space_group_name_H-M    P1
_symmetry_Int_Tables_number       1
_space_group_crystal_system       triclinic
_cell_length_a                    27.429386
_cell_length_b                    10.643326
_cell_length_c                    9.999999
_cell_angle_alpha                 89.651212
_cell_angle_beta                  90.923973
_cell_angle_gamma                 90.067137
_cell_volume                      2918.96331035

loop_
_atom_site_label
_atom_site_type_symbol
_atom_site_description
_atom_site_fract_x
_atom_site_fract_y
_atom_site_fract_z
_atom_type_partial_charge
O1    O     O_R   0.499990 0.319060 0.613040 -0.592401
O2    O     O_R   0.500010 0.319100 0.386900 -0.631116
C1    C     C_R   0.495235 0.262158 0.500125 0.920860
O3    O     O_R   0.428750 0.500000 0.613050 -0.601043
O4    O     O_R   0.428760 0.500040 0.386920 -0.614319
C2    C     C_R   0.406043 0.499969 0.498873 0.908203
Zn1   Zn    Zn3+2 0.499990 0.499970 0.650990 0.949294
Zn2   Zn    Zn3+2 0.500010 0.500030 0.349010 0.928154
O5    O     O_R   0.499990 0.680900 0.613100 -0.599401
O6    O     O_R   0.500010 0.680940 0.386960 -0.617710
O7    O     O_R   0.571240 0.499960 0.613080 -0.634625
O8    O     O_R   0.571250 0.500000 0.386950 -0.599924
C3    C     C_R   0.499872 0.737796 0.498847 0.982115
C4    C     C_R   0.593987 0.501229 0.501019 0.867176
C5    C     C_R   0.178616 0.570460 0.369456 0.551346
O9    O     O_2   0.202531 0.532627 0.259937 -0.591940
N1    N     N_R   0.204054 0.603197 0.482103 -0.318806
C6    C     C_R   0.181798 0.655184 0.589662 0.582861
C7    C     C_R   0.288488 0.669561 0.452807 0.196975
C8    C     C_R   0.337882 0.640653 0.451251 -0.273769
C9    C     C_R   0.321221 0.431561 0.536973 -0.350214
C10   C     C_R   0.270834 0.455070 0.527288 0.517652
C11   C     C_R   0.255005 0.576409 0.489299 0.199819
C12   C     C_R   0.103634 0.625319 0.478272 -0.089410
C13   C     C_R   0.127811 0.573356 0.368582 -0.066724
C14   C     C_R   0.101093 0.517047 0.265173 -0.264807
C15   C     C_R   0.130975 0.675037 0.586953 -0.099243
C16   C     C_R   0.354157 0.523135 0.495117 -0.102536
H1    H     H_    0.335040 0.343343 0.576183 0.148659
H2    H     H_    0.119485 0.471184 0.183742 0.200202
C17   C     C_R   0.646293 0.520050 0.503371 -0.055854
C18   C     C_R   0.973592 0.585136 0.371919 0.090480
C19   C     C_R   0.977360 0.650787 0.606997 -0.019695
C20   C     C_R   0.949864 0.615944 0.492527 0.022735
C21   C     C_R   0.945053 0.569115 0.254937 -0.182748
C22   C     C_R   0.894722 0.564116 0.260427 -0.188745
C23   C     C_R   0.871246 0.579526 0.382134 0.018765
C24   C     C_R   0.898497 0.609258 0.498557 -0.108663
C25   C     C_R   0.874383 0.630668 0.620214 -0.111051
C26   C     C_R   0.822940 0.620807 0.620540 0.573638
N2    N     N_R   0.797932 0.584693 0.507802 -0.351647
C27   C     C_R   0.820865 0.565325 0.389695 0.495050
C28   C     C_R   0.726798 0.465663 0.588279 0.257636
C29   C     C_R   0.676430 0.444000 0.583574 -0.279827
C30   C     C_R   0.665879 0.619062 0.429041 -0.219796
C31   C     C_R   0.715592 0.642611 0.435030 -0.142992
C32   C     C_R   0.746316 0.565575 0.512824 0.267106
O10   O     O_2   0.794882 0.530429 0.280176 -0.566729
C33   C     C_R   0.025036 0.573747 0.371878 -0.055219
C34   C     C_R   0.052171 0.624824 0.480432 -0.000114
C35   C     C_R   0.028160 0.672005 0.593237 0.041165
C36   C     C_R   0.050415 0.508836 0.270695 0.426485
H3    H     H_    0.660885 0.366530 0.639305 0.148633
H4    H     H_    0.874247 0.547466 0.168743 0.186204
H5    H     H_    0.960887 0.563801 0.157195 0.194955
O11   O     O_2   0.208695 0.683368 0.699525 -0.546736
C37   C     C_R   0.106620 0.739363 0.689692 0.233150
H6    H     H_    0.363734 0.711531 0.420932 0.207819
C38   C     C_R   0.953751 0.656889 0.732466 0.124864
C39   C     C_R   0.902309 0.653985 0.738022 0.181353
O12   O     O_2   0.797759 0.646872 0.731611 -0.541176
C40   C     C_R   0.055531 0.740814 0.687928 -0.204728
H7    H     H_    0.642546 0.679221 0.368086 0.149088
H8    H     H_    0.730548 0.719462 0.377186 0.154207
H9    H     H_    0.037010 0.798543 0.759336 0.175542
C41   C     C_2   0.468276 0.927908 0.405912 0.483330
C42   C     C_2   0.499574 0.870691 0.490656 -0.456346
H10   H     H_    0.528687 0.921005 0.542187 0.128400
C43   C     C_2   0.472691 0.063370 0.390759 0.077076
C44   C     C_2   0.477734 0.133370 0.503468 -0.075527
C45   C     C_2   0.519041 0.591328 0.924772 0.263192
N3    N     N_2   0.500520 0.501330 0.852150 -0.228904
H11   H     H_    0.477954 0.437736 0.898043 0.139487
C46   C     C_2   0.511920 0.597042 0.075080 -0.190725
N4    N     N_2   0.500540 0.501360 0.147810 -0.211650
H12   H     H_    0.519091 0.684144 0.126910 0.171096
H13   H     H_    0.498116 0.415386 0.101934 0.161667
N5    N     N_2   0.272213 0.792508 0.419058 -0.294139
H14   H     H_    0.283395 0.821510 0.325851 0.233602
C47   C     C_3   0.283173 0.885074 0.520648 -0.780832
H15   H     H_    0.263173 0.972913 0.497465 0.228796
H16   H     H_    0.322913 0.905740 0.523990 0.241861
H17   H     H_    0.271522 0.851563 0.620527 0.286587
N6    N     N_2   0.133683 0.806765 0.789574 -0.252187
H18   H     H_    0.154960 0.878894 0.753292 0.237461
C48   C     C_3   0.112335 0.829327 0.918773 -0.737466
H19   H     H_    0.141508 0.856570 0.991217 0.250308
H20   H     H_    0.094491 0.742737 0.956938 0.256102
H21   H     H_    0.085566 0.907384 0.911597 0.210725
N7    N     N_2   0.981923 0.651763 0.853651 -0.336896
H22   H     H_    0.968392 0.697836 0.935266 0.221104
C49   C     C_3   0.002797 0.530270 0.885399 -0.744375
H23   H     H_    0.032361 0.542590 0.960972 0.277147
H24   H     H_    0.019135 0.486731 0.795955 0.249475
H25   H     H_    0.974335 0.466665 0.925468 0.237164
N8    N     N_2   0.878955 0.665004 0.863694 -0.250913
H26   H     H_    0.893351 0.608817 0.938698 0.213594
C50   C     C_3   0.870124 0.792915 0.905247 -0.700849
H27   H     H_    0.905045 0.843335 0.923411 0.195838
H28   H     H_    0.849089 0.792102 0.999193 0.244019
H29   H     H_    0.848594 0.844299 0.827410 0.261495
O13   O     O_3   0.428252 0.864451 0.352442 -0.673378
C51   C     C_3   0.432628 0.847761 0.212883 0.128704
H30   H     H_    0.428849 0.745734 0.192243 0.173033
H31   H     H_    0.468504 0.876722 0.172012 0.136480
C52   C     C_3   0.391217 0.916641 0.139216 -0.357401
H32   H     H_    0.355679 0.877166 0.171041 0.220344
H33   H     H_    0.391971 0.017900 0.165225 0.232172
C53   C     C_3   0.395515 0.903353 0.987962 -0.923903
H34   H     H_    0.430286 0.945308 0.953814 0.265149
H35   H     H_    0.364778 0.953113 0.937201 0.270501
H36   H     H_    0.394270 0.802696 0.959313 0.271636
N9    N     N_2   0.477629 0.111868 0.258215 -0.311749
H37   H     H_    0.458342 0.192119 0.234191 0.245866
C54   C     C_3   0.525723 0.102129 0.201588 -0.799864
H38   H     H_    0.524060 0.130646 0.094620 0.232104
H39   H     H_    0.539165 0.003836 0.207859 0.228226
H40   H     H_    0.551887 0.164175 0.255428 0.259978
O14   O     O_3   0.236172 0.366732 0.565186 -0.633975
C55   C     C_3   0.241980 0.250353 0.498634 0.047662
H41   H     H_    0.216754 0.182181 0.545925 0.173969
H42   H     H_    0.278994 0.209958 0.512852 0.130234
C56   C     C_3   0.228215 0.259822 0.349296 -0.333046
H43   H     H_    0.190212 0.294936 0.338450 0.244408
H44   H     H_    0.253208 0.326342 0.298652 0.252605
C57   C     C_3   0.231745 0.132963 0.279834 -0.963915
H45   H     H_    0.269586 0.096212 0.287633 0.266809
H46   H     H_    0.221906 0.144172 0.172246 0.279147
H47   H     H_    0.206191 0.064437 0.325148 0.267567
N10   N     N_2   0.460616 0.086175 0.629350 -0.307974
H48   H     H_    0.432859 0.020640 0.627736 0.240978
C58   C     C_3   0.495185 0.074551 0.740022 -0.758754
H49   H     H_    0.497225 0.975022 0.773428 0.240450
H50   H     H_    0.482682 0.132465 0.824746 0.245485
H51   H     H_    0.532405 0.105203 0.711786 0.237577
N11   N     N_2   0.546192 0.687894 0.858978 -0.253035
H52   H     H_    0.571144 0.655565 0.791669 0.266572
C59   C     C_3   0.562302 0.797616 0.932260 -0.865569
H53   H     H_    0.580473 0.864045 0.862923 0.247824
H54   H     H_    0.588882 0.770358 0.012243 0.247396
H55   H     H_    0.530600 0.846929 0.975396 0.238383
N12   N     N_2   0.758409 0.382495 0.659934 -0.311192
H56   H     H_    0.761271 0.296070 0.614711 0.218363
C60   C     C_3   0.749860 0.371994 0.802031 -0.695811
H57   H     H_    0.780505 0.319998 0.850492 0.237166
H58   H     H_    0.715541 0.319739 0.820718 0.211788
H59   H     H_    0.747726 0.466472 0.848100 0.290499
O15   O     O_3   0.026228 0.430823 0.181547 -0.681937
C61   C     C_3   0.033994 0.304219 0.219357 0.085742
H60   H     H_    0.026488 0.288971 0.327643 0.141488
H61   H     H_    0.072234 0.276373 0.198511 0.147640
C62   C     C_3   0.999468 0.220848 0.137606 -0.322325
H62   H     H_    0.961154 0.244789 0.161561 0.227663
H63   H     H_    0.004963 0.238633 0.029221 0.226400
C63   C     C_3   0.008253 0.081769 0.167379 -0.968061
H64   H     H_    0.045790 0.054816 0.138907 0.265102
H65   H     H_    0.981887 0.024125 0.108717 0.263292
H66   H     H_    0.003190 0.061618 0.275407 0.268293

loop_
_geom_bond_atom_site_label_1
_geom_bond_atom_site_label_2
_geom_bond_distance
_ccdc_geom_bond_type
C57   H45   1.111039 S    
C63   H65   1.110495 S    
N2    C27   1.363935 A    
C41   O13   1.389607 S    
N10   C58   1.450501 S    
C21   C22   1.383459 A    
C12   C15   1.415404 A    
C4    C17   1.448232 S    
C56   H43   1.111200 S    
C30   C31   1.386584 A    
Zn1   O7    1.996765 S    
C43   N9    1.427900 S    
N1    C11   1.427262 S    
C46   H12   1.081148 S    
C22   C23   1.396689 A    
N6    C48   1.448552 S    
C53   H35   1.110389 S    
O4    C2    1.290000 A    
O7    C4    1.291351 A    
N5    C47   1.447316 S    
C56   H44   1.110583 S    
C41   C43   1.453912 S    
C52   H32   1.111492 S    
C5    O9    1.349469 S    
C50   H27   1.110355 S    
C44   N10   1.438142 S    
Zn1   O5    1.960355 S    
C23   C27   1.393203 A    
O5    C3    1.289791 A    
C29   H3    1.083286 S    
C2    C16   1.444541 S    
C7    C8    1.390043 A    
C58   H49   1.110003 S    
C54   H39   1.110717 S    
N8    C50   1.447640 S    
C55   C56   1.537205 S    
C6    O11   1.348572 S    
C17   C29   1.397871 A    
C33   C36   1.420576 A    
C41   C42   1.340701 D    
C38   C39   1.413294 A    
C19   C38   1.423073 A    
O1    Zn1   1.964792 S    
C9    C10   1.406524 A    
C63   H66   1.110962 S    
O13   C51   1.414952 S    
C35   C40   1.407419 A    
C60   H59   1.110607 S    
C55   H42   1.109693 S    
C34   C35   1.410698 A    
C12   C34   1.412126 A    
C10   O14   1.391674 S    
C48   H21   1.110630 S    
C63   H64   1.111129 S    
C46   N4    1.288819 D    
C21   H5    1.077784 S    
C42   H10   1.085844 S    
C18   C21   1.408172 A    
C37   C40   1.401285 A    
C1    C44   1.452195 S    
C12   C13   1.407322 A    
C60   H58   1.110665 S    
C15   C37   1.415035 A    
C53   H36   1.110999 S    
C45   N11   1.431654 S    
N5    H14   1.031315 S    
C47   H15   1.105981 S    
C56   C57   1.526050 S    
C8    C16   1.394446 A    
C57   H47   1.110663 S    
O3    Zn1   1.984546 S    
C13   C14   1.395582 A    
C9    H1    1.081930 S    
C30   H7    1.083861 S    
C49   H25   1.110799 S    
C26   O12   1.347826 S    
C31   H8    1.083062 S    
O1    C1    1.289245 A    
C38   N7    1.427508 S    
C18   C20   1.419995 A    
C7    N5    1.420093 S    
C7    C11   1.401392 A    
C28   C29   1.400504 A    
C23   C24   1.410730 A    
C14   C36   1.394675 A    
O4    Zn2   1.996762 S    
N7    C49   1.446223 S    
C62   C63   1.526778 S    
Zn2   O8    1.984548 S    
C54   H40   1.109853 S    
N8    H26   1.030359 S    
C49   H24   1.110881 S    
N1    C6    1.365631 A    
N2    C32   1.431759 S    
C37   N6    1.430693 S    
C51   H31   1.114066 S    
C27   O10   1.350736 S    
N6    H18   1.031491 S    
N4    H13   1.027704 S    
C59   H54   1.110991 S    
C39   N8    1.425265 S    
C58   H50   1.109775 S    
C26   N2    1.367089 A    
C9    C16   1.395149 A    
C62   H63   1.111740 S    
C14   H2    1.083768 S    
C50   H28   1.110371 S    
N12   C60   1.447541 S    
C61   C62   1.527893 S    
O3    C2    1.291753 A    
C8    H6    1.080151 S    
C59   H55   1.110681 S    
Zn1   N3    2.011558 S    
C55   H41   1.110894 S    
C48   H19   1.110193 S    
N11   C59   1.447357 S    
C47   H17   1.110229 S    
N9    H37   1.030338 S    
C3    C42   1.416345 S    
C5    N1    1.362371 A    
C31   C32   1.400129 A    
C57   H46   1.110726 S    
C40   H9    1.078554 S    
C20   C24   1.412926 A    
Zn2   O6    1.964791 S    
O2    Zn2   1.960356 S    
C6    C15   1.409998 A    
O8    C4    1.291324 A    
N3    H11   1.027751 S    
O6    C3    1.275327 A    
C45   C46   1.520428 S    
O14   C55   1.420023 S    
C19   C35   1.420067 A    
C50   H29   1.111056 S    
C60   H57   1.110124 S    
C61   H61   1.113567 S    
O2    C1    1.289454 A    
C45   N3    1.303250 D    
C61   H60   1.116378 S    
N7    H22   1.029262 S    
C24   C25   1.413905 A    
C52   H33   1.110302 S    
C58   H51   1.111690 S    
C25   C39   1.417836 A    
C49   H23   1.107766 S    
C47   H16   1.111776 S    
C19   C20   1.411860 A    
N10   H48   1.031947 S    
C51   C52   1.529298 S    
C48   H20   1.111418 S    
O15   C61   1.412776 S    
Zn2   N4    2.012251 S    
C43   C44   1.359953 D    
C18   C33   1.416426 A    
C22   H4    1.082839 S    
C59   H53   1.110584 S    
C25   C26   1.414882 A    
C62   H62   1.111885 S    
C5    C13   1.393809 A    
C36   O15   1.383087 S    
C33   C34   1.417061 A    
C17   C30   1.397733 A    
C51   H30   1.110993 S    
N12   H56   1.031105 S    
C10   C11   1.410931 A    
N11   H52   1.028627 S    
C28   N12   1.422255 S    
C53   H34   1.110530 S    
C28   C32   1.410212 A    
C54   H38   1.110373 S    
N9    C54   1.448019 S    
C52   C53   1.526465 S    
