data_mof_unit_pretest_936.cif
_audit_creation_date              2012-12-11T14:46:01-0500
_audit_creation_method            fapswitch 2.2
_symmetry_space_group_name_H-M    P1
_symmetry_Int_Tables_number       1
_space_group_crystal_system       triclinic
_cell_length_a                    10.925452
_cell_length_b                    10.945004
_cell_length_c                    18.811322
_cell_angle_alpha                 90.079013
_cell_angle_beta                  90.099098
_cell_angle_gamma                 120.130077
_cell_volume                      1945.50535209

loop_
_atom_site_label
_atom_site_type_symbol
_atom_type_description
_atom_site_fract_x
_atom_site_fract_y
_atom_site_fract_z
_atom_type_partial_charge
C1    C     C_R   0.864889 0.638092 0.603707 0.545643
C2    C     C_R   0.416321 0.622197 0.778243 -0.147006
C3    C     C_R   0.398345 0.615476 0.705800 -0.138266
C4    C     C_R   0.322722 0.672902 0.675318 0.005445
C5    C     C_R   0.843413 0.169745 0.823116 -0.032579
C6    C     C_R   0.091532 0.231168 0.826439 -0.076433
C7    C     C_R   0.212933 0.252396 0.791801 -0.104794
C8    C     C_R   0.209529 0.227394 0.719118 -0.119924
C9    C     C_R   0.086616 0.188514 0.680048 -0.079850
C10   C     C_R   0.965305 0.178413 0.712785 0.005492
C11   C     C_R   0.965994 0.190986 0.788053 -0.009775
C12   C     C_R   0.270844 0.633210 0.603608 0.546261
C13   C     C_R   0.719400 0.124029 0.709893 0.008777
C14   C     C_R   0.730356 0.161921 0.781724 0.028868
C15   C     C_R   0.587562 0.071452 0.674959 -0.074685
C16   C     C_R   0.479508 0.084987 0.706090 -0.113184
C17   C     C_R   0.501172 0.148968 0.772317 -0.120435
C18   C     C_R   0.625495 0.188131 0.809841 -0.064861
C19   C     C_R   0.843580 0.155259 0.672999 -0.042412
C20   C     C_R   0.726444 0.545661 0.714556 -0.142655
C21   C     C_R   0.709344 0.566480 0.785964 -0.141278
C22   C     C_R   0.781305 0.703261 0.814808 0.034441
C23   C     C_R   0.861114 0.222382 0.602046 0.533876
C24   C     C_R   0.864245 0.818838 0.771151 -0.116408
C25   C     C_R   0.881634 0.798375 0.700109 -0.126068
C26   C     C_R   0.816958 0.661349 0.671975 0.022779
C27   C     C_R   0.400114 0.613349 0.295960 -0.137592
C28   C     C_R   0.419327 0.621426 0.223536 -0.125278
C29   C     C_R   0.377648 0.700863 0.181823 0.032341
C30   C     C_R   0.326726 0.781452 0.214014 -0.152309
C31   C     C_R   0.305512 0.771906 0.287105 -0.137857
C32   C     C_R   0.336272 0.682339 0.327631 0.027269
C33   C     C_R   0.711789 0.106191 0.294077 -0.137865
C34   C     C_R   0.864405 0.638830 0.397884 0.546808
C35   C     C_R   0.701222 0.088908 0.221515 -0.125112
C36   C     C_R   0.822521 0.127529 0.180325 0.033907
C37   C     C_R   0.953416 0.174490 0.213090 -0.151858
C38   C     C_R   0.964581 0.193974 0.286305 -0.137818
C39   C     C_R   0.844357 0.165565 0.326432 0.027600
C40   C     C_R   0.891548 0.788875 0.296361 -0.137442
C41   C     C_R   0.885261 0.800046 0.223820 -0.126105
C42   C     C_R   0.804256 0.679004 0.181992 0.031228
C43   C     C_R   0.721508 0.547564 0.213995 -0.152705
C44   C     C_R   0.729392 0.535824 0.287150 -0.138258
C45   C     C_R   0.273554 0.636128 0.397262 0.546886
C46   C     C_R   0.819637 0.655992 0.327976 0.027160
C47   C     C_R   0.808772 0.107570 0.895777 0.521774
C48   C     C_R   0.397568 0.701388 0.895850 0.567072
C49   C     C_R   0.773549 0.729631 0.890050 0.562437
C50   C     C_R   0.802595 0.098565 0.104896 0.546442
C51   C     C_R   0.404803 0.707890 0.106281 0.553668
C52   C     C_R   0.795159 0.699134 0.106690 0.558092
C53   C     C_R   0.861708 0.227050 0.396509 0.545111
C54   C     C_R   0.270349 0.742786 0.717656 -0.108702
C55   C     C_R   0.290327 0.751776 0.790793 0.072200
C56   C     C_R   0.362013 0.688942 0.821264 0.046936
Cr1   Cr    Cr6+3 0.791660 0.390250 0.499930 1.010646
Cr2   Cr    Cr6+3 0.098520 0.708290 0.500540 1.003810
Cr3   Cr    Cr6+3 0.109770 0.401430 0.499480 1.006841
Cr4   Cr    Cr6+3 0.874790 0.925890 0.000070 1.030239
Cr5   Cr    Cr6+3 0.574120 0.948670 0.999300 1.036948
Cr6   Cr    Cr6+3 0.551420 0.625320 0.000920 1.006996
H1    H     H_    0.207021 0.783503 0.694673 0.155352
H2    H     H_    0.381004 0.050195 0.677866 0.110701
H3    H     H_    0.420162 0.164648 0.795674 0.125135
H4    H     H_    0.676209 0.438735 0.694011 0.143657
H5    H     H_    0.643545 0.475749 0.818843 0.120257
H6    H     H_    0.919893 0.924431 0.792934 0.148880
H7    H     H_    0.951889 0.888849 0.668158 0.128381
H8    H     H_    0.465782 0.563742 0.200099 0.142411
H9    H     H_    0.299364 0.847269 0.182642 0.123453
H10   H     H_    0.256411 0.826829 0.310892 0.137915
H11   H     H_    0.597248 0.045433 0.197680 0.141676
H12   H     H_    0.046545 0.199308 0.182117 0.120933
H13   H     H_    0.068380 0.239615 0.310602 0.137168
H14   H     H_    0.959808 0.882942 0.327022 0.127864
H15   H     H_    0.654458 0.454510 0.182461 0.121500
H16   H     H_    0.672392 0.431795 0.310845 0.137292
H17   H     H_    0.437408 0.559478 0.674133 0.133612
H18   H     H_    0.302804 0.239288 0.692717 0.100046
H19   H     H_    0.098176 0.252165 0.882980 0.135354
H20   H     H_    0.087068 0.163044 0.624579 0.126700
H21   H     H_    0.639195 0.239912 0.860683 0.140654
O1    O     O_R   0.766500 0.250040 0.579790 -0.517471
O2    O     O_R   0.218690 0.701900 0.425960 -0.507508
O3    O     O_R   0.249490 0.516440 0.419420 -0.525384
O4    O     O_R   0.982880 0.281910 0.424890 -0.509273
O5    O     O_3   0.999980 0.499990 0.499980 -0.235015
O6    O     O_R   0.895110 0.806860 0.920430 -0.467703
O7    O     O_R   0.872260 0.046970 0.925000 -0.520739
O8    O     O_R   0.691430 0.085060 0.918550 -0.513033
O9    O     O_R   0.451490 0.822460 0.925250 -0.466373
O10   O     O_R   0.413330 0.603360 0.920440 -0.540884
O11   O     O_R   0.676110 0.626250 0.926750 -0.512635
O12   O     O_R   0.798570 0.516780 0.574780 -0.502900
O13   O     O_R   0.895350 0.809870 0.080950 -0.513411
O14   O     O_R   0.872490 0.049760 0.073800 -0.509890
O15   O     O_R   0.691680 0.088070 0.079070 -0.524001
O16   O     O_R   0.451720 0.825250 0.074050 -0.500968
O17   O     O_R   0.413580 0.606370 0.080960 -0.524025
O18   O     O_R   0.676340 0.629040 0.075550 -0.505199
O19   O     O_3   0.666780 0.833290 0.000090 -0.279210
O20   O     O_R   0.984000 0.732950 0.581090 -0.529501
O21   O     O_R   0.218600 0.700890 0.574760 -0.514134
O22   O     O_R   0.249390 0.515350 0.579940 -0.514999
O23   O     O_R   0.982790 0.280900 0.573700 -0.505351
O24   O     O_R   0.766600 0.251130 0.419260 -0.527050
O25   O     O_R   0.798660 0.517790 0.425980 -0.507162
O26   O     O_R   0.984100 0.734040 0.420570 -0.525964
H22   H     H_    0.570570 0.025951 0.622170 0.123001
H23   H     H_    0.426802 0.545889 0.326398 0.128508
I1    I     I_    0.197615 0.846842 0.851959 -0.375758
H24   H     H_    0.617619 0.081434 0.324165 0.128448
H25   H     H_    0.944709 0.904176 0.200478 0.140768
H26   H     H_    0.472438 0.573788 0.800876 0.134947
H27   H     H_    0.309556 0.288059 0.821779 0.106446

loop_
_geom_bond_atom_site_label_1
_geom_bond_atom_site_label_2
_ccdc_geom_bond_type
C55   C56   A    
C55   I1    S    
Cr2   O26   S    
C41   C42   A    
C14   C18   A    
C19   C23   S    
C35   C36   A    
C41   H25   S    
C37   H12   S    
C3    H17   S    
C30   H9    S    
C7    C8    A    
C39   C53   S    
Cr4   O6    S    
C40   C46   A    
C5    C47   S    
C28   C29   A    
C33   C39   A    
C20   H4    S    
C36   C37   A    
C5    C11   A    
C2    C3    A    
C38   C39   A    
C54   H1    S    
C15   C16   A    
C32   C45   S    
Cr3   O5    S    
C35   H11   S    
Cr5   O15   S    
C8    C9    A    
C34   C46   S    
C49   O11   A    
C4    C12   S    
C29   C30   A    
C9    C10   A    
C1    O20   A    
Cr5   O9    S    
C9    H20   S    
Cr6   O18   S    
C33   H24   S    
C27   H23   S    
C6    H19   S    
C21   C22   A    
C21   H5    S    
C15   H22   S    
Cr5   O16   S    
Cr4   O19   S    
C44   C46   A    
C17   C18   A    
C38   H13   S    
C51   O16   A    
C52   O18   A    
C50   O15   A    
Cr3   O23   S    
C48   O10   A    
C13   C19   A    
C24   C25   A    
Cr4   O14   S    
C23   O1    A    
C6    C11   A    
C16   C17   A    
C25   C26   A    
C23   O23   A    
C40   H14   S    
C7    H27   S    
C45   O2    A    
C43   C44   A    
C37   C38   A    
C2    H26   S    
C53   O24   A    
C31   C32   A    
C10   C19   A    
C1    O12   A    
C18   H21   S    
Cr1   O1    S    
C53   O4    A    
Cr3   O22   S    
C5    C14   A    
C22   C49   S    
Cr6   O17   S    
Cr4   O13   S    
C31   H10   S    
Cr1   O24   S    
Cr6   O11   S    
C48   O9    A    
C1    C26   S    
C47   O7    A    
C22   C24   A    
Cr2   O21   S    
C42   C43   A    
C3    C4    A    
Cr2   O2    S    
C36   C50   S    
C29   C51   S    
C51   O17   A    
C48   C56   S    
C54   C55   A    
C40   C41   A    
C50   O14   A    
C4    C54   A    
C27   C32   A    
C47   O8    A    
C12   O22   A    
C28   H8    S    
C49   O6    A    
Cr2   O5    S    
Cr5   O19   S    
C12   O21   A    
C6    C7    A    
Cr4   O7    S    
C43   H15   S    
C17   H3    S    
Cr1   O5    S    
C34   O25   A    
C13   C15   A    
C45   O3    A    
Cr3   O3    S    
C2    C56   A    
C30   C31   A    
C20   C26   A    
C44   H16   S    
C33   C35   A    
C52   O13   A    
Cr3   O4    S    
C10   C11   A    
C24   H6    S    
Cr1   O25   S    
C25   H7    S    
C20   C21   A    
Cr1   O12   S    
Cr6   O10   S    
C27   C28   A    
C8    H18   S    
C34   O26   A    
Cr2   O20   S    
C16   H2    S    
C13   C14   A    
Cr5   O8    S    
C42   C52   S    
Cr6   O19   S    
