data_mof_unit_pretest_1787.cif
_audit_creation_date              2013-03-05T16:09:12-0500
_audit_creation_method            fapswitch 2.2
_symmetry_space_group_name_H-M    P1
_symmetry_Int_Tables_number       1
_space_group_crystal_system       triclinic
_cell_length_a                    8.321455
_cell_length_b                    15.266042
_cell_length_c                    18.892794
_cell_angle_alpha                 99.784287
_cell_angle_beta                  92.406589
_cell_angle_gamma                 99.218324
_cell_volume                      2328.68573141

loop_
_atom_site_label
_atom_site_type_symbol
_atom_site_description
_atom_site_fract_x
_atom_site_fract_y
_atom_site_fract_z
_atom_type_partial_charge
P1    P     P_3+3 0.033440 0.421460 0.337070 0.452137
O1    O     O_2   0.865600 0.448450 0.327030 -0.362004
O2    O     O_3   0.118270 0.449980 0.414460 -0.460108
O3    O     O_3   0.656870 0.615610 0.375490 -0.401133
O4    O     O_2   0.787689 0.576870 0.249909 -0.415107
O5    O     O_3   0.989637 0.303764 0.316704 -0.558804
O6    O     O_3   0.584932 0.691840 0.256679 -0.587318
C1    C     C_3   0.659168 0.852138 0.284458 -0.535509
H1    H     H_    0.613183 0.856608 0.229239 0.228979
P2    P     P_3+3 0.679060 0.710980 0.562120 0.437659
P3    P     P_3+3 0.131694 0.779270 0.411950 0.406490
O7    O     O_2   0.853830 0.724300 0.541460 -0.392295
O8    O     O_3   0.080790 0.663040 0.412350 -0.389136
O9    O     O_2   0.003653 0.825468 0.454482 -0.405678
O10   O     O_3   0.702593 0.737639 0.656324 -0.572700
O11   O     O_3   0.099083 0.793624 0.322948 -0.552750
C2    C     C_3   0.183802 0.734699 0.279490 0.409428
H2    H     H_    0.124164 0.663603 0.277044 0.131104
H3    H     H_    0.313334 0.743192 0.300134 0.084666
C3    C     C_3   0.182434 0.754728 0.203391 -0.996719
H4    H     H_    0.055439 0.742338 0.178916 0.253852
H5    H     H_    0.238343 0.826064 0.204253 0.260133
C4    C     C_3   0.183322 0.753792 0.658345 0.265564
H6    H     H_    0.295781 0.765871 0.630112 0.080577
H7    H     H_    0.074220 0.728283 0.621509 0.116207
C5    C     C_3   0.160422 0.843858 0.703221 -0.416998
H8    H     H_    0.233623 0.856678 0.755709 0.226932
H9    H     H_    0.030119 0.839750 0.715190 0.172817
Ba1   Ba    Ba6+2 0.852320 0.543020 0.467270 1.492754
C6    C     C_3   0.951527 0.268857 0.378877 0.466111
H10   H     H_    0.835421 0.287693 0.396877 0.091856
H11   H     H_    0.048904 0.292896 0.422951 0.139665
C7    C     C_3   0.934459 0.167187 0.360349 -1.042887
H12   H     H_    0.899973 0.135843 0.407400 0.227111
H13   H     H_    0.053146 0.149165 0.343870 0.260774
C8    C     C_3   0.732495 0.661799 0.684143 0.449124
H14   H     H_    0.844570 0.639675 0.663430 0.067445
H15   H     H_    0.628196 0.605378 0.669905 0.147733
C9    C     C_3   0.754909 0.686639 0.765825 -0.993105
H16   H     H_    0.862021 0.740976 0.782242 0.252022
H17   H     H_    0.774952 0.627205 0.789306 0.235078
H18   H     H_    0.644105 0.710190 0.787412 0.275256
P4    P     P_3+3 0.156270 0.578610 0.662940 0.432198
O12   O     O_2   0.324110 0.551580 0.673010 -0.345761
O13   O     O_3   0.071440 0.550090 0.585550 -0.458236
O14   O     O_3   0.532840 0.384460 0.624520 -0.350366
O15   O     O_3   0.205629 0.693433 0.703894 -0.570529
P5    P     P_3+3 0.066676 0.220837 0.587100 0.457809
O16   O     O_3   0.607840 0.389380 0.460620 -0.390932
O17   O     O_3   0.108920 0.337040 0.587660 -0.384426
O18   O     O_2   0.191310 0.177192 0.540622 -0.365849
O19   O     O_3   0.115239 0.203133 0.673932 -0.515847
Ba2   Ba    Ba6+2 0.337520 0.457050 0.532740 1.526888
P6    P     P_3+3 0.622534 0.591076 0.281303 0.436707
C10   C     C_3   0.715080 0.761516 0.284345 0.434653
H19   H     H_    0.756171 0.759487 0.340764 0.146708
H20   H     H_    0.556124 0.856155 0.319798 0.180286
O20   O     O_3   0.581870 0.610700 0.539390 -0.427850
C11   C     C_3   0.440361 0.302992 0.311718 0.440860
H21   H     H_    0.323273 0.316482 0.333735 0.104778
H22   H     H_    0.530031 0.366683 0.318975 0.095212
C12   C     C_3   0.406695 0.265481 0.231639 -1.007499
H23   H     H_    0.322929 0.199633 0.223509 0.270705
H24   H     H_    0.348299 0.312553 0.204575 0.222612
H25   H     H_    0.522737 0.255881 0.206832 0.266493
P7    P     P_3+3 0.517593 0.274641 0.438316 0.429459
O21   O     O_2   0.335870 0.275730 0.458590 -0.379391
O22   O     O_3   0.504441 0.239373 0.344848 -0.576083
H26   H     H_    0.253823 0.710030 0.169890 0.252623
C13   C     C_3   0.053494 0.266952 0.723244 0.540315
H27   H     H_    0.131115 0.334311 0.727566 0.135033
H28   H     H_    0.925372 0.271223 0.707066 -0.033461
C14   C     C_3   0.056367 0.239505 0.796897 -1.014135
H29   H     H_    0.183345 0.236624 0.815626 0.292051
H30   H     H_    0.007598 0.289431 0.836320 0.227231
H31   H     H_    0.979653 0.172196 0.793934 0.251324
P8    P     P_3+3 0.562842 0.398744 0.718975 0.461043
C15   C     C_3   0.577850 0.239252 0.742179 0.421585
H32   H     H_    0.695842 0.269805 0.772788 0.042340
O23   O     O_2   0.460014 0.469226 0.751446 -0.378668
O24   O     O_3   0.468517 0.300646 0.746486 -0.484351
H33   H     H_    0.597870 0.214173 0.684924 0.078517
H34   H     H_    0.591426 0.111063 0.773456 0.220548
C16   C     C_3   0.506373 0.160438 0.776786 -0.984815
N1    N     N_R   0.214553 0.520099 0.952005 -0.069180
N2    N     N_R   0.266640 0.521165 0.020331 -0.077149
C17   C     C_2   0.315838 0.496423 0.293214 -0.492656
C18   C     C_3   0.448624 0.499286 0.241499 0.227130
C19   C     C_2   0.384850 0.509086 0.166578 -0.203750
C20   C     C_2   0.222067 0.493596 0.146460 0.010379
C21   C     C_2   0.105544 0.472149 0.203021 -0.259332
C22   C     C_1   0.160985 0.468924 0.269903 0.326420
N3    N     N_R   0.001266 0.467941 0.046219 -0.073995
N4    N     N_R   0.949275 0.466578 0.977836 -0.079431
C23   C     C_R   0.054288 0.492516 0.928708 0.154833
C24   C     C_R   0.161626 0.495015 0.069410 0.150895
C25   C     C_R   0.097502 0.524355 0.800338 -0.243301
C26   C     C_R   0.040777 0.516760 0.727064 0.359920
C27   C     C_R   0.777687 0.440735 0.752767 0.189572
C28   C     C_R   0.832100 0.448743 0.825706 -0.293770
C29   C     C_R   0.994918 0.488283 0.850706 0.023933
C30   C     C_R   0.883942 0.471633 0.704070 -0.499516
H35   H     H_    0.473780 0.522921 0.127757 0.147330
H36   H     H_    0.975225 0.457496 0.188656 0.170869
H37   H     H_    0.219482 0.559915 0.818148 0.174321
H38   H     H_    0.747253 0.423865 0.862520 0.157595
H39   H     H_    0.354924 0.498592 0.349015 0.149141
H40   H     H_    0.839569 0.466740 0.648623 0.170114
C31   C     C_R   0.853953 0.171016 0.551637 0.150396
C32   C     C_R   0.787366 0.078142 0.545302 -0.003374
C33   C     C_R   0.653835 0.890423 0.528266 -0.069210
C34   C     C_R   0.801589 0.926967 0.569186 -0.089376
C35   C     C_R   0.868988 0.018345 0.575997 -0.190219
C36   C     C_R   0.589387 0.796092 0.516231 0.228214
H41   H     H_    0.868099 0.885227 0.595679 0.158990
H42   H     H_    0.985054 0.041815 0.606457 0.168558
C37   C     C_R   0.446537 0.765871 0.470547 -0.183282
C38   C     C_R   0.611096 0.196327 0.486208 0.257310
C39   C     C_R   0.545640 0.103499 0.477215 -0.022120
C40   C     C_R   0.633080 0.044258 0.507417 0.019639
C41   C     C_R   0.395102 0.068181 0.438461 -0.098224
C42   C     C_R   0.328722 0.977755 0.431246 -0.170381
C43   C     C_R   0.412735 0.917881 0.460129 -0.030163
C44   C     C_R   0.567419 0.950554 0.498031 0.016457
C45   C     C_R   0.347683 0.825713 0.450236 0.121615
C46   C     C_R   0.761288 0.228958 0.525152 -0.505572
H43   H     H_    0.211991 0.955473 0.401030 0.179493
H44   H     H_    0.324894 0.109670 0.413397 0.169102
H45   H     H_    0.812007 0.299798 0.530365 0.170443
H46   H     H_    0.817863 0.755655 0.249374 0.125104
C47   C     C_3   0.207592 0.923324 0.663679 -0.356947
C48   C     C_3   0.392288 0.952684 0.665888 -0.832022
H47   H     H_    0.445394 0.967756 0.722306 0.259551
H48   H     H_    0.450494 0.899123 0.635748 0.245160
H49   H     H_    0.420433 0.013782 0.641042 0.259670
H50   H     H_    0.157535 0.905300 0.606645 0.214663
H51   H     H_    0.153984 0.981494 0.690313 0.217002
H52   H     H_    0.839557 0.140996 0.315384 0.279443
C49   C     C_3   0.795672 0.931876 0.313542 -0.294675
C50   C     C_3   0.916244 0.951276 0.256936 -0.814451
H53   H     H_    0.022697 0.001756 0.282229 0.243742
H54   H     H_    0.962757 0.889790 0.232824 0.271648
H55   H     H_    0.856333 0.978046 0.213501 0.250096
H56   H     H_    0.738648 0.992342 0.330263 0.211434
H57   H     H_    0.861887 0.919525 0.362257 0.236036
H58   H     H_    0.386167 0.127758 0.749020 0.289548
H59   H     H_    0.489257 0.184528 0.834393 0.259701
C51   C     C_3   0.381303 0.668811 0.451448 -0.294978
C52   C     C_3   0.275068 0.644580 0.510263 -0.537505
H60   H     H_    0.340740 0.643689 0.561224 0.224125
H61   H     H_    0.191842 0.692630 0.524383 0.198142
H62   H     H_    0.202746 0.579669 0.489062 0.308941
H63   H     H_    0.331789 0.652706 0.394883 0.145072
H64   H     H_    0.461161 0.621688 0.442700 0.243835

loop_
_geom_bond_atom_site_label_1
_geom_bond_atom_site_label_2
_geom_bond_distance
_ccdc_geom_bond_type
C1    H1    1.112877 S    
P7    O22   1.749834 S    
C10   H19   1.112678 S    
N3    N4    1.340804 A    
Ba2   O20   2.828874 S    
O7    Ba1   2.879663 S    
P3    O8    1.758388 S    
C14   H29   1.110137 S    
C33   C34   1.405157 A    
C15   O24   1.402248 S    
P4    C26   1.865118 S    
O6    C10   1.404265 S    
C21   H36   1.084730 S    
C17   C18   1.505718 S    
C25   C26   1.423275 A    
C43   C44   1.419119 A    
C9    H17   1.107670 S    
Ba1   O16   2.829398 S    
N1    N2    1.340927 A    
C5    H8    1.112573 S    
Ba1   Ba2   4.624334 S    
C1    C49   1.533381 S    
O8    Ba1   2.782802 S    
C8    H14   1.106185 S    
P3    C45   1.888001 S    
C50   H54   1.106462 S    
P2    O10   1.752313 S    
C52   H61   1.095737 S    
C6    H10   1.102364 S    
C11   O22   1.401387 S    
P3    O9    1.548667 D    
C43   C45   1.402077 A    
C2    C3    1.519807 S    
P1    O1    1.531385 D    
C49   H56   1.109432 S    
C4    C5    1.531970 S    
C42   H43   1.080143 S    
O2    Ba1   2.936246 S    
C38   C39   1.413097 A    
C12   H24   1.108996 S    
N2    C24   1.365606 A    
C2    H3    1.110644 S    
O12   Ba2   2.809734 S    
P4    Ba2   3.380284 S    
P5    O18   1.545854 D    
H34   C16   1.109764 S    
C48   H47   1.108552 S    
C23   C29   1.521915 S    
C4    H6    1.101982 S    
C50   H55   1.110809 S    
C30   H40   1.082287 S    
C13   H27   1.111548 S    
C6    H11   1.108548 S    
P4    O15   1.766830 S    
O3    Ba1   2.806009 S    
C12   H25   1.110668 S    
C35   H42   1.079244 S    
C25   H37   1.082101 S    
P5    O17   1.750462 S    
P5    C31   1.859221 S    
O13   Ba2   2.937161 S    
C11   H21   1.110846 S    
C17   C22   1.321695 D    
C19   H35   1.085514 S    
C14   H30   1.109914 S    
C51   H64   1.052811 S    
C1    C10   1.528290 S    
C34   C35   1.399770 A    
C7    H12   1.106128 S    
C9    H18   1.110741 S    
C39   C41   1.403010 A    
C11   H22   1.111131 S    
O17   Ba2   2.783350 S    
C4    O15   1.391020 S    
O16   P7    1.763740 S    
P1    O5    1.747177 S    
O4    P6    1.551724 D    
P7    O21   1.577430 D    
C51   C52   1.506814 S    
C41   H44   1.078878 S    
C47   H50   1.111352 S    
C52   H62   1.076269 S    
C32   C40   1.418608 A    
C21   C22   1.338426 D    
C15   H32   1.109022 S    
O11   C2    1.407505 S    
C46   H45   1.082327 S    
C26   C30   1.388953 A    
Ba1   O13   2.800504 S    
P1    O2    1.556961 S    
P4    O12   1.531726 D    
C12   H23   1.110858 S    
C47   H51   1.111182 S    
C1    H20   1.111678 S    
P3    O11   1.747870 S    
C15   H33   1.113225 S    
C27   C28   1.411227 A    
P8    O24   1.746757 S    
C7    H52   1.110075 S    
C39   C40   1.422764 A    
C10   H46   1.108129 S    
C3    H4    1.109763 S    
C13   C14   1.520199 S    
P1    Ba1   3.379671 S    
C2    H2    1.111248 S    
C17   H39   1.083610 S    
C50   H53   1.107933 S    
P4    O13   1.556963 S    
C32   C35   1.405853 A    
C41   C42   1.383746 A    
P2    O7    1.512848 D    
O5    C6    1.397915 S    
C3    H5    1.110711 S    
P1    C22   1.855001 S    
O3    P6    1.756379 S    
C37   C51   1.471222 S    
C14   H31   1.110757 S    
C3    H26   1.110764 S    
C51   H63   1.101610 S    
C47   C48   1.527209 S    
O10   C8    1.402395 S    
C9    H16   1.109594 S    
Ba1   O20   2.917706 S    
C16   H59   1.110767 S    
C49   H57   1.111725 S    
C11   C12   1.521149 S    
C6    C7    1.514008 S    
P2    O20   1.591480 S    
C33   C44   1.428747 A    
C28   H38   1.082403 S    
C8    C9    1.521283 S    
P2    C36   1.906805 S    
O14   P8    1.762745 S    
C49   C50   1.529911 S    
C20   C24   1.524858 S    
C16   H58   1.109843 S    
N3    C24   1.362402 A    
C5    H9    1.111043 S    
C8    H15   1.108900 S    
C19   C20   1.363403 D    
C52   H60   1.090167 S    
P6    C18   1.877274 S    
N1    C23   1.362868 A    
P2    Ba1   3.421138 S    
O2    Ba2   2.801165 S    
C20   C21   1.514435 S    
P8    O23   1.543046 D    
C48   H49   1.110485 S    
O16   Ba2   2.916729 S    
O14   Ba2   2.805341 S    
C28   C29   1.417914 A    
C7    H13   1.109888 S    
P8    C27   1.847344 S    
C33   C36   1.429724 A    
C4    H7    1.096262 S    
N4    C23   1.365315 A    
Ba2   O21   2.879754 S    
C36   C37   1.404849 A    
O19   C13   1.404716 S    
C15   C16   1.516458 S    
C31   C46   1.401403 A    
P5    O19   1.748606 S    
C27   C30   1.390299 A    
O1    Ba1   2.809290 S    
C18   C19   1.530318 S    
C48   H48   1.104197 S    
P7    C38   1.860116 S    
C13   H28   1.111786 S    
C38   C46   1.396520 A    
O6    P6    1.750942 S    
C42   C43   1.401508 A    
C31   C32   1.420083 A    
C37   C45   1.411356 A    
C34   H41   1.077493 S    
C25   C29   1.425904 A    
C5    C47   1.537512 S    
C40   C44   1.425320 A    
