data_mof_unit_pretest_1363.cif
_audit_creation_date              2012-12-10T20:10:37-0500
_audit_creation_method            fapswitch 2.2
_symmetry_space_group_name_H-M    P1
_symmetry_Int_Tables_number       1
_space_group_crystal_system       tetragonal
_cell_length_a                    15.905747
_cell_length_b                    15.905747
_cell_length_c                    42.975809
_cell_angle_alpha                 90.0
_cell_angle_beta                  90.0
_cell_angle_gamma                 90.0
_cell_volume                      10872.5697195

loop_
_atom_site_label
_atom_site_type_symbol
_atom_type_description
_atom_site_fract_x
_atom_site_fract_y
_atom_site_fract_z
_atom_type_partial_charge
C1    C     C_R   0.500000 1.000000 0.131317 -0.034425
C2    C     C_R   0.500000 1.000000 0.665673 0.618287
C3    C     C_R   1.000000 0.500000 0.334327 0.618287
C4    C     C_R   1.000000 0.500000 0.665673 0.618288
C5    C     C_R   1.000000 0.500000 0.834327 0.618287
C6    C     C_R   1.000000 0.500000 0.165673 0.618287
C7    C     C_R   0.500000 1.000000 0.834327 0.618287
C8    C     C_R   0.500000 1.000000 0.165673 0.618287
C9    C     C_R   0.339892 0.160108 0.250000 0.533675
C10   C     C_R   0.660114 0.839886 0.750000 0.529308
C11   C     C_R   0.839892 0.339892 0.250000 0.533673
C12   C     C_R   0.500000 1.000000 0.868683 -0.034425
C13   C     C_R   0.160114 0.660114 0.750000 0.529308
C14   C     C_R   0.660108 0.839892 0.250000 0.533674
C15   C     C_R   0.339886 0.160114 0.750000 0.529309
C16   C     C_R   0.160108 0.660108 0.250000 0.533673
C17   C     C_R   0.839886 0.339886 0.750000 0.529309
C18   C     C_R   0.339892 0.839892 0.750000 0.533673
C19   C     C_R   0.660114 0.160114 0.250000 0.529307
C20   C     C_R   0.839892 0.660108 0.750000 0.533671
C21   C     C_R   0.160114 0.339886 0.250000 0.529308
C22   C     C_R   0.660108 0.160108 0.750000 0.533672
C23   C     C_R   0.000000 0.500000 0.131317 -0.034425
C24   C     C_R   0.339886 0.839886 0.250000 0.529307
C25   C     C_R   0.160108 0.339892 0.750000 0.533670
C26   C     C_R   0.839886 0.660114 0.250000 0.529308
C27   C     C_1   0.276633 0.776633 0.250000 0.022301
C28   C     C_1   0.723352 0.223352 0.750000 0.015376
C29   C     C_1   0.223367 0.276633 0.250000 0.022301
C30   C     C_1   0.776648 0.723352 0.750000 0.015375
C31   C     C_1   0.723367 0.223367 0.250000 0.022301
C32   C     C_1   0.276648 0.776648 0.750000 0.015376
C33   C     C_1   0.776633 0.723367 0.250000 0.022301
C34   C     C_R   1.000000 0.500000 0.868683 -0.034425
C35   C     C_1   0.223352 0.276648 0.750000 0.015373
C36   C     C_1   0.276633 0.223367 0.750000 0.022302
C37   C     C_1   0.723352 0.776648 0.250000 0.015377
C38   C     C_1   0.223367 0.723367 0.750000 0.022301
C39   C     C_1   0.776648 0.276648 0.250000 0.015376
C40   C     C_1   0.723367 0.776633 0.750000 0.022302
C41   C     C_1   0.276648 0.223352 0.250000 0.015378
C42   C     C_1   0.776633 0.276633 0.750000 0.022301
C43   C     C_1   0.223352 0.723352 0.250000 0.015376
C44   C     C_R   0.447108 0.056356 0.114879 0.193556
C45   C     C_R   1.000000 0.500000 0.631317 -0.034424
C46   C     C_R   0.552892 0.056356 0.885121 0.193556
C47   C     C_R   0.943644 0.447108 0.114879 0.193556
C48   C     C_R   0.943643 0.552892 0.885121 0.193556
C49   C     C_R   0.552892 0.943644 0.114879 0.193555
C50   C     C_R   0.447108 0.943643 0.885121 0.193556
C51   C     C_R   0.056356 0.552892 0.114879 0.193556
C52   C     C_R   0.056356 0.447108 0.885121 0.193555
C53   C     C_R   0.947108 0.556357 0.614879 0.193555
C54   C     C_R   0.052892 0.556356 0.385120 0.193556
C55   C     C_R   0.443643 0.947108 0.614879 0.193556
C56   C     C_R   0.000000 0.500000 0.368683 -0.034426
C57   C     C_R   0.443644 0.052892 0.385120 0.193556
C58   C     C_R   0.052891 0.443643 0.614879 0.193555
C59   C     C_R   0.947108 0.443644 0.385120 0.193556
C60   C     C_R   0.556357 0.052892 0.614879 0.193556
C61   C     C_R   0.556356 0.947108 0.385120 0.193557
C62   C     C_R   0.438502 0.046770 0.082312 0.116585
C63   C     C_R   0.561498 0.046770 0.917688 0.116585
C64   C     C_R   0.953230 0.438502 0.082312 0.116585
C65   C     C_R   0.953230 0.561498 0.917688 0.116585
C66   C     C_R   0.561498 0.953230 0.082312 0.116585
C67   C     C_R   0.500000 1.000000 0.631317 -0.034424
C68   C     C_R   0.438502 0.953229 0.917688 0.116585
C69   C     C_R   0.046770 0.561498 0.082312 0.116585
C70   C     C_R   0.046770 0.438502 0.917688 0.116584
C71   C     C_R   0.938502 0.546771 0.582312 0.116584
C72   C     C_R   0.061498 0.546770 0.417688 0.116585
C73   C     C_R   0.453229 0.938502 0.582312 0.116585
C74   C     C_R   0.453230 0.061498 0.417688 0.116585
C75   C     C_R   0.061498 0.453229 0.582312 0.116584
C76   C     C_R   0.938502 0.453230 0.417688 0.116585
C77   C     C_R   0.546770 0.061498 0.582312 0.116585
C78   C     C_R   0.500000 1.000000 0.368683 -0.034426
C79   C     C_R   0.546770 0.938501 0.417688 0.116585
C80   C     C_R   0.500000 1.000000 0.065870 -0.082417
C81   C     C_R   0.500000 1.000000 0.934130 -0.082417
C82   C     C_R   0.000000 0.500000 0.065870 -0.082417
C83   C     C_R   0.000000 0.500000 0.934130 -0.082417
C84   C     C_R   1.000000 0.500000 0.565870 -0.082417
C85   C     C_R   1.000000 0.500000 0.434130 -0.082417
C86   C     C_R   0.500000 1.000000 0.565870 -0.082417
C87   C     C_R   0.500000 1.000000 0.434130 -0.082417
C88   C     C_R   1.000000 0.500000 0.468482 0.422226
C89   C     C_R   0.500000 1.000000 0.334327 0.618286
C90   C     C_R   1.000000 0.500000 0.531518 0.422225
C91   C     C_R   0.500000 1.000000 0.468482 0.422226
C92   C     C_R   0.500000 1.000000 0.531518 0.422225
C93   C     C_R   0.500000 1.000000 0.968482 0.422225
C94   C     C_R   0.500000 1.000000 0.031517 0.422226
C95   C     C_R   0.000000 0.500000 0.968482 0.422225
C96   C     C_R   0.000000 0.500000 0.031518 0.422225
H1    H     H_    0.285576 0.155356 0.163007 0.373618
H2    H     H_    0.214422 0.655355 0.336992 0.373617
H3    H     H_    0.344644 0.785578 0.663007 0.373618
H4    H     H_    0.344641 0.214429 0.336996 0.373619
H5    H     H_    0.214414 0.344649 0.663012 0.373616
H6    H     H_    0.785578 0.344645 0.336992 0.373617
H7    H     H_    0.655356 0.214421 0.663007 0.373618
H8    H     H_    0.655361 0.785570 0.336997 0.373619
H9    H     H_    0.427090 0.194883 0.052874 0.357766
H10   H     H_    0.572909 0.194884 0.947126 0.357766
H11   H     H_    0.805116 0.427091 0.052874 0.357766
H12   H     H_    0.714422 0.155356 0.836992 0.373617
H13   H     H_    0.805116 0.572909 0.947126 0.357766
H14   H     H_    0.572910 0.805116 0.052874 0.357766
H15   H     H_    0.427092 0.805116 0.947126 0.357766
H16   H     H_    0.194884 0.572909 0.052874 0.357766
H17   H     H_    0.194884 0.427092 0.947126 0.357766
H18   H     H_    0.927092 0.694884 0.552874 0.357766
H19   H     H_    0.072910 0.694883 0.447126 0.357766
H20   H     H_    0.305116 0.927092 0.552874 0.357766
H21   H     H_    0.305117 0.072910 0.447126 0.357766
H22   H     H_    0.072908 0.305116 0.552874 0.357766
H23   H     H_    0.844645 0.285578 0.163007 0.373617
H24   H     H_    0.927090 0.305117 0.447126 0.357766
H25   H     H_    0.694884 0.072908 0.552874 0.357766
H26   H     H_    0.694883 0.927090 0.447126 0.357766
H27   H     H_    0.844644 0.714422 0.836993 0.373619
H28   H     H_    0.714420 0.844646 0.163009 0.373616
H29   H     H_    0.285578 0.844644 0.836992 0.373617
H30   H     H_    0.155355 0.714422 0.163008 0.373618
H31   H     H_    0.155352 0.285584 0.836989 0.373616
H32   H     H_    0.785584 0.655353 0.663011 0.373615
N1    N     N_R   0.500226 0.073470 0.015480 -0.140391
N2    N     N_R   0.000226 0.426530 0.484519 -0.140391
N3    N     N_R   0.573470 0.999773 0.515480 -0.140390
N4    N     N_R   0.426530 0.999774 0.484519 -0.140391
N5    N     N_R   0.999773 0.426530 0.515480 -0.140390
N6    N     N_R   0.999774 0.573470 0.484519 -0.140391
N7    N     N_R   0.426530 0.000227 0.515480 -0.140390
N8    N     N_R   0.573470 0.000226 0.484519 -0.140391
N9    N     N_R   0.500227 0.926530 0.984519 -0.140391
N10   N     N_R   0.073470 0.499774 0.015480 -0.140390
N11   N     N_R   0.926530 0.499773 0.984519 -0.140391
N12   N     N_R   0.499774 0.926530 0.015480 -0.140390
N13   N     N_R   0.499773 0.073470 0.984519 -0.140390
N14   N     N_R   0.926530 0.500226 0.015480 -0.140390
N15   N     N_R   0.073470 0.500227 0.984519 -0.140389
N16   N     N_R   0.000227 0.573470 0.515480 -0.140391
O1    O     O_3   0.500000 1.000000 0.250000 -0.492836
O2    O     O_R   0.500000 0.930740 0.680620 -0.479292
O3    O     O_3   0.608060 0.805964 0.349954 -0.438360
O4    O     O_2   0.324145 0.028776 0.036149 -0.161874
O5    O     O_2   0.274175 0.092495 0.084130 -0.111803
O6    O     O_3   0.367762 0.182580 0.047585 -0.390802
O7    O     O_2   0.675855 0.028777 0.963851 -0.161874
O8    O     O_2   0.725824 0.092497 0.915870 -0.111802
O9    O     O_3   0.632236 0.182581 0.952415 -0.390803
O10   O     O_2   0.971223 0.324145 0.036149 -0.161874
O11   O     O_2   0.907504 0.274176 0.084130 -0.111802
O12   O     O_3   0.817420 0.367763 0.047585 -0.390802
O13   O     O_R   0.930740 0.500000 0.319380 -0.479293
O14   O     O_2   0.971223 0.675855 0.963851 -0.161874
O15   O     O_2   0.907503 0.725824 0.915870 -0.111802
O16   O     O_3   0.817419 0.632237 0.952415 -0.390802
O17   O     O_2   0.675855 0.971223 0.036149 -0.161874
O18   O     O_2   0.725824 0.907504 0.084130 -0.111801
O19   O     O_3   0.632237 0.817420 0.047585 -0.390802
O20   O     O_2   0.324145 0.971222 0.963851 -0.161874
O21   O     O_2   0.274176 0.907503 0.915870 -0.111802
O22   O     O_3   0.367764 0.817419 0.952415 -0.390802
O23   O     O_2   0.028777 0.675855 0.036149 -0.161874
O24   O     O_R   0.069260 0.500000 0.680620 -0.479296
O25   O     O_2   0.092496 0.725824 0.084130 -0.111802
O26   O     O_3   0.182581 0.632237 0.047585 -0.390802
O27   O     O_2   0.028778 0.324145 0.963851 -0.161874
O28   O     O_2   0.092497 0.274176 0.915870 -0.111799
O29   O     O_3   0.182581 0.367764 0.952415 -0.390802
O30   O     O_2   0.824145 0.528778 0.536149 -0.161875
O31   O     O_2   0.774176 0.592498 0.584130 -0.111799
O32   O     O_3   0.867764 0.682581 0.547585 -0.390802
O33   O     O_2   0.175855 0.528776 0.463851 -0.161874
O34   O     O_2   0.225824 0.592495 0.415870 -0.111803
O35   O     O_R   1.000000 0.430740 0.819380 -0.479295
O36   O     O_3   0.132237 0.682580 0.452415 -0.390802
O37   O     O_2   0.471222 0.824145 0.536149 -0.161874
O38   O     O_2   0.407503 0.774176 0.584130 -0.111802
O39   O     O_3   0.317419 0.867764 0.547585 -0.390802
O40   O     O_2   0.471224 0.175855 0.463851 -0.161874
O41   O     O_2   0.407505 0.225825 0.415870 -0.111806
O42   O     O_3   0.317420 0.132238 0.452415 -0.390802
O43   O     O_2   0.175854 0.471221 0.536149 -0.161875
O44   O     O_2   0.225823 0.407502 0.584130 -0.111797
O45   O     O_3   0.132235 0.317418 0.547585 -0.390803
O46   O     O_R   0.000000 0.569260 0.180620 -0.479292
O47   O     O_2   0.824145 0.471223 0.463851 -0.161874
O48   O     O_2   0.774175 0.407504 0.415870 -0.111803
O49   O     O_3   0.867762 0.317420 0.452415 -0.390802
O50   O     O_2   0.528778 0.175854 0.536149 -0.161874
O51   O     O_2   0.592497 0.225824 0.584130 -0.111802
O52   O     O_3   0.682581 0.132236 0.547585 -0.390802
O53   O     O_2   0.528776 0.824145 0.463851 -0.161873
O54   O     O_2   0.592495 0.774175 0.415870 -0.111808
O55   O     O_3   0.682579 0.867762 0.452415 -0.390801
O56   O     O_R   0.569260 0.000000 0.819380 -0.479293
O57   O     O_R   0.430740 0.000000 0.180620 -0.479291
O58   O     O_R   0.000000 0.569260 0.819380 -0.479291
O59   O     O_R   1.000000 0.430740 0.180620 -0.479293
O60   O     O_R   0.430740 0.000000 0.819380 -0.479292
O61   O     O_3   0.500000 0.000000 0.750000 -0.492835
O62   O     O_R   0.569260 0.000000 0.180620 -0.479294
O63   O     O_R   0.402540 0.166630 0.268230 -0.518188
O64   O     O_R   0.597460 0.833370 0.731770 -0.521927
O65   O     O_R   0.833370 0.402540 0.268230 -0.518194
O66   O     O_R   0.166630 0.597460 0.731770 -0.521927
O67   O     O_R   0.597460 0.833370 0.268230 -0.518186
O68   O     O_R   0.402540 0.166630 0.731770 -0.521927
O69   O     O_R   0.166630 0.597460 0.268230 -0.518194
O70   O     O_R   0.833370 0.402540 0.731770 -0.521927
O71   O     O_R   0.402540 0.833370 0.731770 -0.518194
O72   O     O_3   1.000000 0.500000 0.250000 -0.492834
O73   O     O_R   0.597460 0.166630 0.268230 -0.521928
O74   O     O_R   0.833370 0.597460 0.731770 -0.518199
O75   O     O_R   0.166630 0.402540 0.268230 -0.521928
O76   O     O_R   0.597460 0.166630 0.731770 -0.518194
O77   O     O_R   0.402540 0.833370 0.268230 -0.521928
O78   O     O_R   0.166630 0.402540 0.731770 -0.518200
O79   O     O_R   0.833370 0.597460 0.268230 -0.521928
O80   O     O_R   0.902540 0.666630 0.768230 -0.518192
O81   O     O_R   0.097460 0.333370 0.231770 -0.521928
O82   O     O_R   0.333370 0.902540 0.768230 -0.518194
O83   O     O_3   0.000000 0.500000 0.750000 -0.492833
O84   O     O_R   0.666630 0.097460 0.231770 -0.521928
O85   O     O_R   0.097460 0.333370 0.768230 -0.518198
O86   O     O_R   0.902540 0.666630 0.231770 -0.521928
O87   O     O_R   0.666630 0.097460 0.768230 -0.518194
O88   O     O_R   0.333370 0.902540 0.231770 -0.521928
O89   O     O_R   0.902540 0.333370 0.231770 -0.518194
O90   O     O_R   0.097460 0.666630 0.768230 -0.521927
O91   O     O_R   0.333370 0.097460 0.231770 -0.518194
O92   O     O_R   0.666630 0.902540 0.768230 -0.521928
O93   O     O_R   0.097460 0.666630 0.231770 -0.518194
O94   O     O_R   0.500000 0.930740 0.319380 -0.479288
O95   O     O_R   0.902540 0.333370 0.768230 -0.521927
O96   O     O_R   0.666630 0.902540 0.231770 -0.518198
O97   O     O_R   0.333370 0.097460 0.768230 -0.521927
O98   O     O_2   0.453020 0.172470 0.160851 -0.299831
O99   O     O_2   0.380846 0.214184 0.113362 -0.189190
O100  O     O_3   0.305965 0.108061 0.150046 -0.438359
O101  O     O_2   0.546979 0.172470 0.839149 -0.299832
O102  O     O_2   0.619152 0.214184 0.886638 -0.189188
O103  O     O_3   0.694035 0.108061 0.849954 -0.438358
O104  O     O_2   0.827530 0.453020 0.160851 -0.299832
O105  O     O_R   0.500000 0.069260 0.680620 -0.479292
O106  O     O_2   0.785816 0.380847 0.113362 -0.189188
O107  O     O_3   0.891939 0.305965 0.150046 -0.438359
O108  O     O_2   0.827530 0.546979 0.839149 -0.299831
O109  O     O_2   0.785816 0.619152 0.886638 -0.189188
O110  O     O_3   0.891938 0.694035 0.849954 -0.438360
O111  O     O_2   0.546980 0.827530 0.160851 -0.299835
O112  O     O_2   0.619153 0.785816 0.113362 -0.189187
O113  O     O_3   0.694035 0.891939 0.150046 -0.438357
O114  O     O_2   0.453020 0.827530 0.839149 -0.299832
O115  O     O_2   0.380848 0.785815 0.886638 -0.189188
O116  O     O_R   0.069260 0.500000 0.319380 -0.479293
O117  O     O_3   0.305965 0.891938 0.849954 -0.438358
O118  O     O_2   0.172470 0.546980 0.160851 -0.299833
O119  O     O_2   0.214184 0.619153 0.113362 -0.189188
O120  O     O_3   0.108061 0.694035 0.150046 -0.438359
O121  O     O_2   0.172470 0.453021 0.839149 -0.299837
O122  O     O_2   0.214185 0.380848 0.886638 -0.189183
O123  O     O_3   0.108062 0.305965 0.849954 -0.438357
O124  O     O_2   0.953021 0.672470 0.660851 -0.299837
O125  O     O_2   0.880848 0.714185 0.613362 -0.189182
O126  O     O_3   0.805966 0.608062 0.650046 -0.438356
O127  O     O_R   0.930740 0.500000 0.680620 -0.479295
O128  O     O_2   0.046980 0.672470 0.339149 -0.299833
O129  O     O_2   0.119153 0.714184 0.386638 -0.189189
O130  O     O_3   0.194035 0.608060 0.349954 -0.438359
O131  O     O_2   0.327530 0.953021 0.660851 -0.299832
O132  O     O_2   0.285815 0.880848 0.613362 -0.189188
O133  O     O_3   0.391938 0.805965 0.650046 -0.438359
O134  O     O_2   0.327530 0.046981 0.339149 -0.299827
O135  O     O_2   0.285816 0.119154 0.386638 -0.189195
O136  O     O_3   0.391940 0.194035 0.349954 -0.438361
O137  O     O_2   0.046978 0.327530 0.660851 -0.299839
O138  O     O_R   0.500000 0.069260 0.319380 -0.479289
O139  O     O_2   0.119151 0.285815 0.613362 -0.189180
O140  O     O_3   0.194034 0.391938 0.650046 -0.438357
O141  O     O_2   0.953020 0.327530 0.339149 -0.299833
O142  O     O_2   0.880846 0.285816 0.386638 -0.189188
O143  O     O_3   0.805965 0.391939 0.349954 -0.438359
O144  O     O_2   0.672470 0.046979 0.660851 -0.299832
O145  O     O_2   0.714185 0.119152 0.613362 -0.189188
O146  O     O_3   0.608062 0.194034 0.650046 -0.438358
O147  O     O_2   0.672470 0.953019 0.339149 -0.299825
O148  O     O_2   0.714183 0.880846 0.386638 -0.189198
S1    S     S_3+6 0.397490 0.141715 0.134915 0.096249
S2    S     S_3+6 0.102510 0.641715 0.365085 0.096249
S3    S     S_3+6 0.358284 0.897490 0.634915 0.096250
S4    S     S_3+6 0.358285 0.102511 0.365085 0.096248
S5    S     S_3+6 0.102509 0.358284 0.634915 0.096251
S6    S     S_3+6 0.897490 0.358285 0.365085 0.096249
S7    S     S_3+6 0.641715 0.102509 0.634915 0.096250
S8    S     S_3+6 0.641715 0.897489 0.365085 0.096248
S9    S     S_3+6 0.347888 0.086594 0.062382 0.172349
S10   S     S_3+6 0.652112 0.086595 0.937618 0.172349
S11   S     S_3+6 0.913405 0.347888 0.062382 0.172349
S12   S     S_3+6 0.602510 0.141715 0.865085 0.096250
S13   S     S_3+6 0.913405 0.652112 0.937618 0.172349
S14   S     S_3+6 0.652112 0.913405 0.062382 0.172349
S15   S     S_3+6 0.347888 0.913404 0.937618 0.172349
S16   S     S_3+6 0.086595 0.652112 0.062382 0.172349
S17   S     S_3+6 0.086596 0.347888 0.937618 0.172349
S18   S     S_3+6 0.847889 0.586596 0.562382 0.172349
S19   S     S_3+6 0.152112 0.586594 0.437618 0.172349
S20   S     S_3+6 0.413404 0.847888 0.562382 0.172349
S21   S     S_3+6 0.413406 0.152112 0.437618 0.172348
S22   S     S_3+6 0.152111 0.413404 0.562382 0.172350
S23   S     S_3+6 0.858285 0.397490 0.134915 0.096250
S24   S     S_3+6 0.847888 0.413405 0.437618 0.172348
S25   S     S_3+6 0.586596 0.152111 0.562382 0.172349
S26   S     S_3+6 0.586594 0.847887 0.437618 0.172348
S27   S     S_3+6 0.858285 0.602510 0.865085 0.096250
S28   S     S_3+6 0.602510 0.858285 0.134915 0.096250
S29   S     S_3+6 0.397490 0.858285 0.865085 0.096250
S30   S     S_3+6 0.141715 0.602510 0.134915 0.096250
S31   S     S_3+6 0.141715 0.397490 0.865085 0.096251
S32   S     S_3+6 0.897491 0.641716 0.634915 0.096251
Zn1   Zn    Zn3+2 0.401050 0.000000 0.224090 1.052584
Zn2   Zn    Zn3+2 0.098950 0.500000 0.275910 1.052583
Zn3   Zn    Zn3+2 0.500000 0.901050 0.724090 1.052585
Zn4   Zn    Zn3+2 0.500000 0.098950 0.275910 1.052588
Zn5   Zn    Zn3+2 0.098950 0.500000 0.724090 1.052579
Zn6   Zn    Zn3+2 0.901050 0.500000 0.275910 1.052583
Zn7   Zn    Zn3+2 0.500000 0.098950 0.724090 1.052585
Zn8   Zn    Zn3+2 0.500000 0.901050 0.275910 1.052590
Zn9   Zn    Zn3+2 0.598950 1.000000 0.775910 1.052584
Zn10  Zn    Zn3+2 1.000000 0.401050 0.224090 1.052583
Zn11  Zn    Zn3+2 1.000000 0.598950 0.775910 1.052585
Zn12  Zn    Zn3+2 0.598950 0.000000 0.224090 1.052582
Zn13  Zn    Zn3+2 0.401050 1.000000 0.775910 1.052585
Zn14  Zn    Zn3+2 0.000000 0.598950 0.224090 1.052584
Zn15  Zn    Zn3+2 1.000000 0.401050 0.775910 1.052580
Zn16  Zn    Zn3+2 0.901050 0.500000 0.724090 1.052581

loop_
_geom_bond_atom_site_label_1
_geom_bond_atom_site_label_2
_ccdc_geom_bond_type
O60   Zn13  S    
C87   C91   S    
O138  Zn4   S    
C68   S15   S    
O34   S19   D    
C24   C27   S    
C79   C87   A    
C26   O86   A    
H31   O123  S    
C68   C81   A    
N10   N15   A    
O59   Zn10  S    
H20   O39   S    
O140  S5    S    
O1    Zn4   S    
C10   C40   S    
O77   Zn8   S    
C5    O35   A    
O9    S10   S    
O87   Zn9   S    
O67   Zn8   S    
O53   S26   D    
C19   O73   A    
C48   C65   A    
H18   O32   S    
C61   S8    S    
O72   Zn14  S    
H8    O3    S    
C89   O94   A    
O50   S25   D    
C78   C89   S    
N9    N12   A    
O62   Zn12  S    
O40   S21   D    
O117  S29   S    
C9    O63   A    
C47   C64   A    
C21   C29   S    
O108  S27   D    
C4    O24   A    
O1    Zn8   S    
O124  S32   D    
O133  S3    S    
H10   O9    S    
O134  S4    D    
C20   O80   A    
O29   S17   S    
O7    S10   D    
O83   Zn15  S    
C17   O95   A    
O101  S12   D    
O70   Zn16  S    
H28   O113  S    
O5    S9    D    
C92   N7    A    
C34   C48   A    
C53   C71   A    
O73   Zn4   S    
O13   Zn6   S    
H5    O140  S    
O17   S14   D    
C62   S9    S    
H32   O126  S    
C57   C78   A    
O51   S25   D    
O65   Zn6   S    
O63   Zn4   S    
C9    C41   S    
C56   C59   A    
C6    O59   A    
C66   S14   S    
O10   S11   D    
O61   Zn7   S    
N11   N14   A    
O58   Zn11  S    
O55   S26   S    
O16   S13   S    
O82   Zn13  S    
O35   Zn15  S    
O118  S30   D    
O37   S20   D    
O11   S11   D    
O2    Zn3   S    
C51   C69   A    
O72   Zn6   S    
C76   C85   A    
C11   O89   A    
O120  S30   S    
C2    O2    A    
O143  S6    S    
O141  S6    D    
C9    O91   A    
C1    C8    S    
O8    S10   D    
C72   C85   A    
O84   Zn12  S    
O89   Zn10  S    
C20   C30   S    
C24   O77   A    
C89   O138  A    
O48   S24   D    
C14   O67   A    
C62   C80   A    
H21   O42   S    
C96   N10   A    
H22   O45   S    
C75   C84   A    
O104  S23   D    
O6    S9    S    
O43   S22   D    
O94   Zn8   S    
C73   S20   S    
C10   O64   A    
H27   O110  S    
C69   C82   A    
C1    C44   A    
C91   N8    A    
C60   C67   A    
O26   S16   S    
O39   S20   S    
O1    Zn1   S    
C74   C87   A    
H25   O52   S    
C55   S3    S    
C45   C53   A    
C64   S11   S    
C84   C90   S    
O123  S31   S    
C4    C45   S    
C7    C12   S    
O95   Zn15  S    
C23   C47   A    
C49   C66   A    
O145  S7    D    
O105  Zn7   S    
C12   C46   A    
N3    N8    A    
C2    O105  A    
O64   Zn3   S    
C15   O68   A    
H23   O107  S    
C59   S6    S    
O139  S5    D    
C26   C33   S    
O36   S19   S    
O46   Zn14  S    
C25   O78   A    
O109  S27   D    
O147  S8    D    
C13   C38   S    
O76   Zn7   S    
O131  S3    D    
C54   S2    S    
C17   O70   A    
C15   C36   S    
O98   S1    D    
C85   C88   S    
C53   S32   S    
C29   C41   T    
O33   S19   D    
O75   Zn2   S    
O1    Zn12  S    
H19   O36   S    
C16   O93   A    
C12   C50   A    
O127  Zn16  S    
C66   C80   A    
C10   O92   A    
H24   O49   S    
O61   Zn13  S    
C46   C63   A    
O30   S18   D    
O49   S24   S    
C88   N6    A    
O83   Zn5   S    
H1    O100  S    
C14   O96   A    
H3    O133  S    
O52   S25   S    
C61   C79   A    
O136  S4    S    
C69   S16   S    
N6    N16   A    
C55   C73   A    
C63   S10   S    
C21   O75   A    
H29   O117  S    
C3    O13   A    
O86   Zn14  S    
C59   C76   A    
C90   N16   A    
C72   S19   S    
O128  S2    D    
C51   S30   S    
C15   O97   A    
C95   N15   A    
C94   N12   A    
C35   C36   T    
O71   Zn3   S    
O114  S29   D    
C19   C31   S    
H9    O6    S    
O61   Zn3   S    
C25   O85   A    
H17   O29   S    
C8    O57   A    
O100  S1    S    
N1    N13   A    
O72   Zn2   S    
C7    O56   A    
C17   C42   S    
O44   S22   D    
H16   O26   S    
C22   O87   A    
O92   Zn9   S    
O66   Zn5   S    
O111  S28   D    
C4    O127  A    
O102  S12   D    
C22   C28   S    
O74   Zn16  S    
O115  S29   D    
O45   S22   S    
O21   S15   D    
C45   C58   A    
O24   Zn5   S    
O137  S5    D    
O90   Zn11  S    
C90   N5    A    
O80   Zn11  S    
C91   N4    A    
O122  S31   D    
C60   S7    S    
O27   S17   D    
C33   C37   T    
C79   S26   S    
C7    O60   A    
C76   S24   S    
C77   S25   S    
H30   O120  S    
O79   Zn6   S    
C8    O62   A    
C70   C83   A    
C71   S18   S    
O15   S13   D    
C44   S1    S    
O38   S20   D    
O148  S8    D    
N2    N5    A    
C18   C32   S    
C80   C94   S    
C93   N13   A    
C22   O76   A    
C20   O74   A    
C24   O88   A    
O57   Zn1   S    
H14   O19   S    
O56   Zn9   S    
C34   C52   A    
O19   S14   S    
O130  S2    S    
C57   S4    S    
C14   C37   S    
O106  S23   D    
O20   S15   D    
O31   S18   D    
O144  S7    D    
O83   Zn16  S    
C46   S12   S    
O97   Zn13  S    
C27   C43   T    
C26   O79   A    
C48   S27   S    
C50   C68   A    
C3    O116  A    
O119  S30   D    
O125  S32   D    
O61   Zn9   S    
O103  S12   S    
O88   Zn1   S    
C18   O71   A    
C88   N2    A    
C74   S21   S    
O116  Zn2   S    
O78   Zn5   S    
O85   Zn15  S    
H12   O103  S    
C52   S31   S    
C63   C81   A    
C65   C83   A    
O135  S4    D    
O54   S26   D    
C18   O82   A    
O12   S11   S    
C32   C38   T    
H26   O55   S    
H2    O130  S    
H11   O12   S    
H4    O136  S    
O42   S21   S    
O32   S18   S    
O110  S27   S    
O22   S15   S    
C58   C75   A    
O107  S23   S    
C50   S29   S    
C54   C56   A    
C60   C77   A    
C94   N1    A    
C82   C96   S    
C47   S23   S    
O69   Zn2   S    
C92   N3    A    
C93   N9    A    
O96   Zn12  S    
C2    C67   S    
C5    O58   A    
O132  S3    D    
H7    O146  S    
C44   C62   A    
O28   S17   D    
C57   C74   A    
C19   O84   A    
O121  S31   D    
C81   C93   S    
C3    C56   S    
O25   S16   D    
C23   C51   A    
O4    S9    D    
C16   C43   S    
C61   C78   A    
C83   C95   S    
C5    C34   S    
C6    O46   A    
O23   S16   D    
C30   C40   T    
H15   O22   S    
C11   C39   S    
C64   C82   A    
C65   S13   S    
O68   Zn7   S    
C25   C35   S    
C77   C86   A    
O81   Zn10  S    
C95   N11   A    
O18   S14   D    
O93   Zn14  S    
O113  S28   S    
C58   S5    S    
O91   Zn1   S    
C71   C84   A    
C70   S17   S    
C13   O66   A    
O146  S7    S    
O72   Zn10  S    
H6    O143  S    
C55   C67   A    
O99   S1    D    
C21   O81   A    
O41   S21   D    
C49   S28   S    
C86   C92   S    
C11   O65   A    
N4    N7    A    
C6    C23   S    
C28   C42   T    
O14   S13   D    
C31   C39   T    
O129  S2    D    
C16   O69   A    
C73   C86   A    
C75   S22   S    
C52   C70   A    
C96   N14   A    
C54   C72   A    
O3    S8    S    
O47   S24   D    
O126  S32   S    
O142  S6    D    
H13   O16   S    
C1    C49   A    
O83   Zn11  S    
C13   O90   A    
O112  S28   D    
