data_mof_unit_pretest_128.cif
_audit_creation_date              2012-12-10T17:55:07-0500
_audit_creation_method            fapswitch 2.2
_symmetry_space_group_name_H-M    P1
_symmetry_Int_Tables_number       1
_space_group_crystal_system       triclinic
_cell_length_a                    8.817577
_cell_length_b                    10.878191
_cell_length_c                    9.534861
_cell_angle_alpha                 89.887933
_cell_angle_beta                  98.271263
_cell_angle_gamma                 91.185029
_cell_volume                      904.869643467

loop_
_atom_site_label
_atom_site_type_symbol
_atom_type_description
_atom_site_fract_x
_atom_site_fract_y
_atom_site_fract_z
_atom_type_partial_charge
C1    C     C_R   0.503059 0.262282 0.501040 0.820980
C2    C     C_R   0.496941 0.737718 0.498960 0.820979
C3    C     C_R   0.204175 0.499895 0.463945 0.849904
C4    C     C_R   0.795825 0.500105 0.536054 0.849902
C5    C     C_2   0.039825 0.483179 0.446927 -0.230025
C6    C     C_2   0.960175 0.516822 0.553073 -0.230026
C7    C     C_R   0.464563 0.066049 0.374415 -0.174881
C8    C     C_R   0.535437 0.933951 0.625585 -0.174881
C9    C     C_R   0.457980 0.938812 0.369896 -0.031247
C10   C     C_R   0.542020 0.061188 0.630104 -0.031247
C11   C     C_R   0.495250 0.871652 0.496928 -0.078948
C12   C     C_R   0.504750 0.128348 0.503072 -0.078949
C13   C     C_R   0.403185 0.422984 0.060245 0.093972
C14   C     C_R   0.596815 0.577016 0.939755 0.093973
C15   C     C_R   0.403531 0.423484 0.911831 -0.038375
C16   C     C_R   0.596468 0.576516 0.088169 -0.038374
Cu1   Cu    Cu3+1 0.500000 0.500020 0.640660 1.001230
Cu2   Cu    Cu3+1 0.500000 0.499980 0.359340 1.001230
H1    H     H_    0.436092 0.116578 0.276481 0.178562
H2    H     H_    0.563908 0.883422 0.723518 0.178562
H3    H     H_    0.326882 0.362272 0.844251 0.130319
H4    H     H_    0.673118 0.637728 0.155749 0.130319
N1    N     N_R   0.500040 0.500030 0.852080 -0.184090
N2    N     N_R   0.499960 0.499970 0.147920 -0.184090
O1    O     O_R   0.499990 0.319660 0.618740 -0.593454
O2    O     O_R   0.500010 0.680340 0.381260 -0.593454
O3    O     O_R   0.499990 0.319630 0.381170 -0.565242
O4    O     O_R   0.500010 0.680370 0.618830 -0.565241
O5    O     O_R   0.274840 0.500010 0.591370 -0.557520
O6    O     O_R   0.725160 0.499990 0.408630 -0.557520
O7    O     O_R   0.274830 0.499980 0.353800 -0.604764
O8    O     O_R   0.725170 0.500020 0.646200 -0.604763
C17   C     C_2   0.972851 0.410066 0.320215 0.422644
H5    H     H_    0.000103 0.435230 0.216414 0.080973
O9    O     O_2   0.893751 0.318161 0.332137 -0.513616
C18   C     C_2   0.027149 0.589936 0.679784 0.422642
H6    H     H_    0.999896 0.564775 0.783586 0.080974
O10   O     O_2   0.106250 0.681842 0.667861 -0.513616
C19   C     C_1   0.408343 0.881701 0.233644 0.288369
N3    N     N_1   0.368535 0.836394 0.124439 -0.257517
C20   C     C_1   0.591657 0.118299 0.766356 0.288369
N4    N     N_1   0.631465 0.163606 0.875561 -0.257516
C21   C     C_1   0.299713 0.338654 0.116427 0.251331
N5    N     N_1   0.216018 0.269961 0.159922 -0.288602
C22   C     C_1   0.700286 0.661346 0.883573 0.251331
N6    N     N_1   0.783981 0.730039 0.840078 -0.288604

loop_
_geom_bond_atom_site_label_1
_geom_bond_atom_site_label_2
_ccdc_geom_bond_type
C14   N1    A    
C3    O7    A    
C21   N5    T    
Cu2   O6    S    
C1    O3    A    
Cu1   O5    S    
C20   N4    T    
Cu2   O2    S    
C15   H3    S    
Cu1   O1    S    
C18   O10   D    
C17   H5    S    
C16   N2    A    
Cu1   N1    S    
C22   N6    T    
C10   C20   S    
C1    O1    A    
C9    C11   A    
C9    C19   S    
C4    O8    A    
C1    C12   S    
C10   C12   A    
C8    H2    S    
C8    C11   A    
Cu2   N2    S    
C2    C11   S    
C15   N1    A    
C18   H6    S    
C17   O9    D    
C6    C18   S    
Cu1   Cu2   S    
C14   C22   S    
C7    H1    S    
C13   C15   A    
C5    C6    D    
C14   C16   A    
C7    C12   A    
C4    C6    S    
C2    O4    A    
C7    C9    A    
C13   C21   S    
C2    O2    A    
C19   N3    T    
C3    O5    A    
Cu1   O8    S    
C16   H4    S    
Cu2   O7    S    
Cu1   O4    S    
C8    C10   A    
C4    O6    A    
Cu2   O3    S    
C13   N2    A    
C3    C5    S    
C5    C17   S    
