data_mof_unit_pretest_1594.cif
_audit_creation_date              2012-12-10T16:57:57-0500
_audit_creation_method            fapswitch 2.2
_symmetry_space_group_name_H-M    P1
_symmetry_Int_Tables_number       1
_space_group_crystal_system       triclinic
_cell_length_a                    13.13778
_cell_length_b                    13.119913
_cell_length_c                    15.102721
_cell_angle_alpha                 86.57317
_cell_angle_beta                  100.06714
_cell_angle_gamma                 90.423003
_cell_volume                      2558.52819156

loop_
_atom_site_label
_atom_site_type_symbol
_atom_type_description
_atom_site_fract_x
_atom_site_fract_y
_atom_site_fract_z
_atom_type_partial_charge
C1    C     C_R   0.462959 0.772952 0.466669 0.514629
C2    C     C_2   0.483842 0.056312 0.501311 -0.147732
C3    C     C_2   0.444299 0.883188 0.455698 -0.105652
C4    C     C_R   0.537505 0.227805 0.534011 0.506764
C5    C     C_2   0.502697 0.946178 0.509488 -0.152289
C6    C     C_2   0.111996 0.455351 0.466197 -0.092171
C7    C     C_2   0.064330 0.478794 0.533766 -0.137957
C8    C     C_2   0.891474 0.539598 0.542988 -0.084702
C9    C     C_2   0.952377 0.462484 0.526168 -0.030200
C10   C     C_R   0.777586 0.533494 0.528044 0.510154
C11   C     C_R   0.223476 0.465061 0.474434 0.502905
C12   C     C_R   0.385950 0.442334 0.111368 -0.124574
C13   C     C_R   0.514332 0.517185 0.741267 0.500883
C14   C     C_R   0.485616 0.481875 0.258995 0.501981
C15   C     C_R   0.524808 0.519740 0.838977 0.026033
C16   C     C_R   0.478222 0.475336 0.162593 0.036603
C17   C     C_R   0.375581 0.442012 0.018113 -0.133928
C18   C     C_3   0.911532 0.357975 0.500305 -0.343724
C19   C     C_R   0.560151 0.509414 0.120856 -0.121114
C20   C     C_R   0.549021 0.513020 0.027043 0.046868
C21   C     C_R   0.456374 0.477904 0.975403 0.043643
C22   C     C_R   0.445571 0.480247 0.881832 -0.122134
C23   C     C_R   0.615401 0.557159 0.890109 -0.129077
C24   C     C_R   0.627935 0.552839 0.983833 -0.136709
C25   C     C_2   0.552605 0.118233 0.546019 -0.081478
H1    H     H_    0.375144 0.452221 0.842232 0.121222
H2    H     H_    0.630497 0.536669 0.161155 0.104335
H3    H     H_    0.566335 0.916360 0.560188 0.161430
H4    H     H_    0.415321 0.087399 0.457160 0.131318
H5    H     H_    0.381641 0.912899 0.404062 0.108521
H6    H     H_    0.975739 0.302646 0.502880 0.120452
H7    H     H_    0.862317 0.327087 0.548349 0.146321
H8    H     H_    0.867394 0.362332 0.430442 0.160658
H9    H     H_    0.623796 0.088612 0.586854 0.088700
H10   H     H_    0.107186 0.511539 0.593568 0.125153
H11   H     H_    0.926910 0.610248 0.566933 0.091981
H12   H     H_    0.067874 0.431858 0.402991 0.101617
H13   H     H_    0.677496 0.587294 0.857688 0.131989
H14   H     H_    0.303983 0.415557 0.979387 0.108039
H15   H     H_    0.698958 0.580744 0.022394 0.108814
H16   H     H_    0.322113 0.416829 0.143744 0.114935
O1    O     O_3   0.500000 0.500000 0.500000 -0.436524
O2    O     O_R   0.563230 0.581310 0.697440 -0.545284
O3    O     O_R   0.421030 0.536630 0.288090 -0.538803
O4    O     O_R   0.459330 0.447650 0.700640 -0.545075
O5    O     O_R   0.556410 0.434400 0.313840 -0.540992
O6    O     O_R   0.733070 0.467190 0.476550 -0.545604
O7    O     O_R   0.261010 0.525210 0.419080 -0.537977
O8    O     O_R   0.532760 0.736590 0.530220 -0.539638
O9    O     O_R   0.473150 0.271000 0.574150 -0.530046
O10   O     O_R   0.407210 0.713280 0.414580 -0.536131
O11   O     O_R   0.586880 0.279120 0.481060 -0.541567
O12   O     O_R   0.723250 0.592730 0.566440 -0.539647
O13   O     O_R   0.282660 0.414860 0.537920 -0.534023
Zn1   Zn    Zn3+2 0.592480 0.421540 0.443840 0.926015
Zn2   Zn    Zn3+2 0.578450 0.600910 0.572270 0.934046
Zn3   Zn    Zn3+2 0.430000 0.409940 0.576840 0.936762
Zn4   Zn    Zn3+2 0.399070 0.567610 0.407050 0.941982

loop_
_geom_bond_atom_site_label_1
_geom_bond_atom_site_label_2
_ccdc_geom_bond_type
C12   C17   A    
O5    Zn1   S    
C3    H5    S    
C23   C24   A    
O7    Zn4   S    
C6    C7    D    
O1    Zn1   S    
O8    Zn2   S    
C19   H2    S    
C9    C18   S    
C19   C20   A    
O11   Zn1   S    
C25   H9    S    
C3    C5    D    
O1    Zn4   S    
C15   C23   A    
C4    C25   S    
C6    H12   S    
C14   O5    A    
O10   Zn4   S    
C21   C22   A    
C13   O4    A    
C1    O10   A    
C6    C11   S    
O4    Zn3   S    
C11   O7    A    
C12   H16   S    
C11   O13   A    
C1    O8    A    
C4    O11   A    
C16   C19   A    
O1    Zn3   S    
O6    Zn1   S    
C24   H15   S    
C2    C25   D    
C23   H13   S    
C13   C15   S    
C8    H11   S    
C8    C10   S    
C18   H8    S    
C14   C16   S    
C2    C5    S    
C18   H7    S    
C5    H3    S    
C20   C24   A    
O2    Zn2   S    
C13   O2    A    
C2    H4    S    
C20   C21   A    
C14   O3    A    
C22   H1    S    
O12   Zn2   S    
C4    O9    A    
C10   O6    A    
C7    C9    S    
C10   O12   A    
C17   H14   S    
C18   H6    S    
O1    Zn2   S    
O9    Zn3   S    
C7    H10   S    
C15   C22   A    
C17   C21   A    
C12   C16   A    
O3    Zn4   S    
C8    C9    D    
C1    C3    S    
O13   Zn3   S    
