data_mof_unit_pretest_983.cif
_audit_creation_date              2012-12-10T20:27:57-0500
_audit_creation_method            fapswitch 2.2
_symmetry_space_group_name_H-M    P1
_symmetry_Int_Tables_number       1
_space_group_crystal_system       triclinic
_cell_length_a                    12.812926
_cell_length_b                    10.723997
_cell_length_c                    9.901453
_cell_angle_alpha                 90.273128
_cell_angle_beta                  98.519136
_cell_angle_gamma                 91.554844
_cell_volume                      1344.95700413

loop_
_atom_site_label
_atom_site_type_symbol
_atom_type_description
_atom_site_fract_x
_atom_site_fract_y
_atom_site_fract_z
_atom_type_partial_charge
C1    C     C_R   0.496303 0.260251 0.499218 0.886176
C2    C     C_R   0.451551 0.936810 0.366718 0.174212
C3    C     C_R   0.475743 0.871574 0.492335 -0.133318
C4    C     C_R   0.299766 0.518364 0.473010 0.899012
C5    C     C_R   0.478695 0.936654 0.615164 0.093724
C6    C     C_3   0.555793 0.931828 0.743757 -0.486643
C7    C     C_3   0.558253 0.072808 0.744835 -0.472024
C8    C     C_R   0.464361 0.397192 0.061622 0.163620
C9    C     C_R   0.555526 0.587942 0.085036 -0.108084
C10   C     C_R   0.559896 0.585552 0.942220 0.227604
C11   C     C_R   0.464625 0.397977 0.920705 0.145256
C12   C     C_R   0.032746 0.542939 0.568307 0.102166
C13   C     C_3   0.364880 0.324573 0.886466 -0.484530
C14   C     C_3   0.362297 0.320464 0.040398 -0.152363
C15   C     C_R   0.495052 0.740118 0.498360 0.861724
C16   C     C_R   0.702378 0.495726 0.527923 0.895745
C17   C     C_R   0.816429 0.494469 0.546334 -0.178414
C18   C     C_R   0.188460 0.549498 0.457904 -0.204093
C19   C     C_R   0.019265 0.516066 0.321427 -0.297011
C20   C     C_R   0.125721 0.545255 0.329574 0.405301
C21   C     C_R   0.140540 0.572765 0.574925 0.095312
C22   C     C_3   0.807874 0.300275 0.309816 0.114346
C23   C     C_R   0.973649 0.507729 0.440769 -0.051200
C24   C     C_3   0.738442 0.252904 0.180824 -0.804548
C25   C     C_3   0.645174 0.665815 0.896172 -0.890590
C26   C     C_3   0.265775 0.382964 0.078097 -0.693564
C27   C     C_3   0.150790 0.704243 0.187986 0.119211
C28   C     C_3   0.178754 0.736795 0.048205 -0.888856
C29   C     C_3   0.200313 0.640190 0.699129 -0.873585
C30   C     C_3   0.433289 0.875584 0.227312 -0.874916
C31   C     C_R   0.867664 0.474015 0.432321 0.431877
C32   C     C_R   0.874521 0.525658 0.673412 -0.290551
C33   C     C_R   0.982479 0.547070 0.685048 -0.194181
C34   C     C_R   0.480173 0.064000 0.617084 0.129675
C35   C     C_R   0.477795 0.129047 0.496061 -0.152743
C36   C     C_R   0.452799 0.066354 0.371172 -0.236949
H1    H     H_    0.632346 0.892158 0.727792 0.203309
H2    H     H_    0.025142 0.569572 0.785006 0.161246
H3    H     H_    0.442253 0.117863 0.276706 0.164635
H4    H     H_    0.518381 0.891723 0.828742 0.213647
H5    H     H_    0.772999 0.264304 0.399297 0.122423
H6    H     H_    0.888288 0.262601 0.311941 0.131018
H7    H     H_    0.770042 0.287873 0.089021 0.247984
H8    H     H_    0.736402 0.149293 0.178715 0.197961
H9    H     H_    0.656783 0.285645 0.178868 0.260803
H10   H     H_    0.642037 0.669040 0.785400 0.294040
H11   H     H_    0.642302 0.761916 0.936699 0.207461
H12   H     H_    0.524917 0.112796 0.832254 0.197797
H13   H     H_    0.722921 0.628353 0.939210 0.224319
H14   H     H_    0.193175 0.341243 0.017631 0.216410
H15   H     H_    0.260609 0.365760 0.186884 0.269007
H16   H     H_    0.270025 0.483868 0.055445 0.280919
H17   H     H_    0.201710 0.761486 0.267105 0.139744
H18   H     H_    0.066830 0.729239 0.188077 0.139747
H19   H     H_    0.122774 0.687399 0.968418 0.249226
H20   H     H_    0.172896 0.838834 0.031597 0.218488
H21   H     H_    0.260221 0.708744 0.039498 0.259633
H22   H     H_    0.275043 0.685289 0.677755 0.257256
H23   H     H_    0.635621 0.114625 0.727935 0.200852
H24   H     H_    0.152741 0.717874 0.729097 0.225745
H25   H     H_    0.217049 0.574896 0.785675 0.241432
H26   H     H_    0.375201 0.797293 0.225400 0.261869
H27   H     H_    0.401185 0.941332 0.146174 0.215203
H28   H     H_    0.508971 0.841893 0.201354 0.244903
H29   H     H_    0.600892 0.657406 0.150306 0.158352
H30   H     H_    0.301845 0.379115 0.826449 0.223576
H31   H     H_    0.376776 0.231884 0.841898 0.181151
H32   H     H_    0.372004 0.224474 0.081050 0.160614
H33   H     H_    0.836221 0.537569 0.762877 0.185795
H34   H     H_    0.972516 0.504196 0.221392 0.207952
N1    N     N_R   0.499290 0.499140 0.142710 -0.119746
N2    N     N_R   0.499290 0.499180 0.857070 -0.106840
O1    O     O_R   0.500010 0.316790 0.614690 -0.610290
O2    O     O_3   0.166419 0.575859 0.212620 -0.616541
O3    O     O_R   0.500000 0.316760 0.385350 -0.629779
O4    O     O_R   0.346360 0.499990 0.595720 -0.614355
O5    O     O_R   0.346350 0.499960 0.366370 -0.586899
O6    O     O_R   0.500000 0.683240 0.614650 -0.631998
O7    O     O_R   0.499990 0.683210 0.385310 -0.620147
O8    O     O_R   0.653650 0.500040 0.633630 -0.636827
O9    O     O_R   0.653640 0.500010 0.404280 -0.556486
O10   O     O_3   0.812468 0.431955 0.308718 -0.603530
Zn1   Zn    Zn3+2 0.500010 0.500020 0.653130 0.930954
Zn2   Zn    Zn3+2 0.499990 0.499980 0.346870 0.961162

loop_
_geom_bond_atom_site_label_1
_geom_bond_atom_site_label_2
_ccdc_geom_bond_type
C30   H28   S    
C18   C21   A    
C35   C36   A    
C28   H20   S    
C27   H18   S    
C28   H21   S    
C12   C23   A    
C31   O10   S    
C5    C6    S    
C24   H9    S    
C22   O10   S    
C26   H14   S    
O7    Zn2   S    
O3    Zn2   S    
C15   O6    A    
C34   C35   A    
O6    Zn1   S    
C15   O7    A    
C19   C20   A    
C16   C17   S    
C27   O2    S    
C9    C10   A    
C25   H11   S    
C18   C20   A    
C4    C18   S    
C13   C14   S    
O8    Zn1   S    
O4    Zn1   S    
C7    H23   S    
C28   H19   S    
C25   H13   S    
C13   H30   S    
C29   H25   S    
C1    O3    A    
C11   N2    A    
O5    Zn2   S    
C21   C29   S    
C12   C21   A    
C16   O8    A    
C23   C31   A    
C19   C23   A    
C26   H16   S    
C29   H24   S    
C5    C34   A    
C6    H1    S    
C20   O2    S    
C14   C26   S    
C32   H33   S    
C10   C25   S    
C30   H26   S    
C24   H8    S    
C7    C34   S    
C22   C24   S    
O9    Zn2   S    
C3    C15   S    
C1    C35   S    
N1    Zn2   S    
C13   H31   S    
C2    C36   A    
C24   H7    S    
C8    N1    A    
C8    C14   S    
C36   H3    S    
C9    N1    A    
C3    C5    A    
C27   H17   S    
C6    C7    S    
C33   H2    S    
C2    C30   S    
C1    O1    A    
C7    H12   S    
C2    C3    A    
C4    O5    A    
C26   H15   S    
C32   C33   A    
C11   C13   S    
C22   H6    S    
C8    C11   A    
C17   C31   A    
C16   O9    A    
C6    H4    S    
C9    H29   S    
C4    O4    A    
N2    Zn1   S    
C22   H5    S    
C29   H22   S    
C27   C28   S    
C17   C32   A    
C14   H32   S    
C19   H34   S    
C12   C33   A    
C30   H27   S    
C25   H10   S    
O1    Zn1   S    
C10   N2    A    
