data_mof_unit_pretest_1951.cif
_audit_creation_date              2012-12-10T19:19:39-0500
_audit_creation_method            fapswitch 2.2
_symmetry_space_group_name_H-M    P1
_symmetry_Int_Tables_number       1
_space_group_crystal_system       triclinic
_cell_length_a                    24.443844
_cell_length_b                    24.445265
_cell_length_c                    39.789561
_cell_angle_alpha                 89.999987
_cell_angle_beta                  89.999978
_cell_angle_gamma                 90.002065
_cell_volume                      23775.7048228

loop_
_atom_site_label
_atom_site_type_symbol
_atom_type_description
_atom_site_fract_x
_atom_site_fract_y
_atom_site_fract_z
_atom_type_partial_charge
C1    C     C_R   0.271331 0.228670 0.250001 0.113850
C2    C     C_R   0.728582 0.771258 0.749915 0.113723
C3    C     C_R   0.771340 0.271351 0.250005 0.114390
C4    C     C_R   0.228604 0.728750 0.750087 0.113783
C5    C     C_R   0.728669 0.771330 0.250001 0.113850
C6    C     C_R   0.271418 0.228742 0.749915 0.113723
C7    C     C_R   0.228660 0.728649 0.250005 0.114390
C8    C     C_R   0.771396 0.271250 0.750087 0.113783
C9    C     C_R   0.271254 0.771417 0.750085 0.113685
C10   C     C_R   0.728681 0.228690 0.250005 0.113884
C11   C     C_R   0.771249 0.728605 0.749914 0.113876
C12   C     C_R   0.228672 0.271329 0.250000 0.113577
C13   C     C_R   0.728746 0.228583 0.750085 0.113685
C14   C     C_R   0.271319 0.771310 0.250005 0.113883
C15   C     C_R   0.228751 0.271395 0.749914 0.113876
C16   C     C_R   0.771327 0.728671 0.250000 0.113577
C17   C     C_R   0.300635 0.136443 0.263459 -0.189832
C18   C     C_R   0.683298 0.847535 0.722602 -0.188593
C19   C     C_R   0.847431 0.316803 0.277410 -0.189734
C20   C     C_R   0.136456 0.699344 0.736494 -0.189581
C21   C     C_R   0.699364 0.863557 0.263459 -0.189833
C22   C     C_R   0.316702 0.152465 0.722602 -0.188593
C23   C     C_R   0.152569 0.683197 0.277410 -0.189734
C24   C     C_R   0.863544 0.300656 0.736494 -0.189580
C25   C     C_R   0.316447 0.847734 0.722763 -0.189192
C26   C     C_R   0.699186 0.136651 0.263792 -0.189807
C27   C     C_R   0.863376 0.699203 0.736266 -0.189492
C28   C     C_R   0.152174 0.316368 0.277229 -0.189233
C29   C     C_R   0.683553 0.152266 0.722763 -0.189192
C30   C     C_R   0.300814 0.863349 0.263792 -0.189808
C31   C     C_R   0.136624 0.300797 0.736266 -0.189492
C32   C     C_R   0.847826 0.683632 0.277229 -0.189233
C33   C     C_R   0.800728 0.636539 0.763645 -0.189480
C34   C     C_R   0.183637 0.347827 0.222771 -0.188928
C35   C     C_R   0.347642 0.816592 0.777350 -0.188452
C36   C     C_R   0.636642 0.199186 0.236216 -0.189571
C37   C     C_R   0.199271 0.363461 0.763645 -0.189481
C38   C     C_R   0.816363 0.652173 0.222771 -0.188928
C39   C     C_R   0.652358 0.183408 0.777350 -0.188453
C40   C     C_R   0.363358 0.800814 0.236216 -0.189572
C41   C     C_R   0.816788 0.347439 0.222596 -0.189052
C42   C     C_R   0.199285 0.636548 0.763599 -0.189675
C43   C     C_R   0.363561 0.199360 0.236543 -0.189701
C44   C     C_R   0.652376 0.816568 0.777285 -0.189056
C45   C     C_R   0.183212 0.652561 0.222596 -0.189052
C46   C     C_R   0.800715 0.363452 0.763599 -0.189675
C47   C     C_R   0.636439 0.800639 0.236543 -0.189700
C48   C     C_R   0.347624 0.183432 0.777285 -0.189056
C49   C     C_R   0.352472 0.147528 0.250001 0.002646
C50   C     C_R   0.647484 0.852441 0.749959 0.001212
C51   C     C_R   0.852479 0.352488 0.250002 0.001321
C52   C     C_R   0.147509 0.647556 0.750028 0.002498
C53   C     C_R   0.647528 0.852472 0.250001 0.002646
C54   C     C_R   0.352516 0.147559 0.749959 0.001213
C55   C     C_R   0.147520 0.647512 0.250002 0.001321
C56   C     C_R   0.852491 0.352444 0.750028 0.002498
C57   C     C_R   0.352435 0.852517 0.750041 0.001130
C58   C     C_R   0.647536 0.147538 0.250003 0.001862
C59   C     C_R   0.852443 0.647509 0.749974 0.001832
C60   C     C_R   0.147531 0.352472 0.250000 0.001647
C61   C     C_R   0.647565 0.147483 0.750041 0.001131
C62   C     C_R   0.352464 0.852461 0.250003 0.001862
C63   C     C_R   0.147557 0.352491 0.749974 0.001833
C64   C     C_R   0.852469 0.647528 0.250000 0.001647
C65   C     C_R   0.029205 0.540434 0.431327 0.036135
C66   C     C_R   0.028274 0.458832 0.568759 0.057493
C67   C     C_R   0.458555 0.972128 0.431235 0.055840
C68   C     C_R   0.541400 0.972062 0.568775 0.055828
C69   C     C_R   0.970795 0.459566 0.431327 0.036135
C70   C     C_R   0.971726 0.541168 0.568759 0.057494
C71   C     C_R   0.541445 0.027872 0.431235 0.055839
C72   C     C_R   0.458600 0.027938 0.568775 0.055828
C73   C     C_R   0.528891 0.040748 0.931211 0.058111
C74   C     C_R   0.471150 0.959224 0.068780 0.058117
C75   C     C_R   0.958556 0.527870 0.931235 0.055868
C76   C     C_R   0.041402 0.527938 0.068776 0.055855
C77   C     C_R   0.471109 0.959252 0.931211 0.058110
C78   C     C_R   0.528850 0.040776 0.068780 0.058117
C79   C     C_R   0.041444 0.472129 0.931235 0.055868
C80   C     C_R   0.958598 0.472061 0.068776 0.055855
C81   C     C_R   0.029420 0.540475 0.395864 0.008563
C82   C     C_R   0.028397 0.458871 0.604073 0.053262
C83   C     C_R   0.458604 0.971978 0.395926 0.052245
C84   C     C_R   0.541351 0.971913 0.604084 0.052896
C85   C     C_R   0.970580 0.459524 0.395864 0.008564
C86   C     C_R   0.971603 0.541129 0.604073 0.053262
C87   C     C_R   0.541396 0.028022 0.395926 0.052245
C88   C     C_R   0.458649 0.028087 0.604084 0.052897
C89   C     C_R   0.528981 0.040725 0.895896 0.052416
C90   C     C_R   0.471060 0.959247 0.104095 0.051728
C91   C     C_R   0.958605 0.528020 0.895926 0.052221
C92   C     C_R   0.041353 0.528088 0.104084 0.052945
C93   C     C_R   0.471019 0.959275 0.895896 0.052416
C94   C     C_R   0.528940 0.040752 0.104095 0.051728
C95   C     C_R   0.041395 0.471979 0.895926 0.052221
C96   C     C_R   0.958647 0.471912 0.104084 0.052946
C97   C     C_R   0.000000 0.500000 0.378083 -0.059187
C98   C     C_R   1.000000 0.500000 0.621902 -0.099733
C99   C     C_R   0.500000 0.000000 0.378095 -0.100611
C100  C     C_R   0.500000 0.000000 0.621911 -0.101037
C101  C     C_R   0.500000 1.000000 0.878078 -0.100371
C102  C     C_R   0.500000 0.000000 0.121916 -0.099847
C103  C     C_R   1.000000 0.500000 0.878096 -0.100536
C104  C     C_R   0.000000 0.500000 0.121911 -0.101027
C105  C     C_R   0.500000 0.000000 0.340927 0.854401
C106  C     C_R   0.500000 0.000000 0.659076 0.852627
C107  C     C_R   1.000000 0.500000 0.340918 0.856481
C108  C     C_R   0.000000 0.500000 0.659073 0.854569
C109  C     C_R   0.000000 0.500000 0.840927 0.854437
C110  C     C_R   1.000000 0.500000 0.159076 0.852689
C111  C     C_R   0.500000 0.000000 0.840920 0.853702
C112  C     C_R   0.500000 0.000000 0.159078 0.855537
C113  C     C_R   0.605178 0.105178 0.250001 0.784711
C114  C     C_R   0.394816 0.894836 0.750009 0.784758
C115  C     C_R   0.894824 0.605175 0.250000 0.783196
C116  C     C_R   0.105180 0.394826 0.749997 0.784750
C117  C     C_R   0.394822 0.894822 0.250001 0.784709
C118  C     C_R   0.605184 0.105163 0.750009 0.784760
C119  C     C_R   0.105176 0.394825 0.250000 0.783197
C120  C     C_R   0.894820 0.605174 0.749997 0.784751
C121  C     C_R   0.605164 0.894818 0.749990 0.784669
C122  C     C_R   0.394825 0.105175 0.250001 0.782025
C123  C     C_R   0.894826 0.394821 0.750004 0.782097
C124  C     C_R   0.105172 0.605170 0.250000 0.785933
C125  C     C_R   0.394836 0.105182 0.749990 0.784669
C126  C     C_R   0.605175 0.894825 0.250001 0.782025
C127  C     C_R   0.105174 0.605179 0.750004 0.782098
C128  C     C_R   0.894828 0.394830 0.250000 0.785932
C129  C     C_R   0.000000 0.500000 0.448735 0.084886
C130  C     C_R   1.000000 0.500000 0.551174 0.014876
C131  C     C_R   0.500000 0.000000 0.448807 0.019603
C132  C     C_R   0.500000 0.000000 0.551203 0.018864
C133  C     C_R   0.500000 1.000000 0.948788 0.019649
C134  C     C_R   0.500000 0.000000 0.051203 0.020334
C135  C     C_R   1.000000 0.500000 0.948807 0.019588
C136  C     C_R   1.000000 0.500000 0.051203 0.018884
C137  C     C_1   0.000000 0.500000 0.484862 0.042611
C138  C     C_1   1.000000 0.500000 0.515037 -0.057496
C139  C     C_1   0.500000 1.000000 0.484924 -0.064428
C140  C     C_1   0.500000 1.000000 0.515086 -0.064400
C141  C     C_1   0.500000 1.000000 0.984912 -0.061608
C142  C     C_1   0.500000 1.000000 0.015079 -0.061726
C143  C     C_1   0.000000 0.500000 0.984924 -0.064389
C144  C     C_1   0.000000 0.500000 0.015086 -0.064297
C145  C     C_R   0.260244 0.176561 0.263231 -0.180875
C146  C     C_R   0.723271 0.806996 0.722462 -0.181564
C147  C     C_R   0.806911 0.276810 0.277529 -0.182285
C148  C     C_R   0.176551 0.739760 0.736749 -0.180834
C149  C     C_R   0.739756 0.823439 0.263231 -0.180875
C150  C     C_R   0.276729 0.193004 0.722462 -0.181565
C151  C     C_R   0.193089 0.723190 0.277529 -0.182285
C152  C     C_R   0.823449 0.260240 0.736749 -0.180834
C153  C     C_R   0.276434 0.807237 0.722665 -0.180573
C154  C     C_R   0.739578 0.176772 0.263570 -0.181609
C155  C     C_R   0.823235 0.739572 0.736462 -0.181154
C156  C     C_R   0.192690 0.276375 0.277350 -0.181060
C157  C     C_R   0.723566 0.192763 0.722665 -0.180574
C158  C     C_R   0.260422 0.823228 0.263570 -0.181608
C159  C     C_R   0.176765 0.260428 0.736462 -0.181154
C160  C     C_R   0.807310 0.723625 0.277350 -0.181060
C161  C     C_R   0.760312 0.676631 0.763388 -0.181255
C162  C     C_R   0.223630 0.307310 0.222651 -0.180836
C163  C     C_R   0.307107 0.776613 0.777489 -0.181521
C164  C     C_R   0.676759 0.239581 0.236440 -0.181596
C165  C     C_R   0.239688 0.323369 0.763388 -0.181255
C166  C     C_R   0.776370 0.692690 0.222651 -0.180837
C167  C     C_R   0.692893 0.223387 0.777489 -0.181521
C168  C     C_R   0.323241 0.760419 0.236440 -0.181596
C169  C     C_R   0.776794 0.306920 0.222480 -0.181451
C170  C     C_R   0.239653 0.676694 0.763404 -0.180750
C171  C     C_R   0.323443 0.239752 0.236771 -0.180866
C172  C     C_R   0.692875 0.776559 0.777384 -0.180601
C173  C     C_R   0.223206 0.693080 0.222480 -0.181451
C174  C     C_R   0.760347 0.323306 0.763404 -0.180750
C175  C     C_R   0.676557 0.760248 0.236771 -0.180866
C176  C     C_R   0.307125 0.223441 0.777384 -0.180601
H1    H     H_    0.220154 0.166540 0.273027 0.129841
H2    H     H_    0.749550 0.803225 0.700681 0.130051
H3    H     H_    0.803017 0.250638 0.299350 0.129212
H4    H     H_    0.166558 0.779808 0.726882 0.130015
H5    H     H_    0.779846 0.833460 0.273027 0.129841
H6    H     H_    0.250450 0.196775 0.700681 0.130051
H7    H     H_    0.196983 0.749362 0.299350 0.129212
H8    H     H_    0.833442 0.220192 0.726882 0.130015
H9    H     H_    0.250032 0.803551 0.700935 0.130286
H10   H     H_    0.779526 0.166897 0.273636 0.129770
H11   H     H_    0.833149 0.779558 0.726469 0.129975
H12   H     H_    0.196253 0.249875 0.299043 0.130034
H13   H     H_    0.749968 0.196449 0.700935 0.130286
H14   H     H_    0.220474 0.833102 0.273636 0.129770
H15   H     H_    0.166851 0.220442 0.726469 0.129975
H16   H     H_    0.803747 0.750125 0.299043 0.130034
H17   H     H_    0.720318 0.666693 0.773362 0.129982
H18   H     H_    0.250131 0.303745 0.200958 0.130311
H19   H     H_    0.303429 0.750238 0.799233 0.130212
H20   H     H_    0.666879 0.279526 0.226375 0.129922
H21   H     H_    0.279682 0.333307 0.773362 0.129982
H22   H     H_    0.749869 0.696255 0.200958 0.130311
H23   H     H_    0.696571 0.249761 0.799233 0.130211
H24   H     H_    0.333121 0.720474 0.226375 0.129922
H25   H     H_    0.750619 0.303024 0.200660 0.130055
H26   H     H_    0.279699 0.666732 0.773289 0.130037
H27   H     H_    0.333468 0.279839 0.226974 0.129951
H28   H     H_    0.696650 0.750256 0.799153 0.130188
H29   H     H_    0.249381 0.696976 0.200660 0.130055
H30   H     H_    0.720300 0.333268 0.773289 0.130037
H31   H     H_    0.666532 0.720161 0.226974 0.129951
H32   H     H_    0.303350 0.249744 0.799153 0.130188
H33   H     H_    0.291065 0.096533 0.273725 0.154429
H34   H     H_    0.679911 0.874520 0.701108 0.157034
H35   H     H_    0.874282 0.320314 0.298962 0.156179
H36   H     H_    0.096590 0.708857 0.726143 0.154639
H37   H     H_    0.708934 0.903466 0.273725 0.154429
H38   H     H_    0.320089 0.125480 0.701108 0.157034
H39   H     H_    0.125718 0.679686 0.298962 0.156179
H40   H     H_    0.903410 0.291143 0.726143 0.154639
H41   H     H_    0.319728 0.874779 0.701293 0.156127
H42   H     H_    0.708616 0.096893 0.274323 0.154730
H43   H     H_    0.903187 0.708685 0.725823 0.154769
H44   H     H_    0.124997 0.319534 0.298644 0.155899
H45   H     H_    0.680272 0.125221 0.701293 0.156127
H46   H     H_    0.291384 0.903107 0.274323 0.154730
H47   H     H_    0.096813 0.291315 0.725823 0.154769
H48   H     H_    0.875003 0.680466 0.298644 0.155899
H49   H     H_    0.791270 0.596739 0.774108 0.154773
H50   H     H_    0.180473 0.375003 0.201356 0.156232
H51   H     H_    0.374716 0.819890 0.798808 0.157174
H52   H     H_    0.596881 0.208610 0.225683 0.154810
H53   H     H_    0.208730 0.403261 0.774108 0.154773
H54   H     H_    0.819527 0.624997 0.201356 0.156232
H55   H     H_    0.625284 0.180110 0.798808 0.157174
H56   H     H_    0.403119 0.791390 0.225683 0.154810
H57   H     H_    0.820298 0.374287 0.201044 0.156954
H58   H     H_    0.208828 0.596678 0.773930 0.154615
H59   H     H_    0.403473 0.208927 0.226278 0.154514
H60   H     H_    0.625418 0.819942 0.798792 0.156128
H61   H     H_    0.179702 0.625713 0.201044 0.156954
H62   H     H_    0.791172 0.403322 0.773930 0.154615
H63   H     H_    0.596526 0.791073 0.226278 0.154514
H64   H     H_    0.374582 0.180058 0.798792 0.156128
O1    O     O_3   0.500000 0.000000 0.250000 -0.479535
O2    O     O_3   0.500000 0.000000 0.750000 -0.479775
O3    O     O_3   1.000000 0.500000 0.250000 -0.479830
O4    O     O_3   1.000000 0.500000 0.750000 -0.479610
O5    O     O_R   0.454490 0.000000 0.324820 -0.625848
O6    O     O_R   0.545510 0.000000 0.675180 -0.628284
O7    O     O_R   1.000000 0.454490 0.324820 -0.628641
O8    O     O_R   1.000000 0.545510 0.675180 -0.625807
O9    O     O_R   0.545510 0.000000 0.324820 -0.625849
O10   O     O_R   0.454490 0.000000 0.675180 -0.628283
O11   O     O_R   1.000000 0.545510 0.324820 -0.628641
O12   O     O_R   1.000000 0.454490 0.675180 -0.625807
O13   O     O_R   0.954490 0.500000 0.824820 -0.625807
O14   O     O_R   0.045510 0.500000 0.175180 -0.628241
O15   O     O_R   0.500000 0.954490 0.824820 -0.628540
O16   O     O_R   0.500000 0.045510 0.175180 -0.626058
O17   O     O_R   0.045510 0.500000 0.824820 -0.625807
O18   O     O_R   0.954490 0.500000 0.175180 -0.628240
O19   O     O_R   0.500000 0.045510 0.824820 -0.628540
O20   O     O_R   0.500000 0.954490 0.175180 -0.626057
O21   O     O_R   0.609450 0.064000 0.269610 -0.644419
O22   O     O_R   0.390550 0.936000 0.730390 -0.646313
O23   O     O_R   0.936000 0.609450 0.269610 -0.646143
O24   O     O_R   0.064000 0.390550 0.730390 -0.644308
O25   O     O_R   0.390550 0.936000 0.269610 -0.644419
O26   O     O_R   0.609450 0.064000 0.730390 -0.646314
O27   O     O_R   0.064000 0.390550 0.269610 -0.646143
O28   O     O_R   0.936000 0.609450 0.730390 -0.644308
O29   O     O_R   0.609450 0.936000 0.730390 -0.642459
O30   O     O_R   0.390550 0.064000 0.269610 -0.647199
O31   O     O_R   0.936000 0.390550 0.730390 -0.647108
O32   O     O_R   0.064000 0.609450 0.269610 -0.642774
O33   O     O_R   0.390550 0.064000 0.730390 -0.642459
O34   O     O_R   0.609450 0.936000 0.269610 -0.647199
O35   O     O_R   0.064000 0.609450 0.730390 -0.647109
O36   O     O_R   0.936000 0.390550 0.269610 -0.642773
O37   O     O_R   0.109450 0.564000 0.769610 -0.647197
O38   O     O_R   0.890550 0.436000 0.230390 -0.642904
O39   O     O_R   0.436000 0.109450 0.769610 -0.646277
O40   O     O_R   0.564000 0.890550 0.230390 -0.647136
O41   O     O_R   0.890550 0.436000 0.769610 -0.647197
O42   O     O_R   0.109450 0.564000 0.230390 -0.642905
O43   O     O_R   0.564000 0.890550 0.769610 -0.646278
O44   O     O_R   0.436000 0.109450 0.230390 -0.647136
O45   O     O_R   0.109450 0.436000 0.230390 -0.645902
O46   O     O_R   0.890550 0.564000 0.769610 -0.644325
O47   O     O_R   0.436000 0.890550 0.230390 -0.644329
O48   O     O_R   0.564000 0.109450 0.769610 -0.642469
O49   O     O_R   0.890550 0.564000 0.230390 -0.645902
O50   O     O_R   0.109450 0.436000 0.769610 -0.644325
O51   O     O_R   0.564000 0.109450 0.230390 -0.644329
O52   O     O_R   0.436000 0.890550 0.769610 -0.642469
Zn1   Zn    Zn3+2 0.500000 0.064990 0.221970 0.971976
Zn2   Zn    Zn3+2 0.500000 0.935010 0.778030 0.972229
Zn3   Zn    Zn3+2 0.935010 0.500000 0.221970 0.971990
Zn4   Zn    Zn3+2 0.064990 0.500000 0.778030 0.971858
Zn5   Zn    Zn3+2 0.500000 0.935010 0.221970 0.971976
Zn6   Zn    Zn3+2 0.500000 0.064990 0.778030 0.972229
Zn7   Zn    Zn3+2 0.064990 0.500000 0.221970 0.971990
Zn8   Zn    Zn3+2 0.935010 0.500000 0.778030 0.971858
Zn9   Zn    Zn3+2 0.000000 0.564990 0.721970 0.972080
Zn10  Zn    Zn3+2 0.000000 0.435010 0.278030 0.971957
Zn11  Zn    Zn3+2 0.435010 0.000000 0.721970 0.972075
Zn12  Zn    Zn3+2 0.564990 0.000000 0.278030 0.971667
Zn13  Zn    Zn3+2 1.000000 0.435010 0.721970 0.972080
Zn14  Zn    Zn3+2 1.000000 0.564990 0.278030 0.971957
Zn15  Zn    Zn3+2 0.564990 0.000000 0.721970 0.972075
Zn16  Zn    Zn3+2 0.435010 0.000000 0.278030 0.971668
N1    N     N_3   0.058679 0.581161 0.449992 -0.465949
H65   H     H_    0.100072 0.578890 0.443580 0.182539
H66   H     H_    0.043829 0.619773 0.443375 0.181097
N2    N     N_3   0.057420 0.416679 0.551147 -0.474733
H67   H     H_    0.086865 0.435133 0.535825 0.192283
H68   H     H_    0.029770 0.395725 0.535775 0.195823
N3    N     N_3   0.416106 0.943423 0.448857 -0.475085
H69   H     H_    0.434264 0.913803 0.464186 0.191384
H70   H     H_    0.395440 0.971291 0.464228 0.188411
N4    N     N_3   0.583802 0.943290 0.551153 -0.475055
H71   H     H_    0.604514 0.971126 0.535783 0.188289
H72   H     H_    0.565596 0.913699 0.535825 0.191457
N5    N     N_3   0.941321 0.418839 0.449992 -0.465949
H73   H     H_    0.956171 0.380227 0.443375 0.181097
H74   H     H_    0.899928 0.421110 0.443581 0.182539
N6    N     N_3   0.942580 0.583321 0.551147 -0.474734
H75   H     H_    0.970230 0.604275 0.535775 0.195824
H76   H     H_    0.913134 0.564867 0.535825 0.192283
N7    N     N_3   0.583893 0.056577 0.448857 -0.475086
H77   H     H_    0.604559 0.028709 0.464228 0.188411
H78   H     H_    0.565736 0.086197 0.464185 0.191384
N8    N     N_3   0.416198 0.056710 0.551153 -0.475055
H79   H     H_    0.434404 0.086301 0.535825 0.191457
H80   H     H_    0.395486 0.028873 0.535783 0.188288
N9    N     N_3   0.558691 0.082439 0.948833 -0.475515
H81   H     H_    0.531376 0.103810 0.964213 0.187696
H82   H     H_    0.587839 0.063528 0.964159 0.187408
N10   N     N_3   0.441391 0.917503 0.051158 -0.475287
H83   H     H_    0.468728 0.896160 0.035778 0.187865
H84   H     H_    0.412224 0.936386 0.035832 0.187463
N11   N     N_3   0.916108 0.556573 0.948858 -0.474723
H85   H     H_    0.895441 0.528704 0.964228 0.188553
H86   H     H_    0.934266 0.586193 0.964186 0.191557
N12   N     N_3   0.083806 0.556711 0.051153 -0.474945
H87   H     H_    0.065601 0.586301 0.035825 0.191542
H88   H     H_    0.104515 0.528875 0.035783 0.188405
N13   N     N_3   0.441309 0.917560 0.948833 -0.475515
H89   H     H_    0.412161 0.936472 0.964159 0.187409
H90   H     H_    0.468624 0.896190 0.964213 0.187696
N14   N     N_3   0.558608 0.082497 0.051158 -0.475288
H91   H     H_    0.587775 0.063614 0.035832 0.187463
H92   H     H_    0.531272 0.103840 0.035778 0.187866
N15   N     N_3   0.083892 0.443427 0.948858 -0.474722
H93   H     H_    0.065734 0.413807 0.964186 0.191556
H94   H     H_    0.104559 0.471296 0.964228 0.188553
N16   N     N_3   0.916194 0.443289 0.051153 -0.474946
H95   H     H_    0.895485 0.471125 0.035783 0.188405
H96   H     H_    0.934398 0.413699 0.035825 0.191543
N17   N     N_3   0.060529 0.580593 0.377714 -0.438911
H97   H     H_    0.101640 0.577246 0.384618 0.173074
H98   H     H_    0.046417 0.619537 0.384206 0.187622
N18   N     N_3   0.058624 0.417820 0.621958 -0.427381
H99   H     H_    0.043455 0.379423 0.615083 0.206422
H100  H     H_    0.099603 0.420101 0.614552 0.192175
N19   N     N_3   0.417278 0.942104 0.378053 -0.426925
H101  H     H_    0.379017 0.957623 0.384920 0.205889
H102  H     H_    0.419187 0.901116 0.385474 0.191689
N20   N     N_3   0.582627 0.941975 0.621961 -0.430659
H103  H     H_    0.580652 0.900988 0.614544 0.190412
H104  H     H_    0.620915 0.957433 0.615097 0.204430
N21   N     N_3   0.939471 0.419406 0.377714 -0.438910
H105  H     H_    0.953583 0.380462 0.384206 0.187622
H106  H     H_    0.898360 0.422754 0.384619 0.173074
N22   N     N_3   0.941376 0.582180 0.621958 -0.427382
H107  H     H_    0.900397 0.579899 0.614552 0.192176
H108  H     H_    0.956545 0.620576 0.615083 0.206422
N23   N     N_3   0.582722 0.057896 0.378053 -0.426925
H109  H     H_    0.580813 0.098884 0.385474 0.191689
H110  H     H_    0.620982 0.042376 0.384919 0.205890
N24   N     N_3   0.417373 0.058025 0.621961 -0.430659
H111  H     H_    0.379085 0.042567 0.615097 0.204431
H112  H     H_    0.419348 0.099012 0.614544 0.190411
N25   N     N_3   0.559757 0.081348 0.877993 -0.431734
H113  H     H_    0.600710 0.078496 0.885377 0.190725
H114  H     H_    0.545141 0.119953 0.884877 0.204742
N26   N     N_3   0.440325 0.918592 0.121995 -0.427920
H115  H     H_    0.399371 0.921405 0.114607 0.192124
H116  H     H_    0.454981 0.880004 0.115108 0.206434
N27   N     N_3   0.917280 0.557893 0.878053 -0.426752
H117  H     H_    0.919190 0.598881 0.885474 0.191984
H118  H     H_    0.879019 0.542371 0.884920 0.206134
N28   N     N_3   0.082630 0.558026 0.121961 -0.430677
H119  H     H_    0.120917 0.542569 0.115097 0.204491
H120  H     H_    0.080658 0.599013 0.114544 0.190426
N29   N     N_3   0.440243 0.918652 0.877993 -0.431734
H121  H     H_    0.454859 0.880047 0.884877 0.204742
H122  H     H_    0.399290 0.921504 0.885377 0.190725
N30   N     N_3   0.559675 0.081408 0.121995 -0.427920
H123  H     H_    0.545019 0.119996 0.115108 0.206433
H124  H     H_    0.600629 0.078595 0.114607 0.192124
N31   N     N_3   0.082720 0.442107 0.878053 -0.426752
H125  H     H_    0.120981 0.457629 0.884920 0.206134
H126  H     H_    0.080810 0.401119 0.885475 0.191983
N32   N     N_3   0.917370 0.441974 0.121961 -0.430678
H127  H     H_    0.919342 0.400987 0.114544 0.190425
H128  H     H_    0.879083 0.457431 0.115098 0.204491

loop_
_geom_bond_atom_site_label_1
_geom_bond_atom_site_label_2
_ccdc_geom_bond_type
C22   C150  A    
O19   Zn6   S    
C87   N23   S    
N17   H97   S    
C26   H42   S    
C175  H31   S    
C10   C154  A    
C30   H46   S    
C23   H39   S    
N9    H81   S    
C71   N7    S    
O39   Zn6   S    
C14   C158  A    
C35   H51   S    
C18   H34   S    
O32   Zn14  S    
C33   H49   S    
C44   H60   S    
O16   Zn1   S    
O43   Zn2   S    
C143  C144  T    
C4    C148  A    
C76   N12   S    
C98   C108  S    
N22   H107  S    
C28   H44   S    
C128  O38   A    
O13   Zn8   S    
O14   Zn7   S    
C42   C170  A    
C25   H41   S    
N6    H75   S    
C58   C113  S    
C46   C174  A    
C40   H56   S    
C96   N32   S    
C87   C99   A    
O5    Zn16  S    
C47   C53   A    
O6    Zn15  S    
N1    H66   S    
C33   C59   A    
C64   C115  S    
C34   C60   A    
C82   C98   A    
C75   N11   S    
C50   C121  S    
C37   C63   A    
C52   C127  S    
C72   C132  A    
C38   C64   A    
C111  O15   A    
C39   C61   A    
C54   C125  S    
N8    H79   S    
C84   C100  A    
C56   C123  S    
C123  O41   A    
C93   C101  A    
C155  H11   S    
N12   H87   S    
O4    Zn4   S    
C125  O33   A    
C41   C169  A    
C1    C171  A    
C35   C163  A    
C33   C161  A    
C166  H22   S    
C116  O24   A    
C45   C173  A    
C66   C82   A    
C139  C140  T    
C78   C134  A    
O4    Zn9   S    
C96   C104  A    
N25   H113  S    
C101  C111  S    
C14   C168  A    
N27   H117  S    
C130  C138  S    
C86   N22   S    
C44   C50   A    
N31   H126  S    
C43   C171  A    
C89   C101  A    
C61   C118  S    
C100  C106  S    
C168  H24   S    
N30   H124  S    
N10   H83   S    
N26   H116  S    
N23   H109  S    
C23   C55   A    
C124  O42   A    
C113  O51   A    
N29   H121  S    
C108  O8    A    
C114  O52   A    
C68   N4    S    
C106  O10   A    
O52   Zn2   S    
C114  O22   A    
C74   N10   S    
C104  C110  S    
C176  H32   S    
C41   H57   S    
C110  O14   A    
C74   C134  A    
C116  O50   A    
N14   H91   S    
C9    C163  A    
N12   H88   S    
C20   H36   S    
C45   H61   S    
C170  H26   S    
C85   C97   A    
C92   C104  A    
C73   C89   A    
C97   C107  S    
C147  H3    S    
C129  C137  S    
C94   C102  A    
C72   N8    S    
N5    H73   S    
C174  H30   S    
C65   N1    S    
N24   H111  S    
O24   Zn13  S    
C41   C51   A    
C84   N20   S    
C42   C52   A    
C67   C83   A    
C59   C120  S    
C16   C160  A    
C1    C145  A    
N15   H93   S    
C70   C130  A    
C5    C149  A    
C22   C54   A    
C120  O46   A    
C154  H10   S    
O12   Zn13  S    
O49   Zn3   S    
C4    C170  A    
C108  O12   A    
O50   Zn4   S    
C51   C128  S    
O51   Zn1   S    
C78   C94   A    
C110  O18   A    
C158  H14   S    
C8    C174  A    
O20   Zn5   S    
N31   H125  S    
N2    H67   S    
C146  H2    S    
C60   C119  S    
C68   C132  A    
C109  O13   A    
C90   C102  A    
C62   C117  S    
N4    H72   S    
O17   Zn4   S    
C80   N16   S    
O29   Zn15  S    
O18   Zn3   S    
O30   Zn16  S    
C20   C148  A    
C21   C149  A    
C39   H55   S    
C75   C91   A    
C135  C143  S    
C126  O34   A    
C9    C153  A    
C82   N18   S    
C1    C12   S    
C25   C57   A    
C12   C156  A    
O15   Zn2   S    
C2    C11   S    
O41   Zn8   S    
C13   C157  A    
N18   H99   S    
C95   C103  A    
O42   Zn7   S    
C28   C60   A    
C29   C61   A    
C93   N29   S    
C81   N17   S    
C31   C63   A    
C32   C64   A    
C17   C49   A    
N7    H78   S    
C66   N2    S    
C37   C165  A    
C105  O5    A    
C161  H17   S    
C77   N13   S    
C47   H63   S    
C69   C129  A    
C21   H37   S    
N13   H90   S    
C121  O29   A    
C69   C85   A    
O4    Zn8   S    
N25   H114  S    
N32   H127  S    
C123  O31   A    
C124  O32   A    
N27   H118  S    
C35   C57   A    
C164  H20   S    
C151  H7    S    
C43   H59   S    
O4    Zn13  S    
C112  O20   A    
C24   H40   S    
C74   C90   A    
N22   H108  S    
O31   Zn13  S    
C32   C160  A    
C131  C139  S    
C12   C162  A    
C45   C55   A    
O3    Zn7   S    
N16   H95   S    
C46   C56   A    
C167  H23   S    
C15   C165  A    
C121  O43   A    
C4    C9    S    
C122  O44   A    
C117  O25   A    
C2    C172  A    
C48   C176  A    
C27   H43   S    
C8    C13   S    
C120  O28   A    
C102  C112  S    
C150  H6    S    
C3    C147  A    
N8    H80   S    
C19   H35   S    
C34   H50   S    
C17   H33   S    
O1    Zn1   S    
C75   C135  A    
C112  O16   A    
C11   C161  A    
O2    Zn6   S    
C172  H28   S    
N20   H103  S    
C24   C152  A    
C32   H48   S    
N19   H101  S    
C117  O47   A    
C157  H13   S    
C118  O48   A    
C119  O45   A    
N9    H82   S    
N3    H69   S    
N17   H98   S    
C83   C99   A    
C149  H5    S    
O40   Zn5   S    
C5    C175  A    
O25   Zn16  S    
O26   Zn15  S    
C111  O19   A    
C48   H64   S    
C83   N19   S    
C156  H12   S    
C27   C155  A    
O21   Zn12  S    
O3    Zn14  S    
O22   Zn11  S    
C25   C153  A    
C68   C84   A    
C159  H15   S    
O8    Zn9   S    
N30   H123  S    
C160  H16   S    
N10   H84   S    
C90   N26   S    
C29   C157  A    
C34   C162  A    
C19   C147  A    
C48   C54   A    
C37   H53   S    
C79   C95   A    
C165  H21   S    
C134  C142  S    
C65   C81   A    
N11   H85   S    
C163  H19   S    
C126  O40   A    
N14   H92   S    
C89   N25   S    
C127  O37   A    
C26   C58   A    
C88   C100  A    
O1    Zn12  S    
C7    C151  A    
C63   C116  S    
O2    Zn11  S    
C67   N3    S    
C30   C62   A    
C91   N27   S    
N24   H112  S    
C18   C50   A    
C70   N6    S    
C38   C166  A    
C55   C124  S    
O47   Zn5   S    
C8    C152  A    
C3    C169  A    
O23   Zn14  S    
C65   C129  A    
N15   H94   S    
N28   H119  S    
C132  C140  S    
C79   C135  A    
C133  C141  S    
C80   C136  A    
C107  O11   A    
C103  C109  S    
C105  O9    A    
N7    H77   S    
C136  C144  S    
O37   Zn4   S    
O38   Zn3   S    
C77   C93   A    
C6    C176  A    
N2    H68   S    
C171  H27   S    
C86   C98   A    
C122  O30   A    
C169  H25   S    
C6    C150  A    
O1    Zn16  S    
C88   N24   S    
O2    Zn15  S    
C36   C164  A    
O27   Zn10  S    
C173  H29   S    
C78   N14   S    
O36   Zn10  S    
C17   C145  A    
C24   C56   A    
N26   H115  S    
N18   H100  S    
C76   C136  A    
C38   H54   S    
N1    H65   S    
C15   C159  A    
N29   H122  S    
C29   H45   S    
C153  H9    S    
C107  O7    A    
C36   C58   A    
C13   C167  A    
O9    Zn12  S    
O3    Zn3   S    
O10   Zn11  S    
C40   C62   A    
C44   C172  A    
C128  O36   A    
C5    C16   S    
C6    C15   S    
C118  O26   A    
C7    C14   S    
C92   N28   S    
C16   C166  A    
N5    H74   S    
C115  O49   A    
C80   C96   A    
C91   C103  A    
C85   N21   S    
C36   H52   S    
O45   Zn7   S    
C39   C167  A    
N19   H102  S    
O46   Zn8   S    
C77   C133  A    
C72   C88   A    
O2    Zn2   S    
N32   H128  S    
N23   H110  S    
C99   C105  S    
N3    H70   S    
C73   N9    S    
C43   C49   A    
C125  O39   A    
C71   C131  A    
C95   N31   S    
N4    H71   S    
C19   C51   A    
C94   N30   S    
C119  O27   A    
C162  H18   S    
C113  O21   A    
C106  O6    A    
C115  O23   A    
C76   C92   A    
C31   H47   S    
N6    H76   S    
N11   H86   S    
C73   C133  A    
O3    Zn10  S    
N16   H96   S    
C22   H38   S    
O7    Zn10  S    
C71   C87   A    
C26   C154  A    
C152  H8    S    
C70   C86   A    
O28   Zn9   S    
N21   H105  S    
C30   C158  A    
C23   C151  A    
C10   C164  A    
N28   H120  S    
C67   C131  A    
O33   Zn11  S    
C127  O35   A    
C18   C146  A    
O34   Zn12  S    
C148  H4    S    
O35   Zn9   S    
C57   C114  S    
C11   C155  A    
C2    C146  A    
C137  C138  T    
C20   C52   A    
C3    C10   S    
C27   C59   A    
C141  C142  T    
C21   C53   A    
C42   H58   S    
C81   C97   A    
O44   Zn1   S    
O11   Zn14  S    
C49   C122  S    
C7    C173  A    
C69   N5    S    
C46   H62   S    
C109  O17   A    
N20   H104  S    
C40   C168  A    
C53   C126  S    
C47   C175  A    
O1    Zn5   S    
C145  H1    S    
C28   C156  A    
O48   Zn6   S    
C79   N15   S    
N21   H106  S    
N13   H89   S    
C31   C159  A    
C66   C130  A    
