data_mof_unit_pretest_1511.cif
_audit_creation_date              2012-12-10T17:20:32-0500
_audit_creation_method            fapswitch 2.2
_symmetry_space_group_name_H-M    P1
_symmetry_Int_Tables_number       1
_space_group_crystal_system       triclinic
_cell_length_a                    18.818129
_cell_length_b                    18.741099
_cell_length_c                    18.802045
_cell_angle_alpha                 109.223557
_cell_angle_beta                  110.010293
_cell_angle_gamma                 109.414453
_cell_volume                      5089.48628522

loop_
_atom_site_label
_atom_site_type_symbol
_atom_type_description
_atom_site_fract_x
_atom_site_fract_y
_atom_site_fract_z
_atom_type_partial_charge
C1    C     C_R   0.619876 0.619050 0.501285 0.808060
C2    C     C_3   0.198680 0.418513 0.183566 0.232564
C3    C     C_3   0.214252 0.445411 0.276946 -0.212359
C4    C     C_3   0.313419 0.499366 0.311814 -0.120084
C5    C     C_R   0.762351 0.758442 0.583017 0.280918
C6    C     C_R   0.825135 0.821257 0.579368 -0.261602
C7    C     C_R   0.814328 0.812961 0.499075 -0.100795
C8    C     C_R   0.740409 0.740978 0.420137 0.264517
C9    C     C_R   0.678014 0.678113 0.423042 -0.286690
C10   C     C_R   0.688275 0.686435 0.503161 -0.119026
C11   C     C_R   0.674687 0.490686 0.752466 -0.310817
C12   C     C_R   0.381090 0.500123 0.380329 0.820378
C13   C     C_R   0.737471 0.489459 0.817783 0.271781
C14   C     C_R   0.816178 0.502097 0.818630 -0.097006
C15   C     C_R   0.829996 0.514502 0.753947 -0.294971
C16   C     C_R   0.766460 0.514413 0.688087 0.254431
C17   C     C_R   0.688638 0.502554 0.687849 -0.083335
C18   C     C_R   0.246744 0.326647 0.507122 -0.187459
C19   C     C_R   0.181206 0.263359 0.506846 0.253507
C20   C     C_R   0.185326 0.187893 0.501629 -0.080179
C21   C     C_R   0.252838 0.176199 0.494525 -0.208553
C22   C     C_R   0.315894 0.238377 0.491840 -0.188366
C23   C     C_R   0.381016 0.380956 0.499761 0.788809
C24   C     C_R   0.313389 0.314028 0.499031 -0.068779
C25   C     C_R   0.001900 0.619523 0.120264 0.799379
C26   C     C_R   0.123307 0.499518 0.122602 0.796381
C27   C     C_R   0.004020 0.381144 0.885276 0.836166
C28   C     C_R   0.883907 0.500777 0.884798 0.807474
C29   C     C_R   0.000771 0.881420 0.381786 0.842806
C30   C     C_R   0.881104 0.880621 0.499462 0.824667
C31   C     C_R   0.001524 0.120727 0.618490 0.815535
C32   C     C_R   0.118763 0.119403 0.500476 0.775088
C33   C     C_R   0.019489 0.769619 0.188293 0.202669
C34   C     C_R   0.620594 0.501169 0.619925 0.828722
C35   C     C_R   0.018505 0.833221 0.252808 0.219249
C36   C     C_R   0.001506 0.816265 0.314427 -0.093487
C37   C     C_R   0.985533 0.737118 0.312183 -0.257791
C38   C     C_R   0.983981 0.673074 0.247258 -0.221017
C39   C     C_R   0.001254 0.688327 0.185292 -0.117420
C40   C     C_R   0.083891 0.318804 0.830921 0.172917
C41   C     C_R   0.084761 0.256456 0.765594 0.234593
C42   C     C_R   0.005094 0.190077 0.686959 -0.165435
C43   C     C_R   0.926698 0.188296 0.674334 -0.297886
C44   C     C_R   0.925457 0.250312 0.739114 0.231682
C45   C     C_3   0.307717 0.581816 0.319548 -0.228119
C46   C     C_R   0.004083 0.314919 0.817986 -0.166159
C47   C     C_3   0.208870 0.527227 0.282589 0.301937
C48   C     C_3   0.191385 0.499116 0.189483 -0.136123
C49   C     C_3   0.290621 0.552970 0.224817 -0.254603
C50   C     C_3   0.296498 0.471111 0.218425 0.276155
Cu1   Cu    Cu3+1 0.500500 0.438200 0.438680 0.944976
Cu2   Cu    Cu3+1 0.499500 0.561800 0.561320 0.949189
Cu3   Cu    Cu3+1 0.942090 0.438180 0.003770 0.987595
Cu4   Cu    Cu3+1 0.065710 0.561750 0.003750 0.913958
Cu5   Cu    Cu3+1 0.062280 0.999890 0.562170 0.932229
Cu6   Cu    Cu3+1 0.937720 0.999930 0.437650 0.949489
O1    O     O_R   0.590610 0.537990 0.448230 -0.578112
O2    O     O_R   0.055400 0.642330 0.093210 -0.593835
O3    O     O_R   0.042570 0.447790 0.094640 -0.563255
O4    O     O_R   0.146970 0.552140 0.094620 -0.601223
O5    O     O_R   0.952400 0.357600 0.914310 -0.562550
O6    O     O_R   0.056800 0.461950 0.914290 -0.590597
O7    O     O_R   0.860830 0.447790 0.912900 -0.540731
O8    O     O_R   0.965230 0.552140 0.912880 -0.607391
O9    O     O_R   0.053290 0.909730 0.462990 -0.591611
O10   O     O_R   0.948100 0.909770 0.357840 -0.569665
O11   O     O_R   0.962410 0.909720 0.552480 -0.600345
O12   O     O_R   0.589770 0.642360 0.551790 -0.577740
O13   O     O_R   0.857220 0.909750 0.447330 -0.556280
O14   O     O_R   0.051900 0.090060 0.641980 -0.596002
O15   O     O_R   0.946710 0.090090 0.536830 -0.591541
O16   O     O_R   0.142780 0.090070 0.552500 -0.588134
O17   O     O_R   0.037590 0.090110 0.447350 -0.579057
O18   O     O_R   0.409550 0.447810 0.357350 -0.597526
O19   O     O_R   0.408710 0.552190 0.460910 -0.587881
O20   O     O_R   0.410230 0.357640 0.448210 -0.590172
O21   O     O_R   0.409390 0.462010 0.551770 -0.590770
O22   O     O_R   0.591290 0.447810 0.539090 -0.574353
O23   O     O_R   0.590450 0.552190 0.642650 -0.593885
O24   O     O_R   0.951000 0.537980 0.093230 -0.583533
N1    N     N_2   0.159223 0.558352 0.314659 -0.418897
H1    H     H_    0.155517 0.607622 0.303430 0.240776
C51   C     C_3   0.182568 0.577577 0.403087 -0.675581
H2    H     H_    0.138338 0.596872 0.420142 0.224021
H3    H     H_    0.251020 0.632196 0.449588 0.222474
H4    H     H_    0.175419 0.518955 0.409196 0.230999
H5    H     H_    0.620841 0.622546 0.362364 0.160890
H6    H     H_    0.614107 0.481022 0.751299 0.150131
N2    N     N_2   0.719814 0.473522 0.880622 -0.407988
H7    H     H_    0.654344 0.433902 0.856783 0.245770
C52   C     C_3   0.759793 0.551017 0.963693 -0.667682
H8    H     H_    0.736397 0.596311 0.954647 0.212265
H9    H     H_    0.831851 0.584562 0.994923 0.224449
H10   H     H_    0.742332 0.532384 0.008164 0.226796
H11   H     H_    0.889606 0.522530 0.753603 0.164763
N3    N     N_2   0.780146 0.525436 0.621663 -0.423791
H12   H     H_    0.781945 0.473857 0.581557 0.254945
C53   C     C_3   0.852371 0.609039 0.651967 -0.709229
H13   H     H_    0.915601 0.611882 0.684935 0.219442
H14   H     H_    0.851248 0.663028 0.698375 0.239942
H15   H     H_    0.847103 0.618152 0.595312 0.238024
H16   H     H_    0.245473 0.385733 0.513289 0.149898
N4    N     N_2   0.114829 0.278955 0.516155 -0.439235
H17   H     H_    0.085581 0.247762 0.542714 0.249654
C54   C     C_3   0.052926 0.274446 0.440938 -0.659692
H18   H     H_    0.006065 0.290581 0.455558 0.222114
H19   H     H_    0.015884 0.207465 0.383698 0.232778
H20   H     H_    0.087002 0.322136 0.424772 0.219674
H21   H     H_    0.255748 0.118052 0.489473 0.152186
H22   H     H_    0.367545 0.228344 0.485952 0.149620
N5    N     N_2   0.039724 0.789811 0.128502 -0.434144
H23   H     H_    0.095293 0.790916 0.129919 0.270058
C55   C     C_3   0.966599 0.752220 0.042372 -0.686410
H24   H     H_    0.951717 0.686083 0.999243 0.235798
H25   H     H_    0.983800 0.793740 0.013635 0.226983
H26   H     H_    0.907572 0.748437 0.045389 0.222706
H27   H     H_    0.352555 0.648710 0.377037 0.156709
N6    N     N_2   0.042156 0.917336 0.260990 -0.431311
H28   H     H_    0.097983 0.945058 0.258439 0.258176
C56   C     C_3   0.971714 0.924647 0.207136 -0.622926
H29   H     H_    0.962361 0.902379 0.140510 0.221554
H30   H     H_    0.988669 0.994129 0.236491 0.223710
H31   H     H_    0.909414 0.885521 0.202431 0.234307
H32   H     H_    0.973603 0.724642 0.360461 0.152527
H33   H     H_    0.971217 0.612037 0.246714 0.173102
N7    N     N_2   0.163497 0.382373 0.911767 -0.413427
H34   H     H_    0.158164 0.398084 0.966935 0.225021
C57   C     C_3   0.221161 0.457118 0.912671 -0.597593
H35   H     H_    0.235368 0.518534 0.965055 0.210100
H36   H     H_    0.191981 0.455753 0.849512 0.217741
H37   H     H_    0.283666 0.457827 0.926199 0.227672
N8    N     N_2   0.166381 0.260920 0.782410 -0.401291
H38   H     H_    0.170677 0.208208 0.784512 0.267472
C58   C     C_3   0.204871 0.292911 0.736892 -0.646819
H39   H     H_    0.273502 0.306959 0.765166 0.223392
H40   H     H_    0.204814 0.353951 0.743461 0.224645
H41   H     H_    0.168321 0.243236 0.666882 0.208080
H42   H     H_    0.865846 0.137906 0.614070 0.168151
N9    N     N_2   0.845098 0.248094 0.724250 -0.407866
H43   H     H_    0.791500 0.185839 0.686290 0.250154
C59   C     C_3   0.830615 0.306253 0.693752 -0.674500
H44   H     H_    0.822788 0.284711 0.627619 0.217387
H45   H     H_    0.886138 0.374238 0.739243 0.219415
H46   H     H_    0.770259 0.305587 0.690226 0.228635
H47   H     H_    0.320729 0.596287 0.202656 0.164434
N10   N     N_2   0.347420 0.441632 0.186860 -0.422613
H48   H     H_    0.350958 0.391325 0.195810 0.265365
C60   C     C_3   0.328992 0.427300 0.100684 -0.699417
H49   H     H_    0.379994 0.417934 0.088956 0.231728
H50   H     H_    0.329678 0.484496 0.094746 0.237848
H51   H     H_    0.264694 0.367609 0.050465 0.234966
N11   N     N_2   0.137250 0.331835 0.108307 -0.412893
H52   H     H_    0.127892 0.328718 0.049860 0.235378
C61   C     C_3   0.148217 0.261903 0.117131 -0.677979
H53   H     H_    0.092412 0.198209 0.059965 0.227306
H54   H     H_    0.149447 0.263498 0.177121 0.230778
H55   H     H_    0.209512 0.267080 0.119448 0.216750
H56   H     H_    0.184258 0.402471 0.299493 0.131367
N12   N     N_2   0.772178 0.765868 0.664774 -0.410088
H57   H     H_    0.746478 0.707798 0.664430 0.257146
C62   C     C_3   0.851050 0.835913 0.746238 -0.715769
H58   H     H_    0.845929 0.830904 0.801722 0.228304
H59   H     H_    0.859354 0.900262 0.754909 0.238852
H60   H     H_    0.908764 0.831096 0.747740 0.221560
H61   H     H_    0.882767 0.877635 0.638610 0.162990
N13   N     N_2   0.728853 0.730977 0.337844 -0.414075
H62   H     H_    0.664256 0.699053 0.289435 0.247165
C63   C     C_3   0.777680 0.695375 0.309114 -0.668410
H63   H     H_    0.752803 0.627003 0.295952 0.217568
H64   H     H_    0.848151 0.735250 0.359473 0.213057
H65   H     H_    0.770412 0.695942 0.248185 0.228388

loop_
_geom_bond_atom_site_label_1
_geom_bond_atom_site_label_2
_ccdc_geom_bond_type
Cu5   Cu6   S    
N7    H34   S    
C31   C42   S    
C12   O18   A    
C25   O24   A    
N9    C59   S    
C41   C42   A    
C19   C20   A    
C60   H51   S    
C23   O20   A    
Cu2   O19   S    
C57   H35   S    
C38   H33   S    
C58   H41   S    
C62   H58   S    
Cu3   O3    S    
C7    C8    A    
C32   O16   A    
Cu4   O4    S    
Cu3   Cu4   S    
C40   C46   A    
C54   H19   S    
C29   C36   S    
C25   O2    A    
C33   C39   A    
C51   H2    S    
C18   C24   A    
C36   C37   A    
C60   H50   S    
C55   H24   S    
C59   H45   S    
N12   H57   S    
C20   C32   S    
C38   C39   A    
Cu6   O10   S    
C15   C16   A    
C11   C13   A    
C1    O12   A    
C43   H42   S    
C18   C19   A    
C18   H16   S    
N6    H28   S    
C2    C50   S    
Cu5   O9    S    
Cu3   O5    S    
C31   O14   A    
N5    H23   S    
C44   C46   A    
C16   C17   A    
C22   H22   S    
N3    C53   S    
C3    H56   S    
C23   C24   S    
N12   C62   S    
C62   H59   S    
Cu1   O1    S    
N2    C52   S    
Cu2   O23   S    
C27   O5    A    
C9    C10   A    
C61   H54   S    
Cu5   O16   S    
Cu2   O12   S    
C56   H31   S    
C26   C48   S    
C55   H26   S    
C50   N10   S    
C63   H64   S    
C6    H61   S    
C7    C30   S    
C21   C22   A    
N13   C63   S    
C30   O13   A    
C19   N4    S    
N1    C51   S    
C56   H30   S    
N1    H1    S    
N10   C60   S    
C4    C45   S    
C45   C47   S    
C2    N11   S    
C54   H20   S    
C16   N3    S    
Cu1   Cu2   S    
C63   H63   S    
Cu3   O24   S    
Cu1   O20   S    
C61   H55   S    
N5    C55   S    
C59   H46   S    
C32   O17   A    
Cu6   O13   S    
C8    C9    A    
C58   H40   S    
Cu4   O6    S    
C5    N12   S    
Cu1   O18   S    
C4    C50   S    
C35   C36   A    
C43   C44   A    
C37   C38   A    
C27   O6    A    
C1    O1    A    
C34   O23   A    
C52   H9    S    
C37   H32   S    
Cu5   O11   S    
C47   C48   S    
C45   C49   S    
C11   H6    S    
Cu6   O15   S    
C40   N7    S    
N3    H12   S    
C20   C21   A    
C49   H47   S    
N4    C54   S    
C23   O21   A    
C61   H53   S    
C58   H39   S    
C8    N13   S    
C33   N5    S    
C28   O8    A    
C27   C46   S    
C40   C41   A    
C51   H3    S    
N11   C61   S    
C49   C50   S    
C44   N9    S    
C53   H14   S    
N13   H62   S    
C29   O9    A    
C4    C12   S    
C42   C43   A    
C3    C4    S    
C57   H37   S    
C52   H8    S    
C62   H60   S    
C56   H29   S    
N10   H48   S    
Cu4   O2    S    
C45   H27   S    
C11   C17   A    
N7    C57   S    
Cu6   O17   S    
C13   N2    S    
C1    C10   S    
C30   O11   A    
C35   N6    S    
C57   H36   S    
C41   N8    S    
C21   H21   S    
N9    H43   S    
C6    C7    A    
C53   H15   S    
C54   H18   S    
C2    C48   S    
C2    C3    S    
Cu1   O22   S    
C5    C10   A    
C59   H44   S    
C25   C39   S    
C52   H10   S    
C15   H11   S    
Cu3   O7    S    
C5    C6    A    
Cu4   O8    S    
C48   C49   S    
C3    C47   S    
C33   C35   A    
N8    H38   S    
C22   C24   A    
C60   H49   S    
C47   N1    S    
N6    C56   S    
Cu5   O14   S    
C29   O10   A    
C28   O7    A    
C51   H4    S    
N11   H52   S    
N8    C58   S    
C53   H13   S    
C17   C34   S    
C12   O19   A    
N4    H17   S    
C14   C15   A    
C26   O3    A    
C63   H65   S    
C14   C28   S    
N2    H7    S    
C13   C14   A    
C26   O4    A    
C34   O22   A    
Cu2   O21   S    
C31   O15   A    
C55   H25   S    
C9    H5    S    
