data_mof_unit_pretest_59.cif
_audit_creation_date              2012-12-11T15:35:23-0500
_audit_creation_method            fapswitch 2.2
_symmetry_space_group_name_H-M    P1
_symmetry_Int_Tables_number       1
_space_group_crystal_system       triclinic
_cell_length_a                    17.423194
_cell_length_b                    24.7075
_cell_length_c                    15.082744
_cell_angle_alpha                 89.997631
_cell_angle_beta                  124.341095
_cell_angle_gamma                 89.992595
_cell_volume                      5361.12585887

loop_
_atom_site_label
_atom_site_type_symbol
_atom_type_description
_atom_site_fract_x
_atom_site_fract_y
_atom_site_fract_z
_atom_type_partial_charge
C1    C     C_R   0.313896 0.128526 0.908782 -0.163499
C2    C     C_R   0.314075 0.871280 0.908904 -0.162910
C3    C     C_R   0.813892 0.628522 0.908782 -0.163497
C4    C     C_R   0.814075 0.371280 0.908907 -0.162908
C5    C     C_R   0.639004 0.152521 0.089743 -0.142109
C6    C     C_R   0.639036 0.847444 0.089579 -0.141760
C7    C     C_R   0.139004 0.652521 0.089745 -0.142104
C8    C     C_R   0.139030 0.347443 0.089578 -0.141781
C9    C     C_R   0.554470 0.846767 0.912699 -0.125037
C10   C     C_R   0.554611 0.153292 0.912939 -0.123028
C11   C     C_R   0.054464 0.346767 0.912697 -0.125045
C12   C     C_R   0.054611 0.653293 0.912943 -0.123003
C13   C     C_R   0.536018 0.000090 0.710864 -0.097570
C14   C     C_R   0.035987 0.500090 0.710831 -0.097512
C15   C     C_R   0.824741 0.999969 0.282751 -0.091048
C16   C     C_R   0.324742 0.499969 0.282755 -0.091044
C17   C     C_R   0.610329 0.183973 0.002123 0.003843
C18   C     C_R   0.610226 0.816028 0.001816 0.005138
C19   C     C_R   0.110329 0.683974 0.002128 0.003819
C20   C     C_R   0.110219 0.316028 0.001814 0.005158
C21   C     C_3   0.025351 0.948266 0.560681 -0.125812
C22   C     C_3   0.025100 0.051287 0.561042 -0.125965
C23   C     C_3   0.525343 0.448274 0.560699 -0.125817
C24   C     C_3   0.525098 0.551296 0.561047 -0.125975
C25   C     C_3   0.927452 0.950080 0.457073 -0.453559
C26   C     C_3   0.927155 0.049421 0.457558 -0.453169
C27   C     C_3   0.427442 0.450089 0.457093 -0.453532
C28   C     C_3   0.427157 0.549434 0.457556 -0.453155
C29   C     C_3   0.090378 0.000114 0.468714 -0.398338
C30   C     C_3   0.590378 0.500112 0.468728 -0.398321
C31   C     C_3   0.083336 0.999893 0.566175 0.262169
C32   C     C_3   0.583332 0.499898 0.566187 0.262161
C33   C     C_3   0.916684 0.999901 0.387626 0.390473
C34   C     C_3   0.416682 0.499906 0.387635 0.390475
C35   C     C_R   0.406110 0.868162 0.089818 0.034943
C36   C     C_R   0.405745 0.131648 0.089636 0.034480
C37   C     C_R   0.906112 0.368162 0.089821 0.034943
C38   C     C_R   0.905739 0.631644 0.089635 0.034466
C39   C     C_3   0.992741 0.000094 0.364262 -0.413785
C40   C     C_3   0.492742 0.500091 0.364275 -0.413798
C41   C     C_R   0.168806 0.819287 0.949885 -0.201626
C42   C     C_R   0.168581 0.180424 0.950477 -0.202440
C43   C     C_R   0.668808 0.319285 0.949882 -0.201631
C44   C     C_R   0.668587 0.680414 0.950524 -0.202438
C45   C     C_R   0.616548 0.277683 0.952260 -0.190304
C46   C     C_R   0.616433 0.722113 0.952865 -0.190022
C47   C     C_R   0.116547 0.777686 0.952266 -0.190302
C48   C     C_R   0.116422 0.222121 0.952813 -0.190018
C49   C     C_R   0.661121 0.229396 0.003894 0.159662
C50   C     C_R   0.660928 0.770597 0.003373 0.159247
C51   C     C_R   0.161120 0.729397 0.003898 0.159660
C52   C     C_R   0.160922 0.270596 0.003374 0.159248
C53   C     C_R   0.755415 0.221180 0.048640 -0.175736
C54   C     C_R   0.754989 0.778909 0.046975 -0.176248
C55   C     C_R   0.255412 0.721181 0.048639 -0.175726
C56   C     C_R   0.254995 0.278902 0.047030 -0.176275
C57   C     C_R   0.306259 0.761615 0.043424 -0.166737
C58   C     C_R   0.305732 0.238350 0.041879 -0.166015
C59   C     C_R   0.806262 0.261616 0.043431 -0.166743
C60   C     C_R   0.805722 0.738352 0.041828 -0.166008
C61   C     C_R   0.263659 0.810973 0.996995 0.148238
C62   C     C_R   0.263246 0.188823 0.996555 0.148489
C63   C     C_R   0.763662 0.310973 0.997000 0.148238
C64   C     C_R   0.763243 0.688818 0.996552 0.148502
C65   C     C_R   0.631965 0.989580 0.641316 -0.198821
C66   C     C_R   0.466556 0.010984 0.522146 -0.163564
C67   C     C_R   0.131887 0.489390 0.641260 -0.198613
C68   C     C_R   0.966621 0.511189 0.522168 -0.163618
C69   C     C_R   0.638627 0.989335 0.554291 -0.189821
C70   C     C_R   0.473527 0.011743 0.436351 -0.166638
C71   C     C_R   0.138558 0.489139 0.554242 -0.189855
C72   C     C_R   0.973621 0.511969 0.436399 -0.166648
C73   C     C_R   0.559204 0.000792 0.453137 0.167244
C74   C     C_R   0.059228 0.500811 0.453145 0.167212
C75   C     C_R   0.547433 0.044710 0.301641 -0.134975
C76   C     C_R   0.547876 0.955602 0.302260 -0.125750
C77   C     C_R   0.047447 0.544714 0.301640 -0.135090
C78   C     C_R   0.047893 0.455605 0.302271 -0.125682
C79   C     C_R   0.545794 0.000271 0.623818 0.179344
C80   C     C_R   0.045779 0.500275 0.623797 0.179272
C81   C     C_R   0.236155 0.954561 0.711792 -0.159537
C82   C     C_R   0.236089 0.045371 0.711668 -0.159569
C83   C     C_R   0.736152 0.454563 0.711797 -0.159531
C84   C     C_R   0.736088 0.545372 0.711675 -0.159572
C85   C     C_R   0.320116 0.146545 0.998920 -0.027114
C86   C     C_R   0.320552 0.853151 0.999172 -0.027195
C87   C     C_R   0.820108 0.646538 0.998919 -0.027121
C88   C     C_R   0.820554 0.353152 0.999175 -0.027192
C89   C     C_R   0.561612 0.000300 0.361596 -0.004811
C90   C     C_R   0.061633 0.500307 0.361603 -0.004751
C91   C     C_R   0.179520 0.999941 0.665255 0.003869
C92   C     C_R   0.679516 0.499943 0.665267 0.003879
C93   C     C_R   0.509060 0.045224 0.740765 0.012241
C94   C     C_R   0.509189 0.954859 0.740667 0.013353
C95   C     C_R   0.009047 0.545226 0.740754 0.012233
C96   C     C_R   0.009174 0.454858 0.740651 0.013355
C97   C     C_R   0.768667 0.954879 0.246873 0.030863
C98   C     C_R   0.768697 0.045092 0.247046 0.031526
C99   C     C_R   0.268669 0.454879 0.246881 0.030862
C100  C     C_R   0.268697 0.545092 0.247045 0.031531
H1    H     H_    0.260821 0.136945 0.827026 0.133958
H2    H     H_    0.260902 0.862837 0.827173 0.133828
H3    H     H_    0.760817 0.636941 0.827027 0.133967
H4    H     H_    0.760903 0.362838 0.827176 0.133833
H5    H     H_    0.016992 0.953291 0.628227 0.094940
H6    H     H_    0.016902 0.046009 0.628664 0.095160
H7    H     H_    0.516986 0.453302 0.628247 0.094937
H8    H     H_    0.516890 0.546020 0.628663 0.095168
H9    H     H_    0.875362 0.952358 0.477720 0.145477
H10   H     H_    0.875198 0.046692 0.478349 0.146496
H11   H     H_    0.375354 0.452378 0.477744 0.145465
H12   H     H_    0.375191 0.546716 0.478338 0.146507
H13   H     H_    0.911455 0.911508 0.413332 0.164593
H14   H     H_    0.910714 0.088147 0.414186 0.164585
H15   H     H_    0.411435 0.411511 0.413359 0.164584
H16   H     H_    0.410730 0.588157 0.414175 0.164581
H17   H     H_    0.131780 0.965435 0.471419 0.152559
H18   H     H_    0.131509 0.034995 0.471628 0.152264
H19   H     H_    0.631778 0.465430 0.471439 0.152565
H20   H     H_    0.631512 0.534991 0.471639 0.152261
H21   H     H_    0.984781 0.964291 0.315284 0.146475
H22   H     H_    0.984568 0.035995 0.315398 0.146357
H23   H     H_    0.484781 0.464286 0.315300 0.146477
H24   H     H_    0.484575 0.535991 0.315409 0.146364
H25   H     H_    0.136223 0.857566 0.912558 0.117512
H26   H     H_    0.136075 0.142008 0.913997 0.117837
H27   H     H_    0.636225 0.357563 0.912554 0.117515
H28   H     H_    0.636086 0.641992 0.914082 0.117843
H29   H     H_    0.542659 0.282936 0.914965 0.117049
H30   H     H_    0.542700 0.716771 0.916471 0.117561
H31   H     H_    0.042659 0.782939 0.914975 0.117048
H32   H     H_    0.042680 0.216784 0.916374 0.117559
H33   H     H_    0.788925 0.182844 0.084624 0.120613
H34   H     H_    0.788390 0.817372 0.082138 0.120412
H35   H     H_    0.288922 0.682844 0.084622 0.120616
H36   H     H_    0.288404 0.317358 0.082234 0.120418
H37   H     H_    0.378916 0.754482 0.075846 0.124276
H38   H     H_    0.378243 0.245493 0.073590 0.123978
H39   H     H_    0.878921 0.254484 0.075857 0.124275
H40   H     H_    0.878226 0.745496 0.073506 0.123962
H41   H     H_    0.692711 0.981370 0.721164 0.111420
H42   H     H_    0.399947 0.018776 0.509886 0.115915
H43   H     H_    0.192575 0.481027 0.721073 0.111354
H44   H     H_    0.900049 0.519122 0.509921 0.115974
H45   H     H_    0.704429 0.980669 0.565229 0.113335
H46   H     H_    0.412301 0.020151 0.356798 0.120942
H47   H     H_    0.204298 0.480307 0.565145 0.113332
H48   H     H_    0.912459 0.520538 0.356884 0.120977
H49   H     H_    0.567920 0.084857 0.333557 0.137140
H50   H     H_    0.568359 0.915530 0.334629 0.135246
H51   H     H_    0.067937 0.584862 0.333549 0.137144
H52   H     H_    0.068378 0.415534 0.334643 0.135219
H53   H     H_    0.226475 0.914197 0.681786 0.128054
H54   H     H_    0.226221 0.085717 0.681458 0.127410
H55   H     H_    0.726468 0.414199 0.681786 0.128053
H56   H     H_    0.726221 0.585718 0.681468 0.127411
H57   H     H_    0.679080 0.165941 0.172455 0.110072
H58   H     H_    0.679282 0.833978 0.172269 0.109925
H59   H     H_    0.179079 0.665939 0.172459 0.110072
H60   H     H_    0.179274 0.333977 0.172267 0.109923
H61   H     H_    0.511448 0.831077 0.832384 0.133862
H62   H     H_    0.511787 0.169160 0.832820 0.134396
H63   H     H_    0.011436 0.331079 0.832379 0.133856
H64   H     H_    0.011785 0.669165 0.832827 0.134407
N1    N     N_R   0.392140 0.102630 0.941800 -0.042645
N2    N     N_R   0.392140 0.897370 0.941800 -0.042562
N3    N     N_R   0.892140 0.602630 0.941800 -0.042646
N4    N     N_R   0.892140 0.397370 0.941800 -0.042562
N5    N     N_R   0.450890 0.896450 0.057150 -0.057604
N6    N     N_R   0.450890 0.103550 0.057150 -0.057663
N7    N     N_R   0.950890 0.396450 0.057150 -0.057603
N8    N     N_R   0.950890 0.603550 0.057150 -0.057665
N9    N     N_R   0.525160 0.027960 0.206160 -0.042957
N10   N     N_R   0.525160 0.972040 0.206160 -0.043491
N11   N     N_R   0.025160 0.527960 0.206160 -0.042947
N12   N     N_R   0.025160 0.472040 0.206160 -0.043491
N13   N     N_R   0.317870 0.971120 0.792790 -0.036491
N14   N     N_R   0.317870 0.028880 0.792790 -0.036543
N15   N     N_R   0.817870 0.471120 0.792790 -0.036491
N16   N     N_R   0.817870 0.528880 0.792790 -0.036544
N17   N     N_R   0.473480 0.027920 0.793480 -0.068459
N18   N     N_R   0.473480 0.972080 0.793480 -0.068918
N19   N     N_R   0.973480 0.527920 0.793480 -0.068453
N20   N     N_R   0.973480 0.472080 0.793480 -0.068919
N21   N     N_R   0.681610 0.971120 0.207570 -0.055018
N22   N     N_R   0.681610 0.028880 0.207570 -0.054665
N23   N     N_R   0.181610 0.471120 0.207570 -0.055019
N24   N     N_R   0.181610 0.528880 0.207570 -0.054665
N25   N     N_R   0.605410 0.102620 0.056870 -0.040817
N26   N     N_R   0.605410 0.897380 0.056870 -0.040956
N27   N     N_R   0.105410 0.602620 0.056870 -0.040818
N28   N     N_R   0.105410 0.397380 0.056870 -0.040954
N29   N     N_R   0.549680 0.896430 0.944180 -0.044674
N30   N     N_R   0.549680 0.103570 0.944180 -0.044391
N31   N     N_R   0.049680 0.396430 0.944180 -0.044675
N32   N     N_R   0.049680 0.603570 0.944180 -0.044391
Ni1   Ni    Ni4+2 0.433410 0.064680 0.868830 0.201447
Ni2   Ni    Ni4+2 0.433410 0.935320 0.868830 0.201687
Ni3   Ni    Ni4+2 0.933410 0.564680 0.868830 0.201450
Ni4   Ni    Ni4+2 0.933410 0.435320 0.868830 0.201697
Ni5   Ni    Ni4+2 0.565650 0.934380 0.131170 0.200602
Ni6   Ni    Ni4+2 0.565650 0.065620 0.131170 0.200813
Ni7   Ni    Ni4+2 0.065650 0.434380 0.131170 0.200603
Ni8   Ni    Ni4+2 0.065650 0.565620 0.131170 0.200811
C101  C     C_R   0.447064 0.847510 0.198797 0.110626
C102  C     C_R   0.399056 0.853123 0.248019 -0.142615
C103  C     C_R   0.437903 0.833202 0.351560 -0.105722
C104  C     C_R   0.524133 0.807290 0.405591 -0.075198
C105  C     C_R   0.571475 0.800755 0.356289 -0.143002
C106  C     C_R   0.532571 0.820258 0.252467 -0.191690
H65   H     H_    0.332372 0.873441 0.206763 0.111837
H66   H     H_    0.401392 0.838059 0.389979 0.125399
H67   H     H_    0.554161 0.792242 0.485514 0.116888
H68   H     H_    0.638552 0.781012 0.398627 0.103380
H69   H     H_    0.569138 0.814563 0.214438 0.114139
C107  C     C_R   0.446413 0.152557 0.198331 0.114076
C108  C     C_R   0.531586 0.180121 0.251672 -0.192432
C109  C     C_R   0.569943 0.200169 0.354978 -0.140577
C110  C     C_R   0.522297 0.193950 0.403980 -0.072913
C111  C     C_R   0.436506 0.167583 0.350378 -0.108816
C112  C     C_R   0.398258 0.147056 0.247403 -0.148975
H70   H     H_    0.568275 0.185685 0.213752 0.113993
H71   H     H_    0.636783 0.220148 0.397078 0.103177
H72   H     H_    0.551691 0.209648 0.483291 0.116761
H73   H     H_    0.399836 0.162904 0.388651 0.124132
H74   H     H_    0.331853 0.126446 0.206402 0.110324
C113  C     C_R   0.947069 0.347514 0.198804 0.110617
C114  C     C_R   0.899067 0.353133 0.248033 -0.142586
C115  C     C_R   0.937924 0.333223 0.351584 -0.105705
C116  C     C_R   0.024157 0.307313 0.405617 -0.075198
C117  C     C_R   0.071489 0.300769 0.356306 -0.143039
C118  C     C_R   0.032576 0.320262 0.252476 -0.191677
H75   H     H_    0.832382 0.373451 0.206777 0.111851
H76   H     H_    0.901420 0.338087 0.390010 0.125418
H77   H     H_    0.054196 0.292275 0.485550 0.116881
H78   H     H_    0.138566 0.281025 0.398645 0.103381
H79   H     H_    0.069137 0.314561 0.214442 0.114136
C119  C     C_R   0.946403 0.652555 0.198327 0.114164
C120  C     C_R   0.031569 0.680127 0.251663 -0.192426
C121  C     C_R   0.069922 0.700178 0.354964 -0.140569
C122  C     C_R   0.022279 0.693954 0.403968 -0.072858
C123  C     C_R   0.936496 0.667577 0.350371 -0.108886
C124  C     C_R   0.898252 0.647047 0.247402 -0.149085
H80   H     H_    0.068256 0.685695 0.213742 0.113984
H81   H     H_    0.136758 0.720161 0.397060 0.103171
H82   H     H_    0.051673 0.709651 0.483275 0.116756
H83   H     H_    0.899830 0.662891 0.388646 0.124125
H84   H     H_    0.831854 0.626429 0.206405 0.110311
C125  C     C_R   0.494688 0.099445 0.694872 0.128699
C126  C     C_R   0.406948 0.124346 0.642209 -0.179011
C127  C     C_R   0.394523 0.176278 0.599215 -0.142532
C128  C     C_R   0.469375 0.203227 0.608716 -0.113397
C129  C     C_R   0.556206 0.177899 0.660050 -0.123046
C130  C     C_R   0.568708 0.126080 0.701955 -0.135725
H85   H     H_    0.348760 0.103751 0.634882 0.115451
H86   H     H_    0.327191 0.195671 0.559026 0.110453
H87   H     H_    0.459876 0.243437 0.575579 0.125039
H88   H     H_    0.614460 0.197773 0.667509 0.105011
H89   H     H_    0.636443 0.107103 0.741613 0.108749
C131  C     C_R   0.493983 0.900865 0.693755 0.133332
C132  C     C_R   0.568367 0.873097 0.703779 -0.139216
C133  C     C_R   0.555125 0.821367 0.661398 -0.123189
C134  C     C_R   0.467416 0.797011 0.607434 -0.114043
C135  C     C_R   0.392410 0.824892 0.595787 -0.144478
C136  C     C_R   0.405472 0.876849 0.638901 -0.168391
H90   H     H_    0.637083 0.890911 0.746670 0.105159
H91   H     H_    0.613610 0.800798 0.670790 0.105737
H92   H     H_    0.457446 0.756803 0.574134 0.125692
H93   H     H_    0.324454 0.806204 0.553776 0.110578
H94   H     H_    0.347143 0.898154 0.629932 0.114310
C137  C     C_R   0.994686 0.599452 0.694886 0.128625
C138  C     C_R   0.906952 0.624360 0.642240 -0.179151
C139  C     C_R   0.894530 0.676290 0.599243 -0.142503
C140  C     C_R   0.969378 0.703232 0.608719 -0.113377
C141  C     C_R   0.056202 0.677898 0.660035 -0.123043
C142  C     C_R   0.068702 0.626080 0.701947 -0.135683
H95   H     H_    0.848766 0.603769 0.634926 0.115480
H96   H     H_    0.827202 0.695688 0.559066 0.110455
H97   H     H_    0.959880 0.743440 0.575574 0.125032
H98   H     H_    0.114451 0.697766 0.667469 0.105002
H99   H     H_    0.136430 0.607096 0.741582 0.108754
C143  C     C_R   0.993944 0.400863 0.693730 0.133357
C144  C     C_R   0.068325 0.373070 0.703791 -0.139280
C145  C     C_R   0.055056 0.321338 0.661403 -0.123194
C146  C     C_R   0.967327 0.297001 0.607409 -0.114028
C147  C     C_R   0.892325 0.324905 0.595736 -0.144478
C148  C     C_R   0.905414 0.376866 0.638851 -0.168306
H100  H     H_    0.137062 0.390860 0.746730 0.105095
H101  H     H_    0.113540 0.300756 0.670823 0.105757
H102  H     H_    0.957343 0.256789 0.574114 0.125677
H103  H     H_    0.824351 0.306233 0.553703 0.110565
H104  H     H_    0.847089 0.398190 0.629862 0.114297
N33   N     N_3   0.790691 0.909608 0.205871 -0.217592
H105  H     H_    0.861767 0.901602 0.251873 0.076978
H106  H     H_    0.776285 0.921364 0.131268 0.113016
N34   N     N_3   0.790878 0.090548 0.206628 -0.217842
H107  H     H_    0.861926 0.098621 0.253057 0.076909
H108  H     H_    0.776844 0.078984 0.132107 0.113142
N35   N     N_3   0.290698 0.409601 0.205896 -0.217600
H109  H     H_    0.361774 0.401595 0.251906 0.076977
H110  H     H_    0.276297 0.421351 0.131292 0.113015
N36   N     N_3   0.290876 0.590545 0.206615 -0.217839
H111  H     H_    0.361926 0.598616 0.253035 0.076903
H112  H     H_    0.276832 0.578977 0.132089 0.113148
C149  C     C_R   0.064652 0.891370 0.571554 0.168940
C150  C     C_R   0.084453 0.858273 0.658056 -0.195621
C151  C     C_R   0.130245 0.808898 0.676422 -0.147465
C152  C     C_R   0.157368 0.792262 0.609538 -0.127024
C153  C     C_R   0.129949 0.822003 0.517755 -0.127592
C154  C     C_R   0.080869 0.870142 0.496625 -0.159155
H113  H     H_    0.068706 0.871727 0.714404 0.106278
H114  H     H_    0.149037 0.785055 0.746103 0.133534
H115  H     H_    0.197532 0.755616 0.627072 0.096876
H116  H     H_    0.146908 0.808036 0.462881 0.102725
H117  H     H_    0.056690 0.890403 0.422120 0.111113
C155  C     C_R   0.064058 0.108289 0.572087 0.169205
C156  C     C_R   0.083949 0.141118 0.658913 -0.194274
C157  C     C_R   0.129366 0.190612 0.677384 -0.147260
C158  C     C_R   0.156046 0.207651 0.610288 -0.126930
C159  C     C_R   0.128472 0.178190 0.518179 -0.126992
C160  C     C_R   0.079766 0.129898 0.496975 -0.159955
H118  H     H_    0.068624 0.127356 0.715462 0.106487
H119  H     H_    0.148390 0.214174 0.747440 0.133076
H120  H     H_    0.196120 0.244345 0.628026 0.095856
H121  H     H_    0.145097 0.192487 0.463184 0.103506
H122  H     H_    0.055500 0.109815 0.422292 0.111147
C161  C     C_R   0.564639 0.391375 0.571572 0.168944
C162  C     C_R   0.584441 0.358281 0.658079 -0.195613
C163  C     C_R   0.630229 0.308906 0.676446 -0.147473
C164  C     C_R   0.657352 0.292266 0.609560 -0.127009
C165  C     C_R   0.629930 0.322003 0.517771 -0.127594
C166  C     C_R   0.580850 0.370143 0.496639 -0.159161
H123  H     H_    0.568698 0.371740 0.714431 0.106269
H124  H     H_    0.649024 0.285066 0.746131 0.133539
H125  H     H_    0.697517 0.255619 0.627097 0.096871
H126  H     H_    0.646886 0.308033 0.462895 0.102723
H127  H     H_    0.556668 0.390401 0.422129 0.111116
C167  C     C_R   0.564063 0.608298 0.572098 0.169193
C168  C     C_R   0.583949 0.641128 0.658921 -0.194277
C169  C     C_R   0.629373 0.690621 0.677398 -0.147258
C170  C     C_R   0.656065 0.707656 0.610313 -0.126960
C171  C     C_R   0.628502 0.678192 0.518210 -0.127011
C172  C     C_R   0.579787 0.629903 0.496998 -0.159948
H128  H     H_    0.568611 0.627370 0.715461 0.106504
H129  H     H_    0.648387 0.714188 0.747445 0.133100
H130  H     H_    0.696141 0.744349 0.628053 0.095868
H131  H     H_    0.645141 0.692485 0.463225 0.103500
H132  H     H_    0.555528 0.609818 0.422317 0.111143

loop_
_geom_bond_atom_site_label_1
_geom_bond_atom_site_label_2
_ccdc_geom_bond_type
C13   C79   S    
C135  H93   S    
C69   H45   S    
C41   C61   A    
C67   H43   S    
C99   N23   A    
C43   C63   A    
C44   C64   A    
C97   N21   A    
C66   C79   A    
C143  C144  A    
C147  H103  S    
C145  C146  A    
C100  N24   A    
C11   N31   A    
C171  H131  S    
C35   C86   A    
C9    N29   A    
N30   Ni1   S    
C7    H59   S    
C149  C154  A    
C54   H34   S    
N1    N6    A    
N22   Ni6   S    
C140  C141  A    
C115  H76   S    
C84   N16   A    
N27   N32   A    
C28   H16   S    
C6    H58   S    
C158  H120  S    
C93   N17   A    
N25   N30   A    
C141  C142  A    
C138  C139  A    
C163  H124  S    
C117  H78   S    
C10   H62   S    
C12   N32   A    
N12   Ni7   S    
C15   C97   A    
C114  C115  A    
C44   C46   A    
C11   C20   A    
C164  C165  A    
N28   N31   A    
C41   H25   S    
C134  C135  A    
C53   H33   S    
C169  C170  A    
C43   H27   S    
C171  C172  A    
N10   Ni5   S    
C28   H12   S    
C82   C91   A    
C4    N4    A    
C47   H31   S    
C155  C156  A    
C136  H94   S    
C26   H14   S    
C115  C116  A    
N11   N12   A    
C68   C72   A    
C23   H7    S    
C82   N14   A    
C150  C151  A    
C153  C154  A    
C157  H119  S    
N34   H107  S    
C7    C19   A    
C55   C57   A    
C121  H81   S    
C1    H1    S    
C14   C95   A    
C3    H3    S    
C24   C167  S    
C144  H100  S    
C59   C63   A    
C57   C61   A    
C36   N6    A    
C139  H96   S    
C13   C94   A    
C60   C64   A    
C74   C90   S    
C141  H98   S    
C5    N25   A    
C132  H90   S    
C72   H48   S    
C84   H56   S    
C95   N19   A    
C127  H86   S    
C66   C70   A    
C30   H20   S    
C130  H89   S    
C8    N28   A    
C49   C53   A    
C4    H4    S    
C51   C55   A    
N19   Ni3   S    
N6    Ni6   S    
C99   N35   S    
C152  H115  S    
C42   H26   S    
C23   C161  S    
C48   C52   A    
C124  H84   S    
N23   N24   A    
C137  C138  A    
C128  C129  A    
C27   H15   S    
C71   H47   S    
C104  H67   S    
C65   C79   A    
N17   Ni1   S    
C3    N3    A    
C109  H71   S    
C32   C92   S    
C21   C31   S    
C125  C126  A    
C39   H22   S    
N11   Ni8   S    
C129  C130  A    
C83   H55   S    
N15   Ni4   S    
C2    H2    S    
C106  H69   S    
C81   H53   S    
C151  H114  S    
C16   C34   S    
C110  H72   S    
C156  H118  S    
N4    N7    A    
C94   C131  S    
C135  C136  A    
N20   Ni4   S    
C70   H46   S    
C165  H126  S    
C42   C62   A    
C64   C87   S    
C25   H9    S    
C76   C89   A    
C58   H38   S    
C168  H128  S    
C27   H11   S    
C143  C148  A    
C6    N26   A    
N32   Ni3   S    
C129  H88   S    
C111  C112  A    
C56   H36   S    
C103  C104  A    
C137  C142  A    
C40   H24   S    
N36   H112  S    
C140  H97   S    
C17   C49   S    
C133  H91   S    
C16   C100  A    
C108  C109  A    
C119  C124  A    
N24   Ni8   S    
C158  C159  A    
N33   H105  S    
C38   C119  S    
C65   H41   S    
C26   C33   S    
C76   H50   S    
C11   H63   S    
C105  C106  A    
C41   C47   A    
C57   H37   S    
C42   C48   A    
C9    H61   S    
C43   C45   A    
C114  H75   S    
C60   H40   S    
N14   Ni1   S    
N13   N14   A    
C31   C91   S    
C164  H125  S    
C118  H79   S    
C169  H129  S    
C21   C25   S    
C24   C28   S    
C131  C132  A    
C166  H127  S    
C37   N7    A    
C38   N8    A    
C133  C134  A    
C4    C88   A    
N25   Ni6   S    
C29   H18   S    
C150  H113  S    
C83   N15   A    
C76   N10   A    
C81   N13   A    
C36   C107  S    
C101  C106  A    
C75   H49   S    
C121  C122  A    
C56   C58   A    
C68   H44   S    
C75   C89   A    
C9    C18   A    
C144  C145  A    
N3    Ni3   S    
C148  H104  S    
C84   C92   A    
C25   C33   S    
C58   C62   A    
C45   H29   S    
C132  C133  A    
C63   C88   S    
C37   C88   A    
C120  C121  A    
C127  C128  A    
N17   N18   A    
C78   C90   A    
C50   C54   A    
C97   N33   S    
C10   N30   A    
C5    C17   A    
N29   Ni2   S    
N23   Ni7   S    
N21   Ni5   S    
N8    Ni8   S    
C107  C112  A    
N26   N29   A    
C104  C105  A    
C69   C73   A    
C24   H8    S    
C2    N2    A    
N34   H108  S    
C28   C34   S    
C125  C130  A    
C7    N27   A    
C14   C96   A    
C128  H87   S    
C154  H117  S    
C134  H92   S    
C77   C90   A    
C122  H82   S    
C72   C74   A    
C110  C111  A    
C162  C163  A    
C47   C51   A    
C126  C127  A    
N9    N10   A    
C112  H74   S    
C151  C152  A    
C13   C93   A    
N9    Ni6   S    
N35   H109  S    
C46   H30   S    
C146  C147  A    
C25   H13   S    
C12   H64   S    
C168  C169  A    
C59   H39   S    
C70   C73   A    
C123  C124  A    
C116  H77   S    
N26   Ni5   S    
C33   C39   S    
C159  H121  S    
C155  C160  A    
C5    H57   S    
C22   C155  S    
C35   N5    A    
N27   Ni8   S    
C15   C98   A    
C8    H60   S    
C18   C50   S    
C108  H70   S    
C119  C120  A    
N4    Ni4   S    
C102  C103  A    
C98   N34   S    
C67   C80   A    
C71   C74   A    
C170  H130  S    
C95   C137  S    
N3    N8    A    
C66   H42   S    
C36   C85   A    
C105  H68   S    
C39   H21   S    
C38   C87   A    
C23   C32   S    
C73   C89   S    
C161  C162  A    
C98   N22   A    
C165  C166  A    
N21   N22   A    
C147  C148  A    
C65   C69   A    
C12   C19   A    
N28   Ni7   S    
C67   C71   A    
N7    Ni7   S    
C116  C117  A    
C61   C86   S    
N5    Ni5   S    
N15   N16   A    
C81   C91   A    
C37   C113  S    
N33   H106  S    
C149  C150  A    
C22   C26   S    
C48   H32   S    
C94   N18   A    
C131  C136  A    
C21   H5    S    
C167  C172  A    
C68   C80   A    
C24   C32   S    
C138  H95   S    
C75   N9    A    
C163  C164  A    
N18   Ni2   S    
N19   N20   A    
C77   H51   S    
N2    Ni2   S    
C53   C59   A    
C78   H52   S    
C54   C60   A    
C101  C102  A    
C83   C92   A    
C8    C20   A    
C34   C40   S    
C162  H123  S    
C122  C123  A    
N1    Ni1   S    
C161  C166  A    
C142  H99   S    
C10   C17   A    
C102  H65   S    
C35   C101  S    
C113  C114  A    
C111  H73   S    
C120  H80   S    
C23   C27   S    
C26   H10   S    
C113  C118  A    
C77   N11   A    
C172  H132  S    
C78   N12   A    
C96   N20   A    
C93   C125  S    
C27   C34   S    
C1    C85   A    
C6    C18   A    
C62   C85   S    
C22   C31   S    
C3    C87   A    
C107  C108  A    
C22   H6    S    
C29   H17   S    
C146  H102  S    
C96   C143  S    
C157  C158  A    
C45   C49   A    
C1    N1    A    
C29   C39   S    
C21   C149  S    
C139  C140  A    
C30   C40   S    
N35   H110  S    
C14   C80   S    
N13   Ni2   S    
C103  H66   S    
C30   H19   S    
C152  C153  A    
N31   Ni4   S    
C126  H85   S    
C40   H23   S    
N36   H111  S    
C44   H28   S    
C145  H101  S    
C16   C99   A    
C46   C50   A    
C123  H83   S    
C20   C52   S    
C159  C160  A    
C29   C31   S    
N16   Ni3   S    
C153  H116  S    
C30   C32   S    
C109  C110  A    
C55   H35   S    
C160  H122  S    
C2    C86   A    
C100  N36   S    
C156  C157  A    
C82   H54   S    
C19   C51   S    
N2    N5    A    
C167  C168  A    
C117  C118  A    
C170  C171  A    
C15   C33   S    
C52   C56   A    
