data_mof_unit_pretest_909.cif
_audit_creation_date              2013-03-05T15:49:08-0500
_audit_creation_method            fapswitch 2.2
_symmetry_space_group_name_H-M    P1
_symmetry_Int_Tables_number       1
_space_group_crystal_system       triclinic
_cell_length_a                    22.549492
_cell_length_b                    13.031795
_cell_length_c                    26.8788
_cell_angle_alpha                 90.310637
_cell_angle_beta                  90.440321
_cell_angle_gamma                 89.860917
_cell_volume                      7898.24195811

loop_
_atom_site_label
_atom_site_type_symbol
_atom_site_description
_atom_site_fract_x
_atom_site_fract_y
_atom_site_fract_z
_atom_type_partial_charge
O1    O     O_R   0.769900 0.064540 0.196060 -0.537800
O2    O     O_R   0.230100 0.064540 0.803940 -0.509759
O3    O     O_R   0.269900 0.564540 0.196060 -0.526389
O4    O     O_R   0.730100 0.564540 0.803940 -0.538289
O5    O     O_R   0.750800 0.274080 0.199250 -0.503952
O6    O     O_R   0.249200 0.274080 0.800750 -0.528553
O7    O     O_R   0.250800 0.774080 0.199250 -0.509227
O8    O     O_R   0.749200 0.774080 0.800750 -0.512452
C1    C     C_R   0.720903 0.344427 0.178280 0.546434
C2    C     C_R   0.277611 0.351039 0.819756 0.529305
C3    C     C_R   0.221200 0.845704 0.179032 0.548848
C4    C     C_R   0.779133 0.844810 0.822065 0.550025
O9    O     O_R   0.669990 0.371670 0.194150 -0.496579
O10   O     O_R   0.330010 0.371670 0.805850 -0.504480
O11   O     O_R   0.169990 0.871670 0.194150 -0.514761
O12   O     O_R   0.830010 0.871670 0.805850 -0.494998
O13   O     O_R   0.574600 0.238480 0.197800 -0.515450
O14   O     O_R   0.425400 0.238480 0.802200 -0.510912
O15   O     O_R   0.074600 0.738480 0.197800 -0.517704
O16   O     O_R   0.925400 0.738480 0.802200 -0.509039
C5    C     C_R   0.551849 0.158143 0.178350 0.544352
C6    C     C_R   0.447511 0.156979 0.821997 0.538254
C7    C     C_R   0.052476 0.657892 0.177844 0.552365
C8    C     C_R   0.948483 0.657523 0.821271 0.542833
O17   O     O_R   0.566130 0.068680 0.194240 -0.468177
O18   O     O_R   0.433870 0.068680 0.805760 -0.468668
O19   O     O_R   0.066130 0.568680 0.194240 -0.433101
O20   O     O_R   0.933870 0.568680 0.805760 -0.469828
O21   O     O_R   0.680610 0.992490 0.199570 -0.443507
O22   O     O_R   0.319390 0.992490 0.800430 -0.429593
O23   O     O_R   0.180610 0.492490 0.199570 -0.435372
O24   O     O_R   0.819390 0.492490 0.800430 -0.441238
C9    C     C_R   0.732841 0.997237 0.180702 0.552638
C10   C     C_R   0.277327 0.031593 0.826446 0.555162
C11   C     C_R   0.231317 0.499853 0.179184 0.541284
C12   C     C_R   0.767374 0.498888 0.819662 0.569324
O25   O     O_R   0.770060 0.065440 0.307230 -0.471365
O26   O     O_R   0.229940 0.065440 0.692770 -0.460125
O27   O     O_R   0.270060 0.565440 0.307230 -0.476269
O28   O     O_R   0.729940 0.565440 0.692770 -0.465786
O29   O     O_R   0.750960 0.274920 0.302300 -0.515173
O30   O     O_R   0.249040 0.274920 0.697700 -0.510299
O31   O     O_R   0.250960 0.774920 0.302300 -0.511113
O32   O     O_R   0.749040 0.774920 0.697700 -0.511167
C13   C     C_R   0.720301 0.345537 0.322707 0.554853
C14   C     C_R   0.278256 0.349480 0.678714 0.551227
C15   C     C_R   0.221987 0.850201 0.321261 0.543044
C16   C     C_R   0.779884 0.845177 0.677257 0.553282
O33   O     O_R   0.670160 0.372580 0.305320 -0.506946
O34   O     O_R   0.329840 0.372580 0.694680 -0.514873
O35   O     O_R   0.170160 0.872580 0.305320 -0.515746
O36   O     O_R   0.829840 0.872580 0.694680 -0.502643
O37   O     O_R   0.574760 0.239320 0.300850 -0.517238
O38   O     O_R   0.425240 0.239320 0.699150 -0.506588
O39   O     O_R   0.074760 0.739320 0.300850 -0.505930
O40   O     O_R   0.925240 0.739320 0.699150 -0.517893
C17   C     C_R   0.554206 0.158642 0.321248 0.529368
C18   C     C_R   0.445763 0.158397 0.678683 0.536173
C19   C     C_R   0.054520 0.658866 0.321598 0.535718
C20   C     C_R   0.945818 0.658095 0.678786 0.527578
O41   O     O_R   0.566290 0.069580 0.305400 -0.496441
O42   O     O_R   0.433710 0.069580 0.694600 -0.502533
O43   O     O_R   0.066290 0.569580 0.305400 -0.502073
O44   O     O_R   0.933710 0.569580 0.694600 -0.498636
O45   O     O_R   0.680760 0.993330 0.302620 -0.461312
O46   O     O_R   0.319240 0.993330 0.697380 -0.447599
O47   O     O_R   0.180760 0.493330 0.302620 -0.455058
O48   O     O_R   0.819240 0.493330 0.697380 -0.465543
C21   C     C_R   0.732792 0.998993 0.321743 0.583680
C22   C     C_R   0.267778 0.999737 0.677215 0.597753
C23   C     C_R   0.232658 0.499984 0.322279 0.583767
C24   C     C_R   0.767155 0.499229 0.678097 0.586209
Cr1   Cr    Cr6+3 0.756570 0.170940 0.251190 1.048754
Cr2   Cr    Cr6+3 0.243430 0.170940 0.748810 1.052964
Cr3   Cr    Cr6+3 0.256570 0.670940 0.251190 1.044676
Cr4   Cr    Cr6+3 0.743430 0.670940 0.748810 1.046999
Cr5   Cr    Cr6+3 0.623740 0.299110 0.249580 1.034539
Cr6   Cr    Cr6+3 0.376260 0.299110 0.750420 1.025906
Cr7   Cr    Cr6+3 0.123740 0.799110 0.249580 1.027935
Cr8   Cr    Cr6+3 0.876260 0.799110 0.750420 1.045157
Cr9   Cr    Cr6+3 0.625990 0.036240 0.250480 1.155886
Cr10  Cr    Cr6+3 0.374010 0.036240 0.749520 1.162071
Cr11  Cr    Cr6+3 0.125990 0.536240 0.250480 1.169745
Cr12  Cr    Cr6+3 0.874010 0.536240 0.749520 1.150339
O49   O     O_3   0.668770 0.168760 0.250420 -0.279906
O50   O     O_3   0.331230 0.168760 0.749580 -0.289172
O51   O     O_3   0.168770 0.668760 0.250420 -0.276270
O52   O     O_3   0.831230 0.668760 0.749580 -0.280602
C25   C     C_R   0.498216 0.080395 0.106510 0.134431
C26   C     C_R   0.492559 0.071086 0.896248 0.141815
C27   C     C_R   0.001106 0.578095 0.104556 0.147181
C28   C     C_R   0.994106 0.573625 0.894635 0.142373
C29   C     C_R   0.499208 0.077228 0.054183 0.009808
C30   C     C_R   0.494135 0.071407 0.948976 0.013369
C31   C     C_R   0.998591 0.575076 0.051916 0.011908
C32   C     C_R   0.991616 0.574217 0.946805 0.005578
C33   C     C_R   0.494768 0.978287 0.976631 0.008155
C34   C     C_R   0.502364 0.982102 0.028639 -0.003926
C35   C     C_R   0.983169 0.482353 0.973530 -0.010715
C36   C     C_R   0.992162 0.480868 0.025258 0.002286
C37   C     C_R   0.479617 0.161967 0.870553 0.005092
C38   C     C_R   0.516977 0.168887 0.131136 0.003418
C39   C     C_R   0.982790 0.664325 0.868555 0.008476
C40   C     C_R   0.020362 0.667377 0.129164 0.002521
C41   C     C_R   0.510932 0.264266 0.106819 -0.041698
C42   C     C_R   0.489561 0.255951 0.894063 -0.039061
C43   C     C_R   0.017722 0.762066 0.103888 -0.046597
C44   C     C_R   0.993323 0.758939 0.892194 -0.039572
C45   C     C_R   0.504382 0.266689 0.053472 0.017314
C46   C     C_R   0.492689 0.261224 0.947116 0.021577
C47   C     C_R   0.012775 0.763157 0.050922 0.018013
C48   C     C_R   0.997525 0.762740 0.945292 0.025681
C49   C     C_R   0.499332 0.170902 0.027339 -0.017129
C50   C     C_R   0.495263 0.167957 0.974549 -0.017738
C51   C     C_R   0.002456 0.669122 0.025172 -0.017350
C52   C     C_R   0.997259 0.668810 0.972484 -0.012592
C53   C     C_R   0.504803 0.359421 0.025013 0.011111
C54   C     C_R   0.491712 0.356276 0.973411 0.018898
C55   C     C_R   0.018537 0.854825 0.022653 0.018270
C56   C     C_R   0.001226 0.856335 0.972327 0.017218
C57   C     C_R   0.745711 0.934271 0.135161 0.011010
C58   C     C_R   0.272809 0.995190 0.878440 0.007367
C59   C     C_R   0.238538 0.447897 0.129465 0.008681
C60   C     C_R   0.753619 0.443426 0.866672 0.009347
C61   C     C_R   0.799363 0.939416 0.107396 -0.020694
C62   C     C_R   0.261197 0.068913 0.916075 -0.051989
C63   C     C_R   0.291831 0.448632 0.102319 -0.013180
C64   C     C_R   0.702975 0.470702 0.895487 -0.014880
C65   C     C_R   0.799446 0.901167 0.057691 0.004287
C66   C     C_R   0.274326 0.046662 0.965832 0.008302
C67   C     C_R   0.290339 0.431395 0.049569 0.012592
C68   C     C_R   0.703693 0.452422 0.947659 0.021765
C69   C     C_R   0.744494 0.885211 0.032515 -0.011002
C70   C     C_R   0.279702 0.943335 0.979673 -0.009880
C71   C     C_R   0.234352 0.427476 0.023395 -0.007784
C72   C     C_R   0.753916 0.404143 0.969510 -0.011246
C73   C     C_R   0.694798 0.867740 0.062764 -0.139578
C74   C     C_R   0.287066 0.867234 0.943172 -0.123477
C75   C     C_R   0.185074 0.403334 0.053447 -0.127771
C76   C     C_R   0.797848 0.363087 0.938733 -0.141457
C77   C     C_R   0.699100 0.875311 0.114512 0.175580
C78   C     C_R   0.289246 0.893834 0.892902 0.199621
C79   C     C_R   0.188577 0.404998 0.105403 0.190948
C80   C     C_R   0.795712 0.375152 0.887146 0.171832
C81   C     C_R   0.704004 0.825219 0.945725 0.015806
C82   C     C_R   0.307529 0.859314 0.060959 0.010153
C83   C     C_R   0.184798 0.398683 0.933658 0.008958
C84   C     C_R   0.757782 0.288570 0.045291 0.004746
C85   C     C_R   0.713144 0.822456 0.894263 -0.093230
C86   C     C_R   0.294158 0.843492 0.111003 -0.092551
C87   C     C_R   0.197796 0.383947 0.882708 -0.103805
C88   C     C_R   0.747633 0.278680 0.096118 -0.096121
C89   C     C_R   0.790429 0.948592 0.900476 -0.126200
C90   C     C_R   0.204331 0.943632 0.102436 -0.123307
C91   C     C_R   0.289650 0.472630 0.892572 -0.093951
C92   C     C_R   0.741983 0.462869 0.107003 -0.130646
C93   C     C_R   0.779855 0.956543 0.951409 -0.137005
C94   C     C_R   0.215922 0.956362 0.052540 -0.127097
C95   C     C_R   0.275276 0.494722 0.942096 -0.113627
C96   C     C_R   0.754984 0.474405 0.056466 -0.125866
C97   C     C_R   0.740951 0.889031 0.976190 0.046756
C98   C     C_R   0.267501 0.915627 0.031337 0.047283
C99   C     C_R   0.229790 0.440112 0.966401 0.040732
C100  C     C_R   0.757918 0.388172 0.024348 0.045006
C101  C     C_R   0.759186 0.877216 0.871964 0.009267
C102  C     C_R   0.241841 0.883204 0.131371 0.014263
C103  C     C_R   0.253893 0.406457 0.864218 0.004362
C104  C     C_R   0.737073 0.364555 0.126622 0.017552
H1    H     H_    0.686034 0.772022 0.871582 0.132096
H2    H     H_    0.323429 0.796532 0.133509 0.140424
H3    H     H_    0.166536 0.343738 0.858803 0.131266
H4    H     H_    0.745947 0.202474 0.111977 0.129712
H5    H     H_    0.806264 0.011120 0.971948 0.118594
H6    H     H_    0.184879 0.000268 0.030413 0.120725
H7    H     H_    0.304424 0.545494 0.962812 0.118573
H8    H     H_    0.758294 0.551308 0.041518 0.122721
H9    H     H_    0.825025 0.994679 0.884111 0.161755
H10   H     H_    0.164550 0.977073 0.117836 0.152874
H11   H     H_    0.330711 0.501831 0.877826 0.158125
H12   H     H_    0.735463 0.529972 0.130380 0.154113
H13   H     H_    0.652397 0.847618 0.047989 0.137305
H14   H     H_    0.291933 0.787435 0.953584 0.138936
H15   H     H_    0.143028 0.379026 0.039035 0.123170
H16   H     H_    0.833462 0.319274 0.954933 0.139916
C105  C     C_R   0.532186 0.163835 0.371943 0.014124
C106  C     C_R   0.472081 0.165031 0.629356 0.013834
C107  C     C_R   0.027875 0.666698 0.370973 0.011765
C108  C     C_R   0.965496 0.662541 0.627513 0.016885
C109  C     C_R   0.501389 0.248700 0.391129 -0.130865
C110  C     C_R   0.483035 0.259989 0.606775 -0.108649
C111  C     C_R   0.017112 0.762422 0.393790 -0.107254
C112  C     C_R   0.000413 0.743075 0.609388 -0.130885
C113  C     C_R   0.489034 0.253528 0.442111 -0.104885
C114  C     C_R   0.495274 0.264313 0.555921 -0.107657
C115  C     C_R   0.002682 0.767343 0.444274 -0.115697
C116  C     C_R   0.010302 0.750251 0.558209 -0.106843
C117  C     C_R   0.508330 0.174139 0.473764 0.035467
C118  C     C_R   0.495658 0.173801 0.527393 0.039385
C119  C     C_R   0.999688 0.676683 0.472181 0.026729
C120  C     C_R   0.985449 0.677421 0.525387 0.028459
C121  C     C_R   0.539207 0.090618 0.453612 -0.076972
C122  C     C_R   0.485659 0.079544 0.550803 -0.025995
C123  C     C_R   0.010474 0.581985 0.449011 -0.026988
C124  C     C_R   0.949386 0.599300 0.544099 -0.095336
C125  C     C_R   0.550128 0.084776 0.403680 -0.099130
C126  C     C_R   0.475719 0.074875 0.601107 -0.080725
C127  C     C_R   0.022818 0.576677 0.398927 -0.074700
C128  C     C_R   0.940029 0.591193 0.594379 -0.102050
H17   H     H_    0.487826 0.310975 0.367046 0.153366
H18   H     H_    0.480386 0.330586 0.627979 0.143895
H19   H     H_    0.021542 0.833093 0.373114 0.151542
H20   H     H_    0.018862 0.800584 0.634462 0.160917
H21   H     H_    0.485006 0.008014 0.530413 0.205427
H22   H     H_    0.555967 0.028851 0.476139 0.199110
H23   H     H_    0.928137 0.543927 0.519968 0.200836
H24   H     H_    0.009722 0.511115 0.469813 0.212747
H25   H     H_    0.467153 0.000246 0.617049 0.183408
H26   H     H_    0.575508 0.019510 0.390451 0.173013
H27   H     H_    0.910600 0.530955 0.607113 0.156182
H28   H     H_    0.031579 0.501639 0.382911 0.184568
H29   H     H_    0.464399 0.318409 0.456541 0.138028
H30   H     H_    0.504001 0.337896 0.539064 0.129646
H31   H     H_    0.994433 0.841363 0.461504 0.127638
H32   H     H_    0.037370 0.811543 0.544085 0.111906
C129  C     C_R   0.744361 0.948460 0.369631 0.002547
C130  C     C_R   0.256422 0.945316 0.629185 -0.005953
C131  C     C_R   0.243997 0.454235 0.371511 0.002820
C132  C     C_R   0.755034 0.449694 0.629879 -0.004255
C133  C     C_R   0.702849 0.878858 0.389537 0.146157
C134  C     C_R   0.300932 0.885014 0.606390 0.147964
C135  C     C_R   0.205022 0.381826 0.392510 0.159313
C136  C     C_R   0.790286 0.367192 0.612285 0.150832
C137  C     C_R   0.700474 0.867388 0.441099 -0.110045
C138  C     C_R   0.301801 0.878492 0.554354 -0.104383
C139  C     C_R   0.203635 0.372209 0.444414 -0.082673
C140  C     C_R   0.793371 0.351047 0.560874 -0.092580
C141  C     C_R   0.734181 0.930947 0.472375 -0.021971
C142  C     C_R   0.258291 0.926507 0.524515 -0.034393
C143  C     C_R   0.230505 0.447208 0.474948 -0.003288
C144  C     C_R   0.768868 0.422693 0.527996 -0.019048
C145  C     C_R   0.774078 0.002857 0.452093 -0.038033
C146  C     C_R   0.204457 0.953414 0.549155 -0.019242
C147  C     C_R   0.263636 0.525434 0.452117 -0.029888
C148  C     C_R   0.736476 0.507483 0.546163 -0.035430
C149  C     C_R   0.787029 0.995039 0.401331 0.180967
C150  C     C_R   0.204680 0.967710 0.601366 0.189557
C151  C     C_R   0.282225 0.509526 0.403335 0.176439
C152  C     C_R   0.719096 0.505731 0.595939 0.174808
C153  C     C_R   0.798356 0.887553 0.541341 -0.151238
C154  C     C_R   0.226140 0.000714 0.442008 -0.124981
C155  C     C_R   0.289446 0.459614 0.551954 -0.143040
C156  C     C_R   0.702726 0.390410 0.458592 -0.143824
C157  C     C_R   0.811745 0.886378 0.591306 -0.032786
C158  C     C_R   0.212159 0.978698 0.392394 -0.046491
C159  C     C_R   0.298993 0.452284 0.602453 -0.034401
C160  C     C_R   0.689815 0.394434 0.408386 -0.035883
C161  C     C_R   0.704642 0.880865 0.609016 -0.011367
C162  C     C_R   0.300968 0.873685 0.388296 -0.035955
C163  C     C_R   0.200335 0.375705 0.610797 -0.035486
C164  C     C_R   0.796392 0.370376 0.391259 -0.019697
C165  C     C_R   0.693321 0.900823 0.558289 0.259936
C166  C     C_R   0.310993 0.891447 0.439831 0.220845
C167  C     C_R   0.189166 0.395560 0.559711 0.234458
C168  C     C_R   0.808381 0.387881 0.442166 0.243453
C169  C     C_R   0.740694 0.903606 0.524836 -0.015613
C170  C     C_R   0.265708 0.938402 0.468578 0.015669
C171  C     C_R   0.235127 0.434244 0.529789 0.007896
C172  C     C_R   0.761129 0.394575 0.475638 -0.015930
C173  C     C_R   0.764825 0.876460 0.626125 0.022965
C174  C     C_R   0.245523 0.902585 0.366952 0.002623
C175  C     C_R   0.257613 0.397110 0.631477 0.014530
C176  C     C_R   0.736291 0.376464 0.373791 0.019841
H33   H     H_    0.834130 0.885445 0.514531 0.143310
H34   H     H_    0.202347 0.061069 0.460979 0.138548
H35   H     H_    0.326191 0.484840 0.529504 0.147477
H36   H     H_    0.666750 0.395673 0.485179 0.148578
H37   H     H_    0.673364 0.807402 0.456766 0.195688
H38   H     H_    0.335877 0.832318 0.538231 0.220276
H39   H     H_    0.180695 0.307903 0.460361 0.195965
H40   H     H_    0.814531 0.282673 0.546373 0.188477
N1    N     N_R   0.509187 0.980312 0.868459 -0.243029
O53   O     O_R   0.547423 0.984682 0.832344 -0.001755
O54   O     O_R   0.547124 0.984657 0.832624 -0.001757
N2    N     N_R   0.473339 0.996483 0.133917 -0.253138
O55   O     O_R   0.445112 0.011397 0.175671 -0.004694
O56   O     O_R   0.445669 0.013234 0.175671 -0.004691
N3    N     N_R   0.013418 0.482753 0.868854 -0.251432
O57   O     O_R   0.046334 0.489391 0.829545 -0.005987
O58   O     O_R   0.046711 0.486793 0.829609 -0.005987
N4    N     N_R   0.979082 0.493516 0.133070 -0.224744
O59   O     O_R   0.944422 0.509516 0.171150 -0.002633
O60   O     O_R   0.944533 0.508383 0.171047 -0.002639
N5    N     N_R   0.659213 0.817734 0.145439 0.087787
O61   O     O_R   0.614289 0.769765 0.125708 -0.378184
O62   O     O_R   0.676378 0.790058 0.189706 -0.272968
N6    N     N_R   0.308815 0.817485 0.857828 0.089470
O63   O     O_R   0.281176 0.729178 0.855232 -0.334143
O64   O     O_R   0.363294 0.822096 0.841874 -0.306648
N7    N     N_R   0.145927 0.347022 0.132724 0.072565
O65   O     O_R   0.146802 0.247203 0.129182 -0.352706
O66   O     O_R   0.099315 0.391615 0.151061 -0.303783
N8    N     N_R   0.833160 0.312571 0.855926 0.085695
O67   O     O_R   0.877393 0.261569 0.874980 -0.377402
O68   O     O_R   0.815380 0.287663 0.811397 -0.266508
N9    N     N_R   0.665171 0.816419 0.358142 0.086826
O69   O     O_R   0.614356 0.784022 0.374428 -0.310395
O70   O     O_R   0.684288 0.782143 0.315512 -0.275832
N10   N     N_R   0.343909 0.827608 0.634977 0.079497
O71   O     O_R   0.391210 0.790459 0.613904 -0.329699
O72   O     O_R   0.332033 0.798918 0.679896 -0.293035
N11   N     N_R   0.167935 0.317092 0.362161 0.073738
O73   O     O_R   0.117305 0.285684 0.378833 -0.333006
O74   O     O_R   0.184992 0.286802 0.318371 -0.325682
N12   N     N_R   0.819455 0.296191 0.645533 0.090984
O75   O     O_R   0.856852 0.228974 0.628201 -0.316941
O76   O     O_R   0.804152 0.290102 0.692377 -0.268408
C177  C     C_3   0.876801 0.894896 0.604767 -0.335779
H41   H     H_    0.905766 0.905089 0.571839 0.121314
H42   H     H_    0.884361 0.962798 0.629226 0.203866
H43   H     H_    0.891015 0.823609 0.622971 0.166626
C178  C     C_3   0.160811 0.035588 0.369067 -0.318441
H44   H     H_    0.146456 0.100628 0.392781 0.185122
H45   H     H_    0.173837 0.067042 0.332448 0.202478
H46   H     H_    0.121960 0.984221 0.364932 0.157118
C179  C     C_3   0.354606 0.503249 0.622666 -0.320377
H47   H     H_    0.371961 0.561734 0.596530 0.166378
H48   H     H_    0.344624 0.545092 0.657795 0.199690
H49   H     H_    0.390253 0.445553 0.628437 0.153339
C180  C     C_3   0.626183 0.419616 0.394164 -0.338323
H50   H     H_    0.598609 0.440728 0.426849 0.130884
H51   H     H_    0.625327 0.487120 0.368925 0.198513
H52   H     H_    0.604903 0.352231 0.376354 0.168180
C181  C     C_3   0.481881 0.874947 0.952114 -0.369299
H53   H     H_    0.443360 0.881737 0.926178 0.188353
H54   H     H_    0.521784 0.845809 0.932566 0.159792
H55   H     H_    0.468733 0.815023 0.978873 0.104265
C182  C     C_3   0.523977 0.887296 0.055964 -0.348187
H56   H     H_    0.558955 0.909804 0.083009 0.194344
H57   H     H_    0.487385 0.849090 0.075599 0.166223
H58   H     H_    0.544828 0.830074 0.031249 0.114364
C183  C     C_3   0.955960 0.389208 0.948313 -0.342170
H59   H     H_    0.924057 0.414020 0.919212 0.193402
H60   H     H_    0.990522 0.339054 0.931993 0.163503
H61   H     H_    0.930096 0.342952 0.974867 0.118247
C184  C     C_3   0.001547 0.377273 0.049860 -0.362214
H62   H     H_    0.039337 0.381094 0.076047 0.210296
H63   H     H_    0.960587 0.352304 0.068973 0.165129
H64   H     H_    0.014630 0.316590 0.022942 0.107171
N13   N     N_R   0.634410 0.922916 0.541400 0.042771
O77   O     O_R   0.600141 0.847330 0.527470 -0.316051
O78   O     O_R   0.610463 0.009496 0.555095 -0.390611
N14   N     N_R   0.369358 0.878537 0.460178 0.047315
O79   O     O_R   0.395406 0.789278 0.459373 -0.295856
O80   O     O_R   0.396100 0.956938 0.480679 -0.362752
N15   N     N_R   0.131936 0.373971 0.538209 0.058446
O81   O     O_R   0.111943 0.280009 0.536993 -0.310110
O82   O     O_R   0.102763 0.447140 0.515318 -0.353791
N16   N     N_R   0.867724 0.408555 0.458733 0.050023
O83   O     O_R   0.895681 0.343748 0.487609 -0.328138
O84   O     O_R   0.897259 0.482004 0.437472 -0.398394
C185  C     C_3   0.652904 0.863961 0.644083 -0.297728
H65   H     H_    0.608860 0.878439 0.626705 0.210788
H66   H     H_    0.652232 0.782293 0.655825 0.192585
H67   H     H_    0.656748 0.915635 0.677124 0.127906
C186  C     C_3   0.350055 0.831953 0.355814 -0.291946
H68   H     H_    0.394843 0.849134 0.370964 0.204111
H69   H     H_    0.345296 0.747769 0.351567 0.210525
H70   H     H_    0.348550 0.868708 0.318659 0.122924
C187  C     C_3   0.150846 0.335738 0.643108 -0.301290
H71   H     H_    0.106105 0.348539 0.626596 0.199665
H72   H     H_    0.156641 0.252059 0.648863 0.214246
H73   H     H_    0.150720 0.376576 0.679457 0.123475
C188  C     C_3   0.847470 0.344074 0.356631 -0.295503
H74   H     H_    0.891682 0.344626 0.375078 0.213696
H75   H     H_    0.842873 0.264087 0.342963 0.192093
H76   H     H_    0.848874 0.398626 0.324949 0.134459
C189  C     C_3   0.802886 0.084646 0.484426 -0.324977
H77   H     H_    0.781048 0.092087 0.521182 0.143345
H78   H     H_    0.850465 0.066890 0.490836 0.192837
H79   H     H_    0.798273 0.160351 0.466212 0.167295
C190  C     C_3   0.144858 0.950760 0.522737 -0.350992
H80   H     H_    0.129589 0.029388 0.513441 0.189523
H81   H     H_    0.145528 0.900834 0.489274 0.116874
H82   H     H_    0.111414 0.917026 0.547375 0.164057
C191  C     C_3   0.272426 0.628667 0.476718 -0.349027
H83   H     H_    0.242166 0.638902 0.508644 0.136572
H84   H     H_    0.318344 0.639201 0.490222 0.203099
H85   H     H_    0.261499 0.689819 0.449683 0.141736
C192  C     C_3   0.719287 0.595379 0.512190 -0.332303
H86   H     H_    0.748406 0.598019 0.479067 0.141396
H87   H     H_    0.672707 0.587300 0.499184 0.191338
H88   H     H_    0.725042 0.670053 0.531887 0.161306
N17   N     N_R   0.844081 0.025348 0.381948 0.093177
O85   O     O_R   0.874762 0.099614 0.401783 -0.347263
O86   O     O_R   0.867672 0.971880 0.346021 -0.314236
N18   N     N_R   0.151457 0.999694 0.626322 0.081423
O87   O     O_R   0.120364 0.076684 0.609772 -0.323301
O88   O     O_R   0.132579 0.948752 0.664501 -0.323280
N19   N     N_R   0.340445 0.540594 0.387254 0.084272
O89   O     O_R   0.374046 0.597055 0.415633 -0.311198
O90   O     O_R   0.365360 0.492095 0.350506 -0.321507
N20   N     N_R   0.663121 0.550022 0.611652 0.092363
O91   O     O_R   0.635359 0.619389 0.584924 -0.330566
O92   O     O_R   0.633744 0.505671 0.647413 -0.309077
C193  C     C_3   0.512644 0.339977 0.861233 -0.369987
H89   H     H_    0.551864 0.373040 0.879337 0.128271
H90   H     H_    0.529297 0.309640 0.825234 0.145875
H91   H     H_    0.478179 0.397884 0.852722 0.151804
C194  C     C_3   0.501340 0.356802 0.140189 -0.364139
H92   H     H_    0.467909 0.408925 0.124893 0.113614
H93   H     H_    0.482013 0.333798 0.176344 0.145080
H94   H     H_    0.543480 0.397708 0.147736 0.172837
C195  C     C_3   0.013697 0.846443 0.859454 -0.354151
H95   H     H_    0.054522 0.881932 0.875399 0.139724
H96   H     H_    0.027259 0.818347 0.822137 0.155021
H97   H     H_    0.977879 0.904085 0.853771 0.153022
C196  C     C_3   0.007879 0.858036 0.134757 -0.372270
H98   H     H_    0.980378 0.914221 0.114465 0.116446
H99   H     H_    0.982486 0.839761 0.168844 0.143649
H100  H     H_    0.050515 0.893855 0.145838 0.170726
C197  C     C_3   0.469853 0.453826 0.948307 -0.402568
H101  H     H_    0.453975 0.512130 0.975100 0.120909
H102  H     H_    0.505821 0.490696 0.927183 0.124152
H103  H     H_    0.430873 0.437043 0.924286 0.135691
C198  C     C_3   0.525182 0.461666 0.046657 -0.397344
H104  H     H_    0.541779 0.513996 0.017817 0.125845
H105  H     H_    0.487928 0.503775 0.064048 0.125996
H106  H     H_    0.563721 0.451392 0.071894 0.150781
C199  C     C_3   0.980138 0.957832 0.950922 -0.398338
H107  H     H_    0.967552 0.012946 0.980672 0.124340
H108  H     H_    0.015253 0.995081 0.928834 0.136564
H109  H     H_    0.939072 0.946303 0.928606 0.139879
C200  C     C_3   0.053483 0.946404 0.041435 -0.393100
H110  H     H_    0.079152 0.981020 0.010722 0.131933
H111  H     H_    0.023928 0.006760 0.056751 0.128550
H112  H     H_    0.086882 0.922075 0.069133 0.137892
C201  C     C_3   0.857820 0.976186 0.128978 -0.372837
H113  H     H_    0.857031 0.012827 0.166837 0.185700
H114  H     H_    0.886594 0.906301 0.133855 0.126488
H115  H     H_    0.878867 0.031926 0.102435 0.124772
C202  C     C_3   0.237295 0.172754 0.904505 -0.388893
H116  H     H_    0.208433 0.171690 0.871138 0.176645
H117  H     H_    0.206993 0.198657 0.934568 0.133960
H118  H     H_    0.275476 0.226182 0.901526 0.134166
C203  C     C_3   0.350303 0.452172 0.129671 -0.380947
H119  H     H_    0.346757 0.459995 0.170451 0.173559
H120  H     H_    0.372709 0.377639 0.124495 0.126062
H121  H     H_    0.377805 0.515524 0.115431 0.130475
C204  C     C_3   0.648972 0.516428 0.869639 -0.357222
H122  H     H_    0.642848 0.480638 0.832346 0.167511
H123  H     H_    0.606551 0.502227 0.887993 0.096420
H124  H     H_    0.654018 0.600614 0.866144 0.147526
C205  C     C_3   0.654284 0.759605 0.964892 -0.406789
H125  H     H_    0.633910 0.709098 0.935670 0.114387
H126  H     H_    0.670285 0.709295 0.995598 0.143287
H127  H     H_    0.617626 0.811819 0.976120 0.125709
C206  C     C_3   0.364171 0.817072 0.040530 -0.404654
H128  H     H_    0.393435 0.788730 0.071066 0.128212
H129  H     H_    0.354910 0.750441 0.015452 0.118482
H130  H     H_    0.387465 0.879006 0.020022 0.156547
C207  C     C_3   0.123177 0.368932 0.949128 -0.405500
H131  H     H_    0.093277 0.354251 0.916113 0.154378
H132  H     H_    0.124360 0.295395 0.970628 0.112750
H133  H     H_    0.102782 0.434897 0.969823 0.156056
C208  C     C_3   0.768414 0.191603 0.015321 -0.403581
H134  H     H_    0.760160 0.121280 0.037697 0.128006
H135  H     H_    0.738795 0.188743 0.982026 0.158550
H136  H     H_    0.815835 0.187887 0.004334 0.123566
C209  C     C_3   0.857581 0.874182 0.032895 -0.389780
H137  H     H_    0.885540 0.827159 0.058088 0.146637
H138  H     H_    0.851033 0.826955 0.998905 0.147744
H139  H     H_    0.881784 0.945136 0.023329 0.120588
C210  C     C_3   0.281340 0.132977 0.003958 -0.378354
H140  H     H_    0.308845 0.195387 0.988378 0.132548
H141  H     H_    0.237346 0.164616 0.014490 0.143504
H142  H     H_    0.304858 0.107030 0.038115 0.156053
C211  C     C_3   0.348707 0.409545 0.023536 -0.399436
H143  H     H_    0.375866 0.351869 0.044132 0.144902
H144  H     H_    0.342937 0.374079 0.986323 0.131801
H145  H     H_    0.373721 0.482957 0.021352 0.122478
C212  C     C_3   0.651274 0.479250 0.980351 -0.385125
H146  H     H_    0.616420 0.525674 0.962453 0.113018
H147  H     H_    0.631593 0.407151 0.994719 0.155198
H148  H     H_    0.664333 0.528699 0.011988 0.129513

loop_
_geom_bond_atom_site_label_1
_geom_bond_atom_site_label_2
_geom_bond_distance
_ccdc_geom_bond_type
C9    C57   1.499778 S    
O4    C12   1.269639 A    
C18   O42   1.266994 A    
O39   C19   1.277162 A    
C18   C106  1.459847 S    
C198  H104  1.103383 S    
C72   C76   1.399006 A    
C46   C54   1.423036 A    
Cr7   O51   1.977070 S    
C182  H56   1.107505 S    
C67   C211  1.520904 S    
C201  H113  1.121951 S    
C210  H142  1.110639 S    
C69   C73   1.409237 A    
C124  H23   1.078362 S    
C145  C149  1.400639 A    
N2    O55   1.307851 A    
C12   C60   1.494071 S    
N18   O88   1.300202 A    
C90   C94   1.379300 A    
O25   C21   1.272975 A    
C209  H139  1.107309 S    
C78   N6    1.437887 S    
C32   C35   1.413504 A    
O21   C9    1.287659 A    
C144  C148  1.410186 A    
C208  H136  1.112414 S    
C141  C169  1.462473 S    
C206  H128  1.113240 S    
C137  C141  1.398640 A    
O44   Cr12  2.054385 S    
C189  H79   1.108044 S    
C82   C86   1.397236 A    
C3    O11   1.271592 A    
C94   H6    1.080027 S    
C4    O12   1.280599 A    
C91   C103  1.400510 A    
C204  H123  1.096241 S    
N3    O58   1.300786 A    
C136  C140  1.398893 A    
C130  C150  1.411685 A    
C17   C105  1.455034 S    
C164  C168  1.410209 A    
C114  H30   1.081919 S    
C187  H73   1.110054 S    
O2    C10   1.294254 A    
C207  H132  1.121916 S    
C119  C120  1.468111 S    
C195  H96   1.110800 S    
O17   Cr9   2.063645 S    
C66   C70   1.403648 A    
N8    O68   1.299106 A    
C65   C209  1.514935 S    
C185  H67   1.114597 S    
O16   Cr8   1.942465 S    
C45   C53   1.433806 A    
C22   C130  1.490328 S    
C188  H76   1.112949 S    
C48   C56   1.418695 A    
O22   C10   1.285422 A    
C202  H118  1.112200 S    
C70   C98   1.465007 S    
C30   C33   1.426509 A    
N12   O75   1.301343 A    
C209  H137  1.107978 S    
O13   C5    1.274800 A    
O28   Cr4   2.055284 S    
O12   Cr8   2.050710 S    
C106  C110  1.404512 A    
C177  H43   1.098295 S    
C167  C171  1.412398 A    
C53   C198  1.521662 S    
O46   Cr10  1.941740 S    
C185  H66   1.111898 S    
N15   O81   1.306030 A    
C142  C170  1.522843 S    
O48   C24   1.282423 A    
C200  H112  1.102165 S    
N14   O79   1.301968 A    
C76   H16   1.075004 S    
C184  H64   1.109901 S    
C116  H32   1.078846 S    
C65   C69   1.422479 A    
N6    O63   1.311315 A    
C209  H138  1.107943 S    
C166  N14   1.431199 S    
C163  C187  1.514424 S    
C192  H86   1.111026 S    
C206  H130  1.114695 S    
C161  C165  1.410696 A    
C186  H70   1.110185 S    
C155  C171  1.397562 A    
C182  H58   1.102813 S    
O31   Cr3   1.929007 S    
C72   C100  1.491736 S    
C181  H55   1.107040 S    
N19   O90   1.300294 A    
C71   C99   1.544252 S    
Cr12  O52   1.976089 S    
C165  N13   1.429660 S    
C17   O41   1.263988 A    
C136  N12   1.443736 S    
N17   O85   1.300584 A    
C19   O43   1.268322 A    
C20   O44   1.262710 A    
C139  H39   1.078438 S    
C110  H18   1.081368 S    
C211  H144  1.106484 S    
C193  H89   1.094344 S    
C92   H12   1.084410 S    
C15   C174  1.496203 S    
O46   C22   1.279727 A    
C81   C97   1.428874 A    
C87   C103  1.395073 A    
C159  C179  1.516108 S    
C198  H106  1.106656 S    
C134  C138  1.401054 A    
C154  H34   1.079031 S    
C203  H119  1.103774 S    
C74   H14   1.083471 S    
C63   C67   1.434478 A    
C121  H22   1.075948 S    
C202  H117  1.112757 S    
C61   C65   1.423448 A    
C16   O36   1.267993 A    
Cr8   O52   1.981093 S    
C178  H44   1.106999 S    
C163  C167  1.419181 A    
C107  C127  1.401896 A    
O27   C23   1.270832 A    
C32   C52   1.415052 A    
C157  C177  1.512436 S    
C194  H92   1.092925 S    
C186  H68   1.108919 S    
O31   C15   1.282805 A    
O16   C8    1.282908 A    
C40   C43   1.412764 A    
O32   C16   1.279995 A    
C111  H19   1.083466 S    
C191  H84   1.103202 S    
C66   C210  1.525231 S    
C131  C135  1.413791 A    
O47   Cr11  1.944389 S    
C197  H101  1.104917 S    
C138  H38   1.067886 S    
C144  C172  1.461598 S    
C41   C194  1.515079 S    
C33   C34   1.407701 A    
C86   H2    1.082608 S    
C199  H107  1.110013 S    
C57   C61   1.428250 A    
C167  N15   1.437754 S    
C85   H1    1.081320 S    
O24   C12   1.287770 A    
O30   C14   1.285379 A    
C88   H4    1.083711 S    
C73   H13   1.065315 S    
C92   C104  1.393105 A    
C51   C52   1.420107 A    
C86   C102  1.401146 A    
O8    Cr4   1.936568 S    
C87   H3    1.084180 S    
C177  H42   1.112192 S    
C153  C169  1.386375 A    
O32   Cr4   1.939870 S    
C112  H20   1.086593 S    
C1    O9    1.276706 A    
C75   C79   1.398209 A    
O11   Cr7   2.060467 S    
N9    O70   1.303631 A    
C118  C122  1.402670 A    
C192  H88   1.112698 S    
C19   C107  1.463986 S    
O27   Cr3   2.065199 S    
O3    Cr3   2.047272 S    
C46   C50   1.425856 A    
O8    C4    1.274673 A    
C128  H27   1.087509 S    
Cr5   O49   1.977070 S    
C10   C58   1.482622 S    
C68   C212  1.517301 S    
C180  H51   1.113849 S    
C162  C166  1.419670 A    
C28   N3    1.437177 S    
C196  H99   1.111387 S    
N10   O72   1.295983 A    
O7    C3    1.268446 A    
C115  C119  1.404918 A    
C183  H60   1.107545 S    
C126  H25   1.083279 S    
C89   H9    1.083152 S    
C106  C126  1.398022 A    
C91   C95   1.400689 A    
C84   C100  1.417628 A    
C124  C128  1.374113 A    
C56   C199  1.519081 S    
C92   C96   1.400816 A    
C85   C101  1.401507 A    
C2    O10   1.271814 A    
C193  H91   1.105473 S    
C4    C101  1.477074 S    
C201  H114  1.124593 S    
C130  C134  1.414474 A    
C149  N17   1.448303 S    
C203  H121  1.105561 S    
C83   C87   1.414673 A    
O5    C1    1.268608 A    
N5    O61   1.299794 A    
C59   C63   1.410747 A    
O3    C11   1.290999 A    
C68   C72   1.419041 A    
C178  H46   1.108382 S    
C212  H146  1.100076 S    
C194  H94   1.107526 S    
N16   O84   1.304303 A    
C156  H36   1.086997 S    
Cr1   O49   1.980063 S    
C5    C38   1.494820 S    
Cr3   O51   1.980063 S    
N15   O82   1.310579 A    
C197  H103  1.108149 S    
N11   O74   1.300114 A    
C6    O18   1.266253 A    
C161  C173  1.430670 A    
C48   C52   1.429135 A    
C163  C175  1.429705 A    
C190  H81   1.107423 S    
N20   O91   1.312474 A    
O26   Cr2   2.055284 S    
C207  H133  1.121033 S    
C37   C42   1.392997 A    
C83   C207  1.505731 S    
C41   C45   1.440888 A    
C25   N2    1.439173 S    
O29   C13   1.273957 A    
O28   C24   1.265767 A    
C89   C101  1.391408 A    
O14   C6    1.288144 A    
C43   C47   1.427326 A    
C1    C104  1.463518 S    
C8    O20   1.271761 A    
C143  C147  1.411195 A    
C105  C109  1.402456 A    
C132  C152  1.419593 A    
N1    O54   1.294705 A    
C151  N19   1.444807 S    
O40   Cr8   1.932260 S    
C141  C145  1.414902 A    
C108  C112  1.405035 A    
C8    C39   1.485123 S    
N2    O56   1.305359 A    
C166  C170  1.420650 A    
C42   C193  1.506313 S    
O41   Cr9   2.049612 S    
C53   C54   1.416230 A    
C158  C178  1.507703 S    
C114  C118  1.403430 A    
C113  H29   1.082304 S    
C208  H135  1.113083 S    
O33   Cr5   2.054814 S    
C36   C184  1.520134 S    
C153  H33   1.085984 S    
C25   C29   1.407212 A    
C117  C118  1.471722 S    
C111  C115  1.398942 A    
C189  H78   1.109364 S    
C131  C151  1.406762 A    
C109  C113  1.401518 A    
C20   C108  1.452576 S    
C204  H122  1.111080 S    
C161  C185  1.522649 S    
C121  C125  1.368053 A    
C135  C139  1.401980 A    
C168  N16   1.432756 S    
Cr9   O49   1.980193 S    
C187  H72   1.109511 S    
C154  C158  1.396386 A    
C13   C176  1.471349 S    
Cr11  O51   1.980193 S    
O26   C22   1.278282 A    
C81   C205  1.507266 S    
C195  H95   1.113065 S    
O20   Cr12  2.061630 S    
C186  H69   1.107760 S    
C206  H129  1.115494 S    
C79   N7    1.433679 S    
C27   N4    1.437571 S    
C82   C98   1.406871 A    
C127  H28   1.084625 S    
C146  C150  1.414667 A    
C6    C37   1.488787 S    
C150  N18   1.439086 S    
C112  C116  1.398959 A    
C188  H75   1.108181 S    
O38   C18   1.274436 A    
C199  H109  1.109519 S    
C62   C66   1.399304 A    
N12   O76   1.310964 A    
C212  H148  1.102838 S    
N1    O53   1.304859 A    
C38   C41   1.413281 A    
N4    O59   1.308109 A    
C138  C142  1.409900 A    
C205  H126  1.114164 S    
C5    O17   1.283291 A    
C35   C183  1.515779 S    
C33   C181  1.523686 S    
C156  C172  1.392144 A    
C62   C202  1.488925 S    
C157  C173  1.424499 A    
C200  H111  1.109262 S    
N14   O80   1.304969 A    
O6    Cr2   1.936568 S    
C184  H63   1.110593 S    
C60   C64   1.427932 A    
N6    O64   1.305922 A    
O42   Cr10  2.054385 S    
O18   Cr10  2.061630 S    
C140  H40   1.081914 S    
C26   N1    1.445845 S    
C119  C123  1.400897 A    
C198  H105  1.107403 S    
O34   Cr6   2.060012 S    
C182  H57   1.104003 S    
C91   H11   1.080829 S    
C26   C30   1.417416 A    
C160  C180  1.517673 S    
C181  H54   1.110557 S    
N13   O77   1.304926 A    
O24   Cr12  1.937089 S    
O30   Cr2   1.939870 S    
O1    C9    1.277629 A    
O48   Cr12  1.941740 S    
C84   C88   1.393646 A    
C123  H24   1.082443 S    
N18   O87   1.301052 A    
C154  C170  1.399467 A    
C74   C78   1.398034 A    
O37   C17   1.278020 A    
C31   C36   1.425278 A    
C15   O35   1.275328 A    
C55   C200  1.513939 S    
Cr10  O50   1.976089 S    
C129  C133  1.415031 A    
O40   C20   1.276950 A    
O43   Cr11  2.049612 S    
C164  C176  1.433020 A    
O37   Cr5   1.940433 S    
N7    O65   1.303887 A    
O21   Cr9   1.930956 S    
C211  H143  1.115137 S    
C57   C77   1.411912 A    
O39   Cr7   1.940433 S    
C181  H53   1.113243 S    
C77   N5    1.443789 S    
C7    C40   1.496163 S    
C13   O33   1.269935 A    
C204  H124  1.107829 S    
O13   Cr5   1.938509 S    
C143  C171  1.487459 S    
C29   C49   1.421420 A    
C152  N20   1.451449 S    
O35   Cr7   2.054814 S    
C135  N11   1.435969 S    
C82   C206  1.496664 S    
C147  C151  1.393915 A    
C90   H10   1.080666 S    
C147  C191  1.508663 S    
O23   C11   1.275763 A    
C164  C188  1.523642 S    
C210  H141  1.111469 S    
C88   C104  1.404669 A    
C93   C97   1.416479 A    
C132  C136  1.416907 A    
C49   C50   1.421511 A    
C80   N8    1.443092 S    
C146  C190  1.515509 S    
C73   C77   1.396515 A    
C108  C128  1.404715 A    
C191  H83   1.107747 S    
C139  C143  1.408007 A    
C76   C80   1.396769 A    
C155  H35   1.081625 S    
C21   C129  1.470278 S    
O6    C2    1.292200 A    
C55   C56   1.405255 A    
C71   C75   1.415788 A    
O1    Cr1   2.047272 S    
O19   Cr11  2.063645 S    
C109  H17   1.082890 S    
O45   C21   1.279461 A    
C11   C59   1.504645 S    
O47   C23   1.283262 A    
C122  H21   1.078844 S    
C89   C93   1.394689 A    
C179  H47   1.113120 S    
C162  C174  1.422354 A    
C44   C48   1.430204 A    
C64   C204  1.519430 S    
N9    O69   1.301879 A    
C24   C132  1.468828 S    
C192  H87   1.109522 S    
C90   C102  1.390584 A    
C83   C99   1.441930 A    
O36   Cr8   2.060012 S    
C81   C85   1.400335 A    
N19   O89   1.298100 A    
C93   H5    1.076119 S    
O38   Cr6   1.932260 S    
N11   O73   1.297658 A    
C162  C186  1.513287 S    
O22   Cr10  1.937089 S    
C14   C175  1.487302 S    
C25   C38   1.391692 A    
C205  H127  1.111857 S    
C180  H50   1.113119 S    
O15   C7    1.277451 A    
C28   C32   1.403806 A    
C27   C40   1.403377 A    
C116  C120  1.406792 A    
C196  H98   1.102304 S    
C30   C50   1.430642 A    
C145  C189  1.515893 S    
C133  C137  1.396215 A    
C159  C175  1.420118 A    
C183  H59   1.107648 S    
C165  C169  1.402237 A    
C160  C176  1.424512 A    
C177  H41   1.112745 S    
C47   C55   1.425973 A    
C43   C196  1.513956 S    
C211  H145  1.113818 S    
C67   C71   1.441423 A    
C193  H90   1.110978 S    
C34   C182  1.518157 S    
C96   C100  1.415090 A    
C153  C157  1.374422 A    
O23   Cr11  1.930956 S    
C179  H48   1.112054 S    
C203  H120  1.102406 S    
C148  C192  1.516530 S    
C28   C39   1.399412 A    
C155  C159  1.376473 A    
N3    O57   1.299272 A    
C31   C51   1.427396 A    
C2    C103  1.494807 S    
C178  H45   1.110170 S    
C3    C102  1.453826 S    
C117  C121  1.399502 A    
C39   C44   1.403929 A    
C7    O19   1.281548 A    
C194  H93   1.111084 S    
Cr4   O52   1.979931 S    
C54   C197  1.521685 S    
C107  C111  1.408441 A    
O2    Cr2   2.059110 S    
C45   C49   1.433358 A    
C156  C160  1.379602 A    
C191  H85   1.107443 S    
Cr6   O50   1.981093 S    
N13   O78   1.302205 A    
C95   H7    1.082733 S    
C84   C208  1.514495 S    
O5    Cr1   1.946610 S    
C96   H8    1.084701 S    
N16   O83   1.307716 A    
C64   C68   1.423654 A    
C14   O34   1.272965 A    
N20   O92   1.309385 A    
C199  H108  1.107849 S    
C129  C149  1.415903 A    
O9    Cr5   2.060467 S    
C125  H26   1.083895 S    
C105  C125  1.398242 A    
C94   C98   1.401158 A    
O7    Cr3   1.946610 S    
C210  H140  1.109794 S    
O29   Cr1   1.929007 S    
C158  C174  1.419328 A    
C140  C144  1.398902 A    
N17   O86   1.303757 A    
C58   C62   1.416758 A    
C179  H49   1.109929 S    
O15   Cr7   1.938509 S    
C26   C37   1.403187 A    
C207  H131  1.126178 S    
C120  C124  1.402336 A    
C190  H82   1.101360 S    
C134  N10   1.442397 S    
C35   C36   1.403794 A    
C168  C172  1.402053 A    
C148  C152  1.397334 A    
C208  H134  1.115699 S    
Cr2   O50   1.979931 S    
N7    O66   1.298960 A    
C189  H77   1.110940 S    
C63   C203  1.505384 S    
C123  C127  1.378111 A    
O14   Cr6   1.942465 S    
C16   C173  1.472633 S    
C180  H52   1.106569 S    
C95   C99   1.415688 A    
C58   C78   1.426221 A    
C196  H100  1.107786 S    
C75   H15   1.069488 S    
N10   O71   1.302560 A    
C187  H71   1.111656 S    
C42   C46   1.428479 A    
C183  H61   1.107128 S    
O25   Cr1   2.065199 S    
N8    O67   1.300599 A    
C23   C131  1.474651 S    
C69   C97   1.516510 S    
C70   C74   1.401735 A    
C195  H97   1.111909 S    
C137  H37   1.082586 S    
C185  H65   1.110459 S    
C142  C146  1.429335 A    
N5    O62   1.300983 A    
C188  H74   1.110069 S    
C115  H31   1.084057 S    
C202  H116  1.104114 S    
C190  H80   1.109362 S    
C113  C117  1.408971 A    
C212  H147  1.112431 S    
C201  H115  1.128904 S    
N4    O60   1.302248 A    
O10   Cr6   2.050710 S    
C205  H125  1.118733 S    
O4    Cr4   2.059110 S    
C133  N9    1.442526 S    
C110  C114  1.398008 A    
C61   C201  1.513933 S    
C27   C31   1.415914 A    
C197  H102  1.105877 S    
C200  H110  1.110268 S    
C122  C126  1.373949 A    
C59   C79   1.409955 A    
O45   Cr9   1.944389 S    
C60   C80   1.410159 A    
C47   C51   1.422880 A    
C44   C195  1.518388 S    
C184  H62   1.102118 S    
C29   C34   1.415736 A    
