data_mof_unit_pretest_550.cif
_audit_creation_date              2012-12-11T17:16:59-0500
_audit_creation_method            fapswitch 2.2
_symmetry_space_group_name_H-M    P1
_symmetry_Int_Tables_number       1
_space_group_crystal_system       triclinic
_cell_length_a                    7.009733
_cell_length_b                    13.352886
_cell_length_c                    14.704536
_cell_angle_alpha                 99.048134
_cell_angle_beta                  89.479271
_cell_angle_gamma                 90.538238
_cell_volume                      1359.12018815

loop_
_atom_site_label
_atom_site_type_symbol
_atom_type_description
_atom_site_fract_x
_atom_site_fract_y
_atom_site_fract_z
_atom_type_partial_charge
O1    O     O_R   0.354890 0.151580 0.148210 -0.536058
O2    O     O_R   0.645110 0.848420 0.851790 -0.534726
O3    O     O_R   0.682370 0.152980 0.336770 -0.523714
O4    O     O_R   0.317630 0.847020 0.663230 -0.544919
O5    O     O_R   0.854980 0.348430 0.351800 -0.536830
O6    O     O_R   0.145020 0.651570 0.648200 -0.534606
C1    C     C_R   0.513080 0.130332 0.365046 0.698266
C2    C     C_R   0.486826 0.870921 0.635704 0.696288
O7    O     O_R   0.684450 0.139580 0.148000 -0.538478
O8    O     O_R   0.315550 0.860420 0.852000 -0.539319
O9    O     O_R   0.857080 0.334940 0.161680 -0.528866
O10   O     O_R   0.142920 0.665060 0.838320 -0.526185
C3    C     C_R   0.515669 0.112712 0.114306 0.750029
C4    C     C_R   0.484330 0.887286 0.885694 0.753813
O11   O     O_R   0.352790 0.165070 0.338330 -0.527893
O12   O     O_R   0.647210 0.834930 0.661670 -0.522497
O13   O     O_3   0.522170 0.314120 0.254710 -0.365678
O14   O     O_3   0.477830 0.685880 0.745290 -0.360104
V1    V     V_3+5 0.796120 0.238110 0.249130 1.514224
V2    V     V_3+5 0.203880 0.761890 0.750870 1.476656
O15   O     O_R   0.186930 0.347040 0.163240 -0.529933
O16   O     O_R   0.813070 0.652960 0.836760 -0.528111
C5    C     C_R   0.019651 0.366246 0.131749 0.723203
C6    C     C_R   0.980345 0.633783 0.868271 0.730399
O17   O     O_R   0.184850 0.360440 0.352010 -0.540494
O18   O     O_R   0.815150 0.639560 0.647990 -0.538277
C7    C     C_R   0.015829 0.387200 0.385777 0.739898
C8    C     C_R   0.984170 0.612806 0.614220 0.744720
V3    V     V_3+5 0.296410 0.261900 0.250880 1.507983
V4    V     V_3+5 0.703590 0.738100 0.749120 1.500602
O19   O     O_3   0.020490 0.185890 0.245290 -0.357500
O20   O     O_3   0.979510 0.814110 0.754710 -0.372976
C9    C     C_1   0.005139 0.466873 0.466281 -0.176424
C10   C     C_1   0.994861 0.533134 0.533715 -0.177461
C11   C     C_3   0.169739 0.543269 0.990875 0.244179
C12   C     C_3   0.830249 0.456798 0.009174 0.243763
C13   C     C_3   0.054966 0.549637 0.081738 -0.210521
C14   C     C_3   0.945020 0.450428 0.918312 -0.206136
H1    H     H_    0.101905 0.590229 0.149701 0.146904
H2    H     H_    0.898071 0.409842 0.850349 0.150866
C15   C     C_3   0.012163 0.435172 0.059603 -0.080002
C16   C     C_3   0.987826 0.564890 0.940443 -0.082364
C17   C     C_3   0.127912 0.427708 0.969054 -0.149471
C18   C     C_3   0.872077 0.572360 0.030993 -0.152584
H3    H     H_    0.217473 0.364022 0.936885 0.165472
H4    H     H_    0.782513 0.636046 0.063159 0.162641
C19   C     C_3   0.336793 0.992073 0.454539 0.071108
C20   C     C_3   0.661526 0.011445 0.546841 0.078241
C21   C     C_3   0.475434 0.904452 0.461508 -0.195057
C22   C     C_3   0.522762 0.098793 0.539693 -0.179615
H5    H     H_    0.455139 0.824093 0.429470 0.146802
H6    H     H_    0.542837 0.179274 0.571438 0.146269
C23   C     C_3   0.494304 0.942654 0.565887 -0.103130
C24   C     C_3   0.504390 0.060368 0.435668 -0.096157
C25   C     C_3   0.352907 0.029665 0.559038 -0.177829
C26   C     C_3   0.645453 0.973645 0.442441 -0.151210
H7    H     H_    0.240701 0.060638 0.608251 0.163204
H8    H     H_    0.758633 0.946959 0.392290 0.154836
C27   C     C_1   0.505114 0.033098 0.033743 -0.163565
C28   C     C_1   0.494884 0.966899 0.966258 -0.164032
I1    I     I_    0.418299 0.635022 0.990285 -0.427236
I2    I     I_    0.581651 0.365085 0.009788 -0.423286
C29   C     C_2   0.160006 0.980041 0.398107 0.738594
O21   O     O_2   0.052936 0.051899 0.399534 -0.555037
O22   O     O_R   0.123704 0.888129 0.340850 -0.673307
H9    H     H_    0.010506 0.891403 0.299115 0.277684
C30   C     C_2   0.837966 0.025509 0.603140 0.729833
O23   O     O_2   0.879718 0.109325 0.644767 -0.572496
O24   O     O_R   0.949033 0.941653 0.611384 -0.650892
H10   H     H_    0.040974 0.957286 0.664342 0.298502

loop_
_geom_bond_atom_site_label_1
_geom_bond_atom_site_label_2
_ccdc_geom_bond_type
V4    O20   S    
C29   O22   S    
O13   V3    S    
O4    C2    A    
V1    O19   S    
C19   C21   S    
C7    C9    S    
O9    V1    S    
C22   C24   S    
C11   C13   S    
C14   C16   S    
O3    C1    A    
C19   C29   S    
O12   V4    S    
C6    C16   S    
O9    C5    A    
C11   C16   S    
O7    C3    A    
O5    C7    A    
O7    V1    S    
O6    C8    A    
O8    V2    S    
C21   H5    S    
C22   H6    S    
O3    V1    S    
O14   V4    S    
C11   C17   S    
C20   C22   S    
C8    C10   S    
C27   C28   T    
C2    O12   A    
C15   C17   S    
C12   C15   S    
C16   C18   S    
C12   I2    S    
C18   H4    S    
O11   V3    S    
C23   C25   S    
O15   C5    A    
O17   V3    S    
C20   C23   S    
C24   C26   S    
C30   O23   D    
O8    C4    A    
O15   V3    S    
C30   O24   S    
O10   V2    S    
O1    V3    S    
C9    C10   T    
C11   I1    S    
C17   H3    S    
C19   C24   S    
C3    C27   S    
O18   V4    S    
C25   H7    S    
O16   C6    A    
C12   C18   S    
O1    C3    A    
C4    C28   S    
C19   C25   S    
V2    O20   S    
C20   C26   S    
O16   V4    S    
C2    C23   S    
O5    V1    S    
O17   C7    A    
C21   C26   S    
O6    V2    S    
O10   C6    A    
O18   C8    A    
C22   C25   S    
C5    C15   S    
O2    V4    S    
C13   C18   S    
C12   C14   S    
C14   C17   S    
V3    O19   S    
C14   H2    S    
C21   C23   S    
C1    O11   A    
O13   V1    S    
C26   H8    S    
O14   V2    S    
C20   C30   S    
C13   C15   S    
O24   H10   S    
O2    C4    A    
C29   O21   D    
O4    V2    S    
C13   H1    S    
O22   H9    S    
C1    C24   S    
