data_mof_unit_pretest_243.cif
_audit_creation_date              2012-12-10T17:31:05-0500
_audit_creation_method            fapswitch 2.2
_symmetry_space_group_name_H-M    P1
_symmetry_Int_Tables_number       1
_space_group_crystal_system       triclinic
_cell_length_a                    12.083542
_cell_length_b                    12.895797
_cell_length_c                    15.617159
_cell_angle_alpha                 85.763326
_cell_angle_beta                  116.632981
_cell_angle_gamma                 92.319021
_cell_volume                      2169.34442407

loop_
_atom_site_label
_atom_site_type_symbol
_atom_type_description
_atom_site_fract_x
_atom_site_fract_y
_atom_site_fract_z
_atom_type_partial_charge
C1    C     C_R   0.476164 0.300086 0.494737 0.895319
C2    C     C_R   0.667043 0.965761 0.555934 -0.238881
C3    C     C_R   0.340305 0.142065 0.444077 -0.014037
C4    C     C_R   0.659661 0.857966 0.555785 -0.014057
C5    C     C_R   0.566266 0.130372 0.520019 -0.257103
C6    C     C_R   0.433694 0.869641 0.479881 -0.257104
C7    C     C_R   0.558617 0.024147 0.518706 0.161117
C8    C     C_R   0.441334 0.975872 0.481165 0.161129
C9    C     C_R   0.993683 0.595574 0.403772 -0.133320
C10   C     C_R   0.006328 0.404467 0.596245 -0.133314
C11   C     C_R   0.116642 0.588338 0.414957 0.242161
C12   C     C_R   0.523827 0.699918 0.505242 0.895308
C13   C     C_R   0.883367 0.411675 0.585047 0.242253
C14   C     C_R   0.165331 0.459584 0.541999 -0.063941
C15   C     C_R   0.834674 0.540437 0.458017 -0.064040
C16   C     C_R   0.577576 0.496575 0.680504 0.875155
C17   C     C_R   0.422424 0.503414 0.319497 0.875143
C18   C     C_R   0.043553 0.465831 0.535170 -0.024753
C19   C     C_R   0.956445 0.534181 0.464828 -0.024724
C20   C     C_R   0.625741 0.488510 0.784900 -0.074137
C21   C     C_R   0.374254 0.511437 0.215100 -0.074103
C22   C     C_R   0.752635 0.396031 0.935516 -0.155540
C23   C     C_R   0.589344 0.392634 0.087584 -0.272095
C24   C     C_R   0.247278 0.603818 0.064446 -0.155443
C25   C     C_R   0.732744 0.432746 0.843817 -0.189635
C26   C     C_R   0.267195 0.567126 0.156158 -0.189666
C27   C     C_R   0.551634 0.523747 0.823793 -0.240979
C28   C     C_R   0.448382 0.476217 0.176217 -0.241063
C29   C     C_R   0.573141 0.492458 0.917754 0.085069
C30   C     C_R   0.426831 0.507462 0.082238 0.084646
C31   C     C_R   0.668167 0.419069 0.970437 0.113095
C32   C     C_R   0.331768 0.580813 0.029537 0.112974
C33   C     C_R   0.495291 0.524857 0.956593 0.006222
C34   C     C_R   0.410602 0.607274 0.912399 -0.272051
C35   C     C_R   0.504675 0.475061 0.043396 0.005816
C36   C     C_R   0.903607 0.666230 0.327053 0.133169
C37   C     C_R   0.904350 0.772809 0.340315 -0.135657
C38   C     C_R   0.816745 0.838546 0.269065 -0.118868
C39   C     C_R   0.728028 0.798329 0.184333 -0.080893
C40   C     C_R   0.726872 0.692340 0.170668 -0.117211
C41   C     C_R   0.814149 0.626242 0.241785 -0.147901
C42   C     C_R   0.096426 0.333911 0.673032 0.133067
C43   C     C_R   0.185239 0.373906 0.758550 -0.147483
C44   C     C_R   0.272478 0.307895 0.829784 -0.117193
C45   C     C_R   0.671572 0.366109 0.053122 0.111954
C46   C     C_R   0.271956 0.201996 0.815966 -0.080780
C47   C     C_R   0.183889 0.161780 0.730973 -0.118837
C48   C     C_R   0.096286 0.227425 0.659626 -0.135739
C49   C     C_R   0.776018 0.797487 0.601146 0.142036
C50   C     C_R   0.862204 0.807773 0.563531 -0.159086
C51   C     C_R   0.966037 0.743594 0.600667 -0.123465
C52   C     C_R   0.983817 0.668425 0.674685 -0.070367
C53   C     C_R   0.900566 0.659807 0.714458 -0.079229
C54   C     C_R   0.797761 0.724925 0.678730 -0.085387
C55   C     C_R   0.223974 0.202580 0.398652 0.142105
C56   C     C_R   0.328353 0.633774 0.946850 0.111708
C57   C     C_R   0.202366 0.275169 0.321109 -0.085559
C58   C     C_R   0.099610 0.340349 0.285345 -0.079129
C59   C     C_R   0.016281 0.331777 0.325046 -0.070265
C60   C     C_R   0.033923 0.256580 0.399017 -0.123525
C61   C     C_R   0.137699 0.192329 0.436183 -0.159124
C62   C     C_R   0.540881 0.810444 0.514507 -0.112137
C63   C     C_R   0.459090 0.189572 0.485411 -0.112172
C64   C     C_R   0.332908 0.034268 0.443917 -0.238928
H1    H     H_    0.529539 0.432369 0.223793 0.152800
H2    H     H_    0.656840 0.166613 0.549344 0.192721
H3    H     H_    0.242891 0.996195 0.413238 0.155060
H4    H     H_    0.757057 0.003840 0.586589 0.155132
H5    H     H_    0.767617 0.594137 0.405982 0.161258
H6    H     H_    0.232396 0.405913 0.594070 0.161220
H7    H     H_    0.972870 0.804905 0.405419 0.123643
H8    H     H_    0.817653 0.920663 0.279535 0.149522
H9    H     H_    0.660237 0.849290 0.129227 0.151522
H10   H     H_    0.658256 0.661539 0.104997 0.153388
H11   H     H_    0.811698 0.544135 0.230690 0.134264
H12   H     H_    0.470525 0.567650 0.776229 0.152784
H13   H     H_    0.187186 0.455942 0.769772 0.134224
H14   H     H_    0.340557 0.338690 0.895671 0.153279
H15   H     H_    0.339725 0.151100 0.871157 0.151493
H16   H     H_    0.183466 0.079731 0.720384 0.149395
H17   H     H_    0.028238 0.195323 0.594337 0.123544
H18   H     H_    0.847274 0.863423 0.504016 0.126428
H19   H     H_    0.031892 0.750769 0.571205 0.133337
H20   H     H_    0.062945 0.617583 0.701896 0.135825
H21   H     H_    0.915194 0.602157 0.772450 0.138047
H22   H     H_    0.732738 0.716398 0.709087 0.103049
H23   H     H_    0.204074 0.589177 0.182757 0.188373
H24   H     H_    0.267458 0.283671 0.290815 0.103003
H25   H     H_    0.085086 0.398018 0.227387 0.138028
H26   H     H_    0.937198 0.382676 0.297812 0.135860
H27   H     H_    0.967999 0.249439 0.428417 0.133378
H28   H     H_    0.152524 0.136657 0.495663 0.126239
H29   H     H_    0.795836 0.410658 0.817203 0.188394
H30   H     H_    0.831461 0.346483 0.976768 0.181395
H31   H     H_    0.168411 0.653320 0.023173 0.181371
H32   H     H_    0.590707 0.344391 0.147428 0.175343
H33   H     H_    0.409228 0.655523 0.852557 0.175354
H34   H     H_    0.343123 0.833393 0.450574 0.192671
I1    I     I_    0.780579 0.231272 0.119407 -0.450301
I2    I     I_    0.219323 0.768596 0.880570 -0.450215
I3    I     I_    0.835221 0.311986 0.677845 -0.409582
I4    I     I_    0.164796 0.687939 0.322108 -0.409677
N1    N     N_R   0.799120 0.480200 0.517090 -0.113399
N2    N     N_R   0.200880 0.519800 0.482910 -0.113374
O1    O     O_R   0.580150 0.341050 0.504560 -0.598398
O2    O     O_R   0.419850 0.658950 0.495440 -0.598390
O3    O     O_R   0.388090 0.353760 0.493600 -0.610865
O4    O     O_R   0.611910 0.646240 0.506400 -0.610889
O5    O     O_R   0.650890 0.490020 0.640860 -0.595795
O6    O     O_R   0.349110 0.509980 0.359140 -0.595766
O7    O     O_R   0.458830 0.502730 0.629890 -0.619765
O8    O     O_R   0.541170 0.497270 0.370110 -0.619797
Zn1   Zn    Zn3+2 0.628240 0.491510 0.507320 0.972156
Zn2   Zn    Zn3+2 0.371760 0.508490 0.492680 0.972191

loop_
_geom_bond_atom_site_label_1
_geom_bond_atom_site_label_2
_ccdc_geom_bond_type
C12   O2    A    
C21   C26   A    
C34   C56   A    
C23   C45   A    
C4    C62   A    
C27   C29   A    
C14   H6    S    
C14   C18   A    
C2    C7    A    
C17   O6    A    
C7    C8    A    
C53   C54   A    
C23   H32   S    
C25   H29   S    
C30   C35   A    
O2    Zn2   S    
C6    H34   S    
O1    Zn1   S    
C36   C37   A    
N1    Zn1   S    
C24   C26   A    
C2    H4    S    
C46   H15   S    
C10   C42   S    
C20   C25   A    
C49   C54   A    
C29   C33   A    
C34   H33   S    
C48   H17   S    
C5    C63   A    
C18   C19   A    
C52   H20   S    
C15   C19   A    
C3    C55   S    
C9    C19   A    
C26   H23   S    
C22   C25   A    
C9    C36   S    
C11   N2    A    
C13   N1    A    
O6    Zn2   S    
C61   H28   S    
O5    Zn1   S    
C59   C60   A    
C22   H30   S    
C36   C41   A    
C54   H22   S    
C47   H16   S    
C1    C63   S    
O8    Zn1   S    
C44   C46   A    
C16   O5    A    
C33   C34   A    
C15   H5    S    
C38   H8    S    
C22   C31   A    
C51   C52   A    
C64   H3    S    
C44   H14   S    
C45   I1    S    
C24   H31   S    
C39   C40   A    
C5    C7    A    
C6    C8    A    
O7    Zn2   S    
C58   C59   A    
C3    C64   A    
C17   C21   S    
C60   C61   A    
C59   H26   S    
O4    Zn1   S    
C2    C4    A    
C43   C44   A    
C24   C32   A    
O3    Zn2   S    
C37   C38   A    
C41   H11   S    
C12   C62   S    
C14   N2    A    
C47   C48   A    
C16   C20   S    
C50   C51   A    
C42   C48   A    
C9    C11   A    
C1    O3    A    
N2    Zn2   S    
C40   C41   A    
C21   C28   A    
C8    C64   A    
C23   C35   A    
C37   H7    S    
C42   C43   A    
C56   I2    S    
C13   I3    S    
C27   H12   S    
C17   O8    A    
C51   H19   S    
C52   C53   A    
C50   H18   S    
C12   O4    A    
C60   H27   S    
C46   C47   A    
C5    H2    S    
C10   C13   A    
C20   C27   A    
C3    C63   A    
C43   H13   S    
C57   H24   S    
C4    C49   S    
C6    C62   A    
C55   C57   A    
C28   H1    S    
C29   C31   A    
C30   C32   A    
C57   C58   A    
C38   C39   A    
C10   C18   A    
C55   C61   A    
C28   C30   A    
C33   C35   A    
C40   H10   S    
C11   I4    S    
C39   H9    S    
C58   H25   S    
C49   C50   A    
C31   C45   A    
C53   H21   S    
C15   N1    A    
C32   C56   A    
C16   O7    A    
C1    O1    A    
