data_mof_unit_pretest_758.cif
_audit_creation_date              2012-12-10T19:26:39-0500
_audit_creation_method            fapswitch 2.2
_symmetry_space_group_name_H-M    P1
_symmetry_Int_Tables_number       1
_space_group_crystal_system       triclinic
_cell_length_a                    19.213789
_cell_length_b                    10.473042
_cell_length_c                    9.791429
_cell_angle_alpha                 89.347352
_cell_angle_beta                  88.486944
_cell_angle_gamma                 91.335897
_cell_volume                      1968.9336934

loop_
_atom_site_label
_atom_site_type_symbol
_atom_type_description
_atom_site_fract_x
_atom_site_fract_y
_atom_site_fract_z
_atom_type_partial_charge
C1    C     C_R   0.501326 0.257889 0.500446 0.869797
C2    C     C_R   0.498676 0.742111 0.499554 0.869810
C3    C     C_3   0.540834 0.039097 0.599939 0.065671
C4    C     C_3   0.459171 0.960904 0.400058 0.065669
C5    C     C_3   0.565129 0.957896 0.478582 -0.242332
C6    C     C_3   0.434876 0.042105 0.521414 -0.242348
C7    C     C_3   0.498174 0.877048 0.499075 -0.012160
C8    C     C_3   0.501830 0.122952 0.500923 -0.012164
C9    C     C_3   0.474199 0.956027 0.621817 -0.224214
C10   C     C_3   0.525805 0.043976 0.378181 -0.224215
C11   C     C_3   0.503912 0.384990 0.050298 -0.123086
C12   C     C_3   0.496088 0.615011 0.949703 -0.123078
C13   C     C_3   0.556185 0.450479 0.948017 -0.132934
C14   C     C_3   0.443815 0.549521 0.051984 -0.132910
C15   C     C_3   0.447940 0.434917 0.957156 0.102624
C16   C     C_3   0.552060 0.565083 0.042844 0.102622
C17   C     C_R   0.365704 0.499479 0.501573 0.860752
C18   C     C_R   0.634295 0.500517 0.498427 0.860745
C19   C     C_R   0.253388 0.505743 0.629879 -0.235472
C20   C     C_R   0.746608 0.494164 0.370135 -0.235474
C21   C     C_R   0.180812 0.497420 0.635668 0.024411
C22   C     C_R   0.819184 0.502478 0.364343 0.024427
C23   C     C_R   0.144903 0.483851 0.512270 0.046803
C24   C     C_R   0.855097 0.516124 0.487733 0.046775
C25   C     C_R   0.181892 0.472237 0.388070 -0.196885
C26   C     C_R   0.818108 0.527820 0.611922 -0.196879
C27   C     C_R   0.253877 0.477657 0.384366 -0.207327
C28   C     C_R   0.746124 0.522398 0.615626 -0.207322
C29   C     C_R   0.289958 0.495536 0.505108 -0.048665
C30   C     C_R   0.710041 0.504450 0.494894 -0.048665
C31   C     C_R   0.930518 0.509710 0.491912 0.265850
C32   C     C_R   0.069483 0.490252 0.508098 0.265859
H1    H     H_    0.281410 0.517613 0.723452 0.166590
H2    H     H_    0.718584 0.482234 0.276571 0.166567
H3    H     H_    0.617897 0.918476 0.464084 0.142402
H4    H     H_    0.382108 0.081527 0.535901 0.142408
H5    H     H_    0.452629 0.914336 0.719048 0.125306
H6    H     H_    0.547372 0.085674 0.280950 0.125319
H7    H     H_    0.602569 0.407943 0.898641 0.144030
H8    H     H_    0.397431 0.592055 0.101366 0.144030
H9    H     H_    0.506719 0.288010 0.096594 0.128014
H10   H     H_    0.493277 0.711990 0.903406 0.127997
N1    N     N_R   0.033674 0.416703 0.419899 -0.192470
N2    N     N_R   0.966327 0.583257 0.580114 -0.192454
N3    N     N_R   0.965132 0.425769 0.412507 -0.166371
N4    N     N_R   0.034869 0.574190 0.587508 -0.166360
N5    N     N_3   0.499950 0.500030 0.863290 -0.089792
N6    N     N_3   0.500050 0.499970 0.136710 -0.089790
O1    O     O_R   0.500000 0.313960 0.616610 -0.623338
O2    O     O_R   0.500000 0.686040 0.383390 -0.623314
O3    O     O_R   0.500030 0.313950 0.383350 -0.623908
O4    O     O_R   0.499970 0.686050 0.616650 -0.623910
O5    O     O_R   0.398120 0.499990 0.616660 -0.616681
O6    O     O_R   0.601880 0.500010 0.383340 -0.616672
O7    O     O_R   0.398150 0.499980 0.383410 -0.618269
O8    O     O_R   0.601850 0.500020 0.616590 -0.618270
Zn1   Zn    Zn3+2 0.499980 0.500010 0.655740 0.947462
Zn2   Zn    Zn3+2 0.500020 0.499990 0.344260 0.947475
C33   C     C_R   0.387612 0.352072 0.914050 0.131420
C34   C     C_R   0.399618 0.234422 0.851605 -0.113708
C35   C     C_R   0.343926 0.150898 0.824818 -0.164652
C36   C     C_R   0.276124 0.182533 0.863345 -0.094669
C37   C     C_R   0.263946 0.297770 0.928829 -0.123811
C38   C     C_R   0.319153 0.382950 0.952905 -0.194150
H11   H     H_    0.452100 0.205396 0.828252 0.147051
H12   H     H_    0.353304 0.059999 0.777604 0.119173
H13   H     H_    0.233219 0.116776 0.844736 0.123536
H14   H     H_    0.211861 0.320304 0.963006 0.159180
H15   H     H_    0.308196 0.471290 0.004494 0.113656
C39   C     C_R   0.612390 0.647906 0.085954 0.131458
C40   C     C_R   0.680843 0.616985 0.047139 -0.194129
C41   C     C_R   0.736060 0.702136 0.071227 -0.123826
C42   C     C_R   0.723897 0.817381 0.136694 -0.094700
C43   C     C_R   0.656102 0.849054 0.175188 -0.164661
C44   C     C_R   0.600399 0.765567 0.148374 -0.113711
H16   H     H_    0.691787 0.528631 0.995575 0.113665
H17   H     H_    0.788139 0.679570 0.037076 0.159156
H18   H     H_    0.766811 0.883113 0.155320 0.123535
H19   H     H_    0.646740 0.939953 0.222401 0.119165
H20   H     H_    0.547922 0.794629 0.171693 0.147002
C45   C     C_R   0.144922 0.493820 0.771886 0.133108
C46   C     C_R   0.160803 0.586232 0.870177 -0.160417
C47   C     C_R   0.130188 0.577796 0.001187 -0.176484
C48   C     C_R   0.083841 0.476974 0.035251 -0.112630
C49   C     C_R   0.067816 0.384618 0.938498 -0.149636
C50   C     C_R   0.098129 0.392781 0.807328 -0.163479
H21   H     H_    0.197031 0.664389 0.845515 0.116055
H22   H     H_    0.142603 0.649117 0.076476 0.130392
H23   H     H_    0.059811 0.470819 0.136300 0.160429
H24   H     H_    0.031982 0.306509 0.965296 0.145306
H25   H     H_    0.086279 0.318914 0.734434 0.132303
C51   C     C_R   0.855070 0.505973 0.228120 0.133118
C52   C     C_R   0.901868 0.606977 0.192583 -0.163506
C53   C     C_R   0.932166 0.615048 0.061396 -0.149595
C54   C     C_R   0.916125 0.522630 0.964723 -0.112649
C55   C     C_R   0.869775 0.421839 0.998883 -0.176435
C56   C     C_R   0.839173 0.413497 0.129908 -0.160436
H26   H     H_    0.913728 0.680891 0.265412 0.132297
H27   H     H_    0.968000 0.693136 0.034522 0.145333
H28   H     H_    0.940143 0.528713 0.863662 0.160382
H29   H     H_    0.857348 0.350468 0.923657 0.130394
H30   H     H_    0.802944 0.335362 0.154644 0.116049
H31   H     H_    0.155073 0.461678 0.293028 0.146216
H32   H     H_    0.844927 0.538441 0.706960 0.146246
H33   H     H_    0.281105 0.468751 0.286743 0.160321
H34   H     H_    0.718896 0.531363 0.713241 0.160344
C57   C     C_R   0.588859 0.088209 0.707491 0.126717
C58   C     C_R   0.574797 0.062625 0.846737 -0.158404
C59   C     C_R   0.619416 0.110625 0.945315 -0.131653
C60   C     C_R   0.678945 0.182314 0.905760 -0.142248
C61   C     C_R   0.693481 0.207584 0.767393 -0.140270
C62   C     C_R   0.648491 0.161239 0.668501 -0.128297
H35   H     H_    0.529190 0.006850 0.879565 0.104155
H36   H     H_    0.607653 0.092744 0.052425 0.110576
H37   H     H_    0.713442 0.219221 0.982314 0.115926
H38   H     H_    0.739496 0.263380 0.736854 0.136151
H39   H     H_    0.660064 0.182236 0.561612 0.107015
C63   C     C_R   0.411152 0.911787 0.292498 0.126764
C64   C     C_R   0.351508 0.838777 0.331483 -0.128337
C65   C     C_R   0.306540 0.792405 0.232573 -0.140262
C66   C     C_R   0.321104 0.817645 0.094189 -0.142220
C67   C     C_R   0.380639 0.889321 0.054643 -0.131665
C68   C     C_R   0.425244 0.937329 0.153241 -0.158364
H40   H     H_    0.339916 0.817805 0.438381 0.107023
H41   H     H_    0.260523 0.736600 0.263107 0.136129
H42   H     H_    0.286628 0.780711 0.017618 0.115917
H43   H     H_    0.392425 0.907170 0.947524 0.110537
H44   H     H_    0.470870 0.993056 0.120419 0.104125

loop_
_geom_bond_atom_site_label_1
_geom_bond_atom_site_label_2
_ccdc_geom_bond_type
C52   C53   A    
C27   C29   A    
C1    C8    S    
C17   C29   S    
C57   C62   A    
C54   C55   A    
C15   N5    S    
C16   N6    S    
C6    C9    S    
C45   C46   A    
C20   C30   A    
C49   C50   A    
O8    Zn1   S    
C33   C38   A    
C41   H17   S    
C36   H13   S    
C19   C21   A    
C24   C26   A    
C50   H25   S    
C4    C7    S    
C40   H16   S    
C27   H33   S    
C46   H21   S    
O1    Zn1   S    
C58   C59   A    
C42   C43   A    
C67   H43   S    
C63   C64   A    
C12   H10   S    
C2    O2    A    
C2    C7    S    
C26   H32   S    
C60   C61   A    
C11   C15   S    
C35   H12   S    
C12   C16   S    
C28   H34   S    
C57   C58   A    
C39   C40   A    
C18   C30   S    
C44   H20   S    
C17   O7    A    
C56   H30   S    
C18   O8    A    
C20   H2    S    
C47   H22   S    
C33   C34   A    
C55   H29   S    
C4    C63   S    
C11   N6    S    
C53   C54   A    
C32   N4    A    
C12   N5    S    
N2    N4    A    
C51   C56   A    
C31   N2    A    
O2    Zn2   S    
C16   C39   S    
C48   C49   A    
C4    C6    S    
C3    C8    S    
C43   C44   A    
C5    C7    S    
O5    Zn1   S    
C54   H28   S    
C25   H31   S    
C14   N6    S    
C3    C57   S    
C64   H40   S    
C34   C35   A    
C58   H35   S    
C36   C37   A    
C3    C9    S    
N5    Zn1   S    
C1    O3    A    
C47   C48   A    
C42   H18   S    
C55   C56   A    
C9    H5    S    
O3    Zn2   S    
C38   H15   S    
C64   C65   A    
N1    N3    A    
C66   C67   A    
C61   H38   S    
C2    O4    A    
C59   H36   S    
C21   C45   S    
C34   H11   S    
C43   H19   S    
C21   C23   A    
C19   H1    S    
C22   C24   A    
O7    Zn2   S    
C48   H23   S    
C20   C22   A    
C4    C10   S    
C19   C29   A    
C17   O5    A    
C65   C66   A    
C13   N5    S    
O6    Zn2   S    
C7    C9    S    
C37   H14   S    
C61   C62   A    
C65   H41   S    
C15   C33   S    
C45   C50   A    
C12   C14   S    
C41   C42   A    
C3    C5    S    
C6    C8    S    
C49   H24   S    
N6    Zn2   S    
C25   C27   A    
C26   C28   A    
C10   H6    S    
C23   C32   S    
C52   H26   S    
C28   C30   A    
C24   C31   S    
C66   H42   S    
C59   C60   A    
C11   C13   S    
C68   H44   S    
C62   H39   S    
C53   H27   S    
C5    H3    S    
C51   C52   A    
C32   N1    A    
C6    H4    S    
C11   H9    S    
C63   C68   A    
C23   C25   A    
C35   C36   A    
C13   H7    S    
O4    Zn1   S    
C18   O6    A    
C14   H8    S    
C37   C38   A    
C5    C10   S    
C40   C41   A    
C8    C10   S    
C46   C47   A    
C31   N3    A    
C13   C16   S    
C39   C44   A    
C22   C51   S    
C14   C15   S    
C67   C68   A    
C1    O1    A    
C60   H37   S    
