data_mof_unit_pretest_1081.cif
_audit_creation_date              2012-12-10T18:31:57-0500
_audit_creation_method            fapswitch 2.2
_symmetry_space_group_name_H-M    P1
_symmetry_Int_Tables_number       1
_space_group_crystal_system       triclinic
_cell_length_a                    10.652249
_cell_length_b                    14.940945
_cell_length_c                    15.369872
_cell_angle_alpha                 80.964284
_cell_angle_beta                  89.555134
_cell_angle_gamma                 104.103871
_cell_volume                      2340.29968913

loop_
_atom_site_label
_atom_site_type_symbol
_atom_type_description
_atom_site_fract_x
_atom_site_fract_y
_atom_site_fract_z
_atom_type_partial_charge
C1    C     C_R   0.480518 0.440904 0.662497 0.872030
C2    C     C_3   0.122207 0.500750 0.498556 0.112158
C3    C     C_3   0.062071 0.464038 0.415815 -0.407728
C4    C     C_3   0.105885 0.601776 0.497486 -0.407909
C5    C     C_R   0.486702 0.404679 0.755762 -0.072089
C6    C     C_R   0.537518 0.596753 0.242663 -0.064665
C7    C     C_R   0.583180 0.311420 0.865641 -0.194715
C8    C     C_R   0.539807 0.328034 0.780883 -0.249851
C9    C     C_R   0.466105 0.459348 0.818079 0.149464
C10   C     C_R   0.534514 0.455223 0.896366 0.083243
C11   C     C_R   0.585155 0.376356 0.922609 0.082941
C12   C     C_R   0.741889 0.500158 0.500674 0.849362
C13   C     C_R   0.555720 0.527187 0.948432 -0.025708
C14   C     C_R   0.594746 0.509056 0.035474 0.035196
C15   C     C_R   0.650594 0.431461 0.059672 0.200438
C16   C     C_R   0.643231 0.365741 0.003219 -0.233472
C17   C     C_R   0.549250 0.619014 0.913712 -0.219410
C18   C     C_R   0.552782 0.686246 0.968004 0.177623
C19   C     C_R   0.559338 0.660251 0.059783 0.150759
C20   C     C_R   0.576085 0.569942 0.093657 0.054165
C21   C     C_R   0.544291 0.720322 0.119045 -0.192843
C22   C     C_R   0.534166 0.688787 0.209609 -0.213197
C23   C     C_R   0.519137 0.559102 0.337187 0.851486
C24   C     C_R   0.557260 0.538198 0.184474 -0.254617
C25   C     C_R   0.682197 0.832333 0.650446 0.094291
C26   C     C_R   0.648588 0.745005 0.622978 -0.055148
C27   C     C_R   0.527244 0.801296 0.507543 0.244239
C28   C     C_R   0.535130 0.883899 0.543519 -0.031159
C29   C     C_R   0.624360 0.903141 0.610094 0.115582
C30   C     C_R   0.461351 0.948872 0.513349 0.050756
C31   C     C_R   0.501393 0.041703 0.530025 0.076054
C32   C     C_R   0.598441 0.062027 0.591254 -0.235973
C33   C     C_R   0.654525 0.992871 0.633213 -0.192493
C34   C     C_R   0.258492 0.500401 0.498612 0.842564
C35   C     C_R   0.343848 0.921101 0.472228 -0.249833
C36   C     C_R   0.280058 0.986190 0.431225 0.197023
C37   C     C_R   0.332076 0.081923 0.434142 0.155066
C38   C     C_R   0.441057 0.109857 0.485833 -0.049101
C39   C     C_R   0.275626 0.150430 0.388618 -0.308739
C40   C     C_R   0.324352 0.243549 0.396375 0.007599
C41   C     C_R   0.485584 0.205641 0.490563 -0.049178
C42   C     C_3   0.907687 0.436314 0.585134 -0.013246
C43   C     C_3   0.052650 0.436419 0.582457 -0.404411
C44   C     C_3   0.918082 0.465602 0.414415 0.055544
C45   C     C_3   0.962845 0.600965 0.501699 -0.446529
C46   C     C_3   0.878933 0.500231 0.499816 0.152488
H1    H     H_    0.153759 0.648393 0.436406 0.172593
H2    H     H_    0.687072 0.307439 0.021149 0.152127
H3    H     H_    0.624020 0.251820 0.884216 0.142413
H4    H     H_    0.565509 0.232629 0.529159 0.127658
H5    H     H_    0.686358 0.687979 0.655242 0.152607
H6    H     H_    0.097643 0.461524 0.642202 0.143851
H7    H     H_    0.628811 0.129562 0.611511 0.138960
H8    H     H_    0.301090 0.847602 0.471781 0.166677
H9    H     H_    0.065895 0.364515 0.583667 0.192824
H10   H     H_    0.860331 0.392799 0.414230 0.172133
H11   H     H_    0.942157 0.652198 0.446481 0.196330
H12   H     H_    0.151813 0.631563 0.554937 0.193271
N1    N     N_R   0.573860 0.731700 0.552730 -0.115338
N2    N     N_R   0.426060 0.268290 0.447230 -0.098425
O1    O     O_R   0.462770 0.383110 0.605620 -0.616409
O2    O     O_R   0.510160 0.531900 0.639510 -0.611408
O3    O     O_R   0.661510 0.425600 0.483070 -0.622589
O4    O     O_R   0.708900 0.574390 0.516960 -0.626152
O5    O     O_R   0.489840 0.468100 0.360490 -0.616425
O6    O     O_R   0.537230 0.616890 0.394380 -0.609469
O7    O     O_R   0.291100 0.425610 0.483040 -0.625170
O8    O     O_R   0.338490 0.574400 0.516930 -0.621190
Zn1   Zn    Zn3+2 0.468350 0.400660 0.477370 0.926316
Zn2   Zn    Zn3+2 0.531650 0.599340 0.522630 0.921265
C47   C     C_3   0.822798 0.335040 0.602623 -0.960984
H13   H     H_    0.829628 0.297827 0.546458 0.249135
H14   H     H_    0.854682 0.295497 0.662160 0.245908
H15   H     H_    0.720347 0.333971 0.616797 0.250549
C48   C     C_3   0.890621 0.523103 0.327475 -0.955545
H16   H     H_    0.917225 0.491762 0.271368 0.250083
H17   H     H_    0.786316 0.522181 0.324353 0.248591
H18   H     H_    0.948900 0.596607 0.318705 0.253665
H19   H     H_    0.117952 0.507122 0.355624 0.171965
H20   H     H_    0.551240 0.465698 0.210169 0.184722
H21   H     H_    0.517137 0.735152 0.252900 0.155183
C49   C     C_3   0.539212 0.781944 0.927323 -0.950176
H22   H     H_    0.449776 0.794962 0.954711 0.243819
H23   H     H_    0.624854 0.836185 0.941300 0.240628
H24   H     H_    0.531508 0.788586 0.854703 0.251217
H25   H     H_    0.552574 0.283407 0.734150 0.158203
C50   C     C_3   0.356526 0.508192 0.805411 -0.927305
H26   H     H_    0.321484 0.522088 0.868948 0.251142
H27   H     H_    0.386190 0.574763 0.758339 0.255279
H28   H     H_    0.272304 0.462218 0.778986 0.227438
H29   H     H_    0.888559 0.468054 0.643305 0.155498
C51   C     C_3   0.739285 0.424930 0.135229 -0.957371
H30   H     H_    0.689227 0.370884 0.190808 0.246471
H31   H     H_    0.774339 0.493452 0.157203 0.255238
H32   H     H_    0.827363 0.405232 0.113856 0.244102
H33   H     H_    0.544520 0.639605 0.843478 0.177119
H34   H     H_    0.535442 0.790680 0.096240 0.151548
H35   H     H_    0.724251 0.011412 0.682258 0.157925
H36   H     H_    0.277867 0.296072 0.364743 0.131254
C52   C     C_3   0.157695 0.951614 0.384608 -0.940221
H37   H     H_    0.172083 0.980733 0.313191 0.241013
H38   H     H_    0.129949 0.874107 0.391077 0.238775
H39   H     H_    0.076195 0.973444 0.413386 0.246418
C53   C     C_3   0.777998 0.847621 0.721670 -0.948480
H40   H     H_    0.808623 0.782883 0.747439 0.244351
H41   H     H_    0.865753 0.902536 0.694659 0.250229
H42   H     H_    0.734286 0.869948 0.777675 0.249328
C54   C     C_3   0.496897 0.796121 0.412958 -0.872278
H43   H     H_    0.408569 0.739880 0.408478 0.248761
H44   H     H_    0.486283 0.862935 0.374774 0.217848
H45   H     H_    0.582360 0.783344 0.380336 0.249415
H46   H     H_    0.192851 0.132973 0.348644 0.158176
H47   H     H_    0.069543 0.390908 0.416168 0.160155
H48   H     H_    0.940319 0.625156 0.563658 0.176700

loop_
_geom_bond_atom_site_label_1
_geom_bond_atom_site_label_2
_ccdc_geom_bond_type
C50   H26   S    
C40   N2    A    
C41   H4    S    
C19   C20   A    
C3    H19   S    
C1    O2    A    
C16   H2    S    
C40   H36   S    
C53   H41   S    
C7    C8    A    
C45   C46   S    
C7    C11   A    
C45   H11   S    
C30   C35   A    
C1    C5    S    
C27   C54   S    
C23   O6    A    
C36   C37   A    
C19   C21   A    
C18   C19   A    
C30   C31   A    
C12   O4    A    
C43   H6    S    
C15   C16   A    
C6    C22   A    
C29   C33   A    
C54   H43   S    
O2    Zn2   S    
C33   H35   S    
C42   C46   S    
C20   C24   A    
C42   C47   S    
C15   C51   S    
C45   H48   S    
C24   H20   S    
O3    Zn1   S    
O4    Zn2   S    
C26   N1    A    
C2    C34   S    
C21   C22   A    
C35   H8    S    
C52   H38   S    
C53   H40   S    
C44   C46   S    
C4    C45   S    
C25   C29   A    
C3    C44   S    
C22   H21   S    
C14   C20   A    
C7    H3    S    
C38   C41   A    
C12   C46   S    
C3    H47   S    
C34   O8    A    
C39   C40   A    
C47   H14   S    
C12   O3    A    
C25   C26   A    
C52   H39   S    
O7    Zn1   S    
C35   C36   A    
C44   C48   S    
C2    C4    S    
C48   H16   S    
C5    C9    A    
C37   C38   A    
C5    C8    A    
C21   H34   S    
C11   C16   A    
C44   H10   S    
C31   C32   A    
C2    C43   S    
C6    C24   A    
C51   H31   S    
C17   C18   A    
C36   C52   S    
C17   H33   S    
C48   H17   S    
C43   H9    S    
C39   H46   S    
C49   H23   S    
C50   H27   S    
C42   C43   S    
C32   H7    S    
C9    C10   A    
O1    Zn1   S    
C28   C29   A    
C41   N2    A    
C10   C13   A    
C1    O1    A    
C34   O7    A    
C47   H15   S    
C54   H45   S    
C25   C53   S    
C49   H24   S    
C31   C38   A    
C13   C17   A    
C32   C33   A    
C23   O5    A    
C28   C30   A    
C2    C3    S    
C47   H13   S    
C37   C39   A    
C27   N1    A    
C26   H5    S    
C9    C50   S    
O6    Zn2   S    
N2    Zn1   S    
O5    Zn1   S    
C6    C23   S    
C51   H30   S    
C18   C49   S    
C54   H44   S    
C8    H25   S    
C51   H32   S    
C48   H18   S    
C10   C11   A    
N1    Zn2   S    
O8    Zn2   S    
C49   H22   S    
C50   H28   S    
C4    H12   S    
C27   C28   A    
C14   C15   A    
C52   H37   S    
C13   C14   A    
C53   H42   S    
C42   H29   S    
C4    H1    S    
