data_mof_unit_pretest_1871.cif
_audit_creation_date              2012-12-10T19:00:37-0500
_audit_creation_method            fapswitch 2.2
_symmetry_space_group_name_H-M    P1
_symmetry_Int_Tables_number       1
_space_group_crystal_system       triclinic
_cell_length_a                    37.098013
_cell_length_b                    30.303686
_cell_length_c                    21.333597
_cell_angle_alpha                 90.123306
_cell_angle_beta                  54.90912
_cell_angle_gamma                 90.019787
_cell_volume                      19624.1244907

loop_
_atom_site_label
_atom_site_type_symbol
_atom_type_description
_atom_site_fract_x
_atom_site_fract_y
_atom_site_fract_z
_atom_type_partial_charge
C1    C     C_R   0.913884 0.500009 0.087253 0.936426
C2    C     C_3   0.962920 0.480065 0.766140 0.355840
C3    C     C_R   0.471125 0.657351 0.568934 0.377105
C4    C     C_R   0.028953 0.156873 0.430601 0.377700
C5    C     C_R   0.971121 0.157348 0.568931 0.377101
C6    C     C_R   0.500000 0.413765 0.499919 0.980394
C7    C     C_R   0.999999 0.913767 0.499919 0.980785
C8    C     C_R   0.972114 0.703371 0.566947 -0.249327
C9    C     C_R   0.028400 0.702685 0.429847 -0.273969
C10   C     C_R   0.472142 0.203354 0.567003 -0.249644
C11   C     C_R   0.528347 0.202683 0.429868 -0.273749
C12   C     C_R   0.970772 0.657331 0.567731 0.438249
C13   C     C_3   0.464824 0.978317 0.304965 0.355375
C14   C     C_R   0.029198 0.656611 0.430010 0.462788
C15   C     C_R   0.470807 0.157316 0.567776 0.438269
C16   C     C_R   0.529152 0.156609 0.430014 0.462634
C17   C     C_R   0.999957 0.634059 0.499184 -0.251756
C18   C     C_R   0.499954 0.134054 0.499201 -0.251674
C19   C     C_R   0.526937 0.702537 0.429329 0.479931
C20   C     C_R   0.472804 0.703085 0.569355 0.477203
C21   C     C_R   0.026943 0.202535 0.429328 0.479930
C22   C     C_R   0.972802 0.203082 0.569353 0.477206
C23   C     C_R   0.000449 0.725659 0.498199 -0.008896
C24   C     C_3   0.462951 0.980012 0.766107 0.355814
C25   C     C_R   0.500433 0.225649 0.498244 -0.008899
C26   C     C_R   0.526406 0.296704 0.516973 0.354754
C27   C     C_R   0.474830 0.296798 0.479364 0.353616
C28   C     C_R   0.026573 0.796714 0.516602 0.354874
C29   C     C_R   0.974700 0.796810 0.479639 0.353725
C30   C     C_R   0.526666 0.342726 0.515960 0.432729
C31   C     C_R   0.474003 0.342791 0.482002 0.434159
C32   C     C_R   0.026825 0.842737 0.515602 0.432700
C33   C     C_R   0.973858 0.842803 0.482324 0.434138
C34   C     C_R   0.500158 0.365724 0.499457 -0.459407
C35   C     C_3   0.001117 0.457547 0.227662 -0.327052
C36   C     C_R   0.000161 0.865730 0.499451 -0.459269
C37   C     C_R   0.499807 0.725803 0.499122 -0.144992
C38   C     C_R   0.999809 0.225800 0.499121 -0.145028
C39   C     C_R   0.963372 0.296215 0.511475 0.314312
C40   C     C_R   0.036982 0.295961 0.484828 0.316399
C41   C     C_R   0.463376 0.796217 0.511458 0.314302
C42   C     C_R   0.536980 0.795963 0.484838 0.316419
C43   C     C_3   0.035749 0.521108 0.194640 0.353603
C44   C     C_3   0.035004 0.519499 0.735846 0.361350
C45   C     C_3   0.535766 0.021077 0.194624 0.353605
C46   C     C_3   0.962771 0.521981 0.807308 -0.312977
C47   C     C_3   0.534979 0.019546 0.735870 0.361264
C48   C     C_3   0.037178 0.479072 0.233678 -0.332559
C49   C     C_3   0.000257 0.541876 0.728663 -0.254640
C50   C     C_3   0.537158 0.979039 0.233698 -0.332510
C51   C     C_3   0.500199 0.041876 0.728723 -0.255128
C52   C     C_3   0.000145 0.499557 0.311133 -0.177611
C53   C     C_3   0.999968 0.499379 0.688815 -0.202953
C54   C     C_3   0.500144 0.999555 0.311135 -0.177630
C55   C     C_3   0.499970 0.999381 0.688813 -0.202836
C56   C     C_3   0.999494 0.541588 0.271406 0.368351
C57   C     C_3   0.501080 0.957545 0.227699 -0.327112
C58   C     C_3   0.035019 0.477566 0.695783 0.344108
C59   C     C_3   0.499528 0.041587 0.271373 0.368334
C60   C     C_3   0.535052 0.977614 0.695748 0.344576
C61   C     C_3   0.730292 0.425037 0.369615 -0.207521
C62   C     C_3   0.270364 0.421884 0.632016 -0.233691
C63   C     C_3   0.230336 0.925228 0.369779 -0.207441
C64   C     C_3   0.770284 0.922021 0.631980 -0.233548
C65   C     C_3   0.637945 0.511257 0.513446 -0.152958
C66   C     C_3   0.361978 0.508366 0.486271 -0.147196
C67   C     C_3   0.137923 0.011456 0.513445 -0.152647
C68   C     C_3   0.462741 0.021925 0.807337 -0.311111
C69   C     C_3   0.861987 0.008503 0.486280 -0.146800
C70   C     C_3   0.732846 0.574607 0.160787 -0.237681
C71   C     C_3   0.266204 0.574980 0.837887 -0.203413
C72   C     C_3   0.232838 0.074561 0.160667 -0.237603
C73   C     C_3   0.766211 0.074949 0.837975 -0.203404
C74   C     C_3   0.937067 0.370067 0.445009 -0.203889
C75   C     C_3   0.066807 0.371330 0.544529 -0.227222
C76   C     C_3   0.437096 0.870077 0.444954 -0.203932
C77   C     C_3   0.566805 0.871348 0.544525 -0.227338
C78   C     C_3   0.899825 0.641176 0.665153 -0.230442
C79   C     C_3   0.000212 0.500109 0.188711 -0.182987
C80   C     C_3   0.099770 0.639992 0.330738 -0.233118
C81   C     C_3   0.399891 0.141155 0.665333 -0.230451
C82   C     C_3   0.599694 0.140018 0.330583 -0.233103
C83   C     C_3   0.594133 0.372466 0.465745 -0.155901
C84   C     C_3   0.406185 0.371892 0.532946 -0.163127
C85   C     C_3   0.094333 0.872512 0.464868 -0.156279
C86   C     C_3   0.905988 0.871920 0.533834 -0.163556
C87   C     C_3   0.001511 0.616467 0.250973 -0.186493
C88   C     C_3   0.101313 0.444422 0.653407 -0.276246
C89   C     C_3   0.501566 0.116465 0.250923 -0.186324
C90   C     C_3   0.998304 0.499702 0.812861 -0.204120
C91   C     C_3   0.601391 0.944556 0.653311 -0.276155
C92   C     C_3   0.896910 0.553473 0.354181 -0.212103
C93   C     C_3   0.998203 0.382943 0.751504 -0.257913
C94   C     C_3   0.396928 0.053509 0.354158 -0.212078
C95   C     C_3   0.498356 0.882937 0.751364 -0.259152
C96   C     C_3   0.875308 0.454429 0.995166 -0.251713
C97   C     C_3   0.125038 0.456686 0.006877 -0.157342
C98   C     C_3   0.375296 0.954228 0.995332 -0.251179
C99   C     C_3   0.625041 0.956631 0.006837 -0.157229
C100  C     C_3   0.500211 0.000109 0.188711 -0.182948
C101  C     C_R   0.086096 0.499927 0.913031 0.943776
C102  C     C_3   0.498306 0.999698 0.812858 -0.204365
C103  C     C_R   0.797121 0.468990 0.166861 0.374372
C104  C     C_R   0.202048 0.467784 0.835191 0.382830
C105  C     C_R   0.297106 0.968986 0.166964 0.374325
C106  C     C_R   0.702053 0.967795 0.835169 0.382717
C107  C     C_R   0.843343 0.469052 0.121058 0.344565
C108  C     C_R   0.156252 0.469097 0.880791 0.432697
C109  C     C_R   0.343328 0.969022 0.121173 0.344465
C110  C     C_R   0.656257 0.969094 0.880764 0.432692
C111  C     C_R   0.866004 0.499972 0.135898 -0.410029
C112  C     C_R   0.413883 0.000010 0.087262 0.936289
C113  C     C_R   0.133925 0.499527 0.864661 -0.462817
C114  C     C_R   0.366002 0.999977 0.135923 -0.410016
C115  C     C_R   0.633924 0.999532 0.864657 -0.462824
C116  C     C_R   0.842681 0.531531 0.195237 0.361685
C117  C     C_R   0.157570 0.529848 0.803744 0.355805
C118  C     C_R   0.342691 0.031585 0.195180 0.361703
C119  C     C_R   0.657563 0.029873 0.803772 0.355759
C120  C     C_R   0.797080 0.533427 0.236954 0.412131
C121  C     C_R   0.203212 0.531035 0.761722 0.458775
C122  C     C_R   0.297092 0.033503 0.236879 0.412162
C123  C     C_R   0.586096 0.999927 0.913029 0.943758
C124  C     C_R   0.703204 0.031077 0.761767 0.458864
C125  C     C_R   0.774473 0.501515 0.223440 -0.101409
C126  C     C_R   0.225609 0.499366 0.776297 -0.168191
C127  C     C_R   0.274472 0.001564 0.223444 -0.101402
C128  C     C_R   0.725608 0.999400 0.776313 -0.168299
C129  C     C_R   0.000229 0.500067 0.121334 0.953810
C130  C     C_R   0.999180 0.499945 0.879297 0.935053
C131  C     C_R   0.500229 0.000067 0.121333 0.953774
C132  C     C_R   0.499181 0.999944 0.879296 0.934968
C133  C     C_R   0.704289 0.486123 0.346863 0.383391
C134  C     C_3   0.963642 0.520217 0.266509 0.348473
C135  C     C_R   0.296038 0.483955 0.653131 0.400286
C136  C     C_R   0.204294 0.986237 0.346907 0.383325
C137  C     C_R   0.796031 0.984030 0.653112 0.400204
C138  C     C_R   0.658421 0.489519 0.395339 0.333794
C139  C     C_R   0.341826 0.487970 0.604627 0.337637
C140  C     C_R   0.158425 0.989612 0.395372 0.333718
C141  C     C_R   0.841819 0.988031 0.604612 0.337570
C142  C     C_R   0.634752 0.502843 0.365067 -0.422742
C143  C     C_R   0.365270 0.502474 0.634765 -0.422776
C144  C     C_R   0.134752 0.002870 0.365072 -0.422864
C145  C     C_3   0.997632 0.457763 0.772468 0.352488
C146  C     C_R   0.865270 0.002491 0.634765 -0.422921
C147  C     C_R   0.657977 0.516729 0.287492 0.270214
C148  C     C_R   0.341849 0.517089 0.712077 0.283327
C149  C     C_R   0.157974 0.016719 0.287479 0.270223
C150  C     C_R   0.841853 0.017081 0.712090 0.283316
C151  C     C_R   0.703839 0.515868 0.241176 0.514478
C152  C     C_R   0.296000 0.515736 0.758326 0.468407
C153  C     C_R   0.203835 0.015869 0.241164 0.514473
C154  C     C_R   0.796004 0.015734 0.758343 0.468407
C155  C     C_R   0.726619 0.500518 0.270997 -0.188657
C156  C     C_3   0.463658 0.020247 0.266492 0.348462
C157  C     C_R   0.273485 0.498975 0.728791 -0.286661
C158  C     C_R   0.226619 0.000578 0.271013 -0.188669
C159  C     C_R   0.773483 0.999012 0.728795 -0.286652
C160  C     C_R   0.000263 0.365472 0.498443 -0.359042
C161  C     C_R   0.500264 0.865473 0.498438 -0.359033
C162  C     C_R   0.999997 0.273759 0.498668 -0.144716
C163  C     C_R   0.499996 0.773761 0.498669 -0.144735
C164  C     C_R   0.500696 0.273606 0.497894 -0.250005
C165  C     C_R   0.000719 0.773617 0.497835 -0.250047
C166  C     C_R   0.999977 0.586133 0.499800 0.985684
C167  C     C_3   0.497693 0.957758 0.772405 0.351159
C168  C     C_R   0.499977 0.086131 0.499803 0.985800
C169  C     C_R   0.964077 0.342472 0.508829 0.337352
C170  C     C_R   0.036745 0.342224 0.486596 0.335646
C171  C     C_R   0.464082 0.842474 0.508808 0.337367
C172  C     C_R   0.536744 0.842226 0.486601 0.335666
C173  C     C_R   0.000004 0.499500 0.378523 0.969926
C174  C     C_R   0.000011 0.499420 0.621481 0.943342
C175  C     C_R   0.500004 0.999499 0.378523 0.969891
C176  C     C_R   0.500011 0.999422 0.621480 0.943371
C177  C     C_R   0.000058 0.413669 0.499481 0.954468
C178  C     C_3   0.964845 0.478288 0.304944 0.355417
C179  C     C_R   0.500058 0.913670 0.499479 0.954423
C180  C     C_R   0.500082 0.633991 0.499950 -0.458935
C181  C     C_R   0.000084 0.133989 0.499948 -0.458925
C182  C     C_R   0.499996 0.586108 0.500053 0.873744
C183  C     C_R   0.999996 0.086108 0.500053 0.873725
C184  C     C_R   0.586417 0.501021 0.413552 0.935371
C185  C     C_R   0.413593 0.500979 0.586419 0.931662
C186  C     C_R   0.086417 0.001027 0.413553 0.935399
C187  C     C_R   0.913593 0.000983 0.586419 0.931721
C188  C     C_R   0.528947 0.656876 0.430601 0.377700
H1    H     H_    0.067329 0.462751 0.221706 0.189534
H2    H     H_    0.933137 0.539463 0.854732 0.178907
H3    H     H_    0.951175 0.743891 0.461400 0.347563
H4    H     H_    0.614979 0.388989 0.480546 0.212489
H5    H     H_    0.592270 0.394565 0.426096 0.121545
H6    H     H_    0.610622 0.340867 0.436486 0.157074
H7    H     H_    0.385026 0.387865 0.518401 0.214107
H8    H     H_    0.407625 0.394183 0.572973 0.120733
H9    H     H_    0.390299 0.340064 0.561653 0.154838
H10   H     H_    0.115288 0.889064 0.479400 0.212238
H11   H     H_    0.092308 0.894599 0.425382 0.121387
H12   H     H_    0.110802 0.840922 0.435530 0.157290
H13   H     H_    0.501203 0.923266 0.209114 0.195587
H14   H     H_    0.884705 0.887912 0.519583 0.213884
H15   H     H_    0.907589 0.894200 0.573699 0.120558
H16   H     H_    0.890139 0.840094 0.562607 0.155045
H17   H     H_    0.975717 0.612336 0.240214 0.184623
H18   H     H_    0.034727 0.617057 0.196043 0.199101
H19   H     H_    0.996130 0.649091 0.278771 0.188092
H20   H     H_    0.084430 0.429932 0.711737 0.184018
H21   H     H_    0.120715 0.473808 0.648196 0.216187
H22   H     H_    0.124919 0.419374 0.612109 0.175005
H23   H     H_    0.475696 0.112387 0.240338 0.184671
H24   H     H_    0.433080 0.039361 0.854788 0.179010
H25   H     H_    0.534743 0.116996 0.195907 0.199008
H26   H     H_    0.496288 0.149097 0.278645 0.188229
H27   H     H_    0.584531 0.930035 0.711615 0.184044
H28   H     H_    0.620751 0.973968 0.648149 0.216135
H29   H     H_    0.625032 0.919544 0.611968 0.175053
H30   H     H_    0.913066 0.573755 0.374919 0.180850
H31   H     H_    0.880824 0.524188 0.391379 0.200319
H32   H     H_    0.870577 0.573983 0.359288 0.210971
H33   H     H_    0.033267 0.378853 0.703179 0.169417
H34   H     H_    0.977744 0.390104 0.729913 0.180319
H35   H     H_    0.744686 0.568329 0.310655 0.314111
H36   H     H_    0.986836 0.350954 0.782119 0.197924
H37   H     H_    0.413093 0.073645 0.375043 0.180773
H38   H     H_    0.380734 0.024210 0.391260 0.200343
H39   H     H_    0.370682 0.074152 0.359224 0.210831
H40   H     H_    0.533423 0.878893 0.703026 0.169827
H41   H     H_    0.477879 0.890067 0.729798 0.179946
H42   H     H_    0.487035 0.850935 0.781943 0.198057
H43   H     H_    0.912931 0.443957 0.342306 0.337992
H44   H     H_    0.905223 0.455509 0.834301 0.330598
H45   H     H_    0.412890 0.944014 0.342351 0.337927
H46   H     H_    0.255671 0.565591 0.687368 0.320616
H47   H     H_    0.405672 0.954558 0.834069 0.330687
H48   H     H_    0.792963 0.415317 0.120092 0.372653
H49   H     H_    0.254084 0.434455 0.810772 0.342515
H50   H     H_    0.292922 0.915248 0.120361 0.372614
H51   H     H_    0.754096 0.934462 0.810709 0.342506
H52   H     H_    0.895554 0.484978 0.977274 0.132622
H53   H     H_    0.844381 0.460781 0.999564 0.171213
H54   H     H_    0.894587 0.429387 0.949636 0.211915
H55   H     H_    0.104809 0.487155 0.023608 0.170367
H56   H     H_    0.156268 0.463623 0.001163 0.187171
H57   H     H_    0.244712 0.068451 0.310484 0.314137
H58   H     H_    0.106027 0.432477 0.053875 0.180014
H59   H     H_    0.395562 0.984767 0.977324 0.132757
H60   H     H_    0.344378 0.960554 0.999689 0.171389
H61   H     H_    0.394562 0.929128 0.949912 0.211224
H62   H     H_    0.604794 0.987089 0.023609 0.170377
H63   H     H_    0.656266 0.963577 0.001132 0.187147
H64   H     H_    0.606043 0.932399 0.053800 0.180002
H65   H     H_    0.890925 0.547840 0.202193 0.366761
H66   H     H_    0.109219 0.545998 0.796928 0.369235
H67   H     H_    0.390916 0.047896 0.202179 0.366741
H68   H     H_    0.755650 0.065668 0.687484 0.320626
H69   H     H_    0.609223 0.046010 0.796924 0.369198
H70   H     H_    0.747594 0.413794 0.309150 0.174112
H71   H     H_    0.697099 0.409658 0.405687 0.168225
H72   H     H_    0.749669 0.413281 0.391011 0.185542
H73   H     H_    0.001983 0.575997 0.708258 0.193421
H74   H     H_    0.252375 0.411587 0.692974 0.159453
H75   H     H_    0.303620 0.406454 0.597560 0.165727
H76   H     H_    0.251679 0.409245 0.609756 0.189652
H77   H     H_    0.247632 0.913940 0.309338 0.174030
H78   H     H_    0.197155 0.909830 0.405900 0.168381
H79   H     H_    0.249734 0.913539 0.391172 0.185560
H80   H     H_    0.752270 0.911722 0.692941 0.159397
H81   H     H_    0.803518 0.906547 0.597543 0.165755
H82   H     H_    0.751592 0.909434 0.609703 0.189661
H83   H     H_    0.617850 0.501846 0.574810 0.180147
H84   H     H_    0.567295 0.962692 0.221741 0.189516
H85   H     H_    0.623516 0.542078 0.508201 0.139261
H86   H     H_    0.672044 0.517539 0.496138 0.188992
H87   H     H_    0.382254 0.498559 0.425013 0.179001
H88   H     H_    0.375887 0.539707 0.491203 0.140375
H89   H     H_    0.327794 0.513886 0.503461 0.190361
H90   H     H_    0.117838 0.002079 0.574824 0.180142
H91   H     H_    0.123467 0.042239 0.508149 0.139134
H92   H     H_    0.172017 0.017791 0.496125 0.188898
H93   H     H_    0.882255 0.998720 0.425011 0.178991
H94   H     H_    0.875918 0.039817 0.491246 0.140226
H95   H     H_    0.501877 0.076000 0.708368 0.193557
H96   H     H_    0.827806 0.014063 0.503480 0.190277
H97   H     H_    0.614147 0.552927 0.291681 0.342120
H98   H     H_    0.385814 0.553726 0.706826 0.341822
H99   H     H_    0.114153 0.052896 0.291604 0.342139
H100  H     H_    0.885812 0.053708 0.706875 0.341841
H101  H     H_    0.751129 0.584614 0.099839 0.199467
H102  H     H_    0.752941 0.584620 0.181917 0.139407
H103  H     H_    0.700903 0.592651 0.192739 0.190741
H104  H     H_    0.247738 0.585477 0.898701 0.193786
H105  H     H_    0.246043 0.584129 0.816522 0.141945
H106  H     H_    0.951361 0.721826 0.619708 0.176402
H107  H     H_    0.297923 0.593345 0.805770 0.188303
H108  H     H_    0.251111 0.084530 0.099702 0.199503
H109  H     H_    0.252941 0.084612 0.181763 0.139414
H110  H     H_    0.200894 0.092605 0.192600 0.190685
H111  H     H_    0.747755 0.085422 0.898800 0.193780
H112  H     H_    0.746041 0.084119 0.816640 0.141924
H113  H     H_    0.797929 0.093315 0.805866 0.188270
H114  H     H_    0.965895 0.391928 0.407746 0.169576
H115  H     H_    0.907748 0.385691 0.452724 0.229164
H116  H     H_    0.942063 0.337682 0.416277 0.147246
H117  H     H_    0.049206 0.720648 0.376713 0.175266
H118  H     H_    0.038540 0.393878 0.581670 0.166257
H119  H     H_    0.096844 0.387135 0.533681 0.225213
H120  H     H_    0.062075 0.339641 0.574704 0.137157
H121  H     H_    0.465923 0.891943 0.407713 0.169481
H122  H     H_    0.407781 0.885699 0.452650 0.229160
H123  H     H_    0.442103 0.837694 0.416208 0.147240
H124  H     H_    0.538544 0.893905 0.581646 0.166207
H125  H     H_    0.596844 0.887152 0.533675 0.225172
H126  H     H_    0.562064 0.839666 0.574722 0.137151
H127  H     H_    0.543900 0.754014 0.362403 0.334873
H128  H     H_    0.451420 0.221805 0.619780 0.176517
H129  H     H_    0.455198 0.755359 0.635244 0.333862
H130  H     H_    0.043905 0.254010 0.362401 0.334873
H131  H     H_    0.955201 0.255353 0.635246 0.333862
H132  H     H_    0.569179 0.608469 0.374414 0.312478
H133  H     H_    0.431311 0.608978 0.626128 0.313894
H134  H     H_    0.069183 0.108461 0.374416 0.312484
H135  H     H_    0.931306 0.108974 0.626119 0.313891
H136  H     H_    0.879564 0.618348 0.713957 0.195095
H137  H     H_    0.893285 0.633417 0.621463 0.158304
H138  H     H_    0.888982 0.675324 0.687236 0.152381
H139  H     H_    0.549117 0.220652 0.376730 0.175323
H140  H     H_    0.119472 0.616163 0.283144 0.191460
H141  H     H_    0.107249 0.633864 0.373642 0.156021
H142  H     H_    0.110421 0.673676 0.306349 0.149981
H143  H     H_    0.379666 0.118313 0.714129 0.195180
H144  H     H_    0.393290 0.133420 0.621713 0.158258
H145  H     H_    0.389061 0.175297 0.687464 0.152366
H146  H     H_    0.619367 0.116179 0.282993 0.191482
H147  H     H_    0.607244 0.133924 0.373402 0.155964
H148  H     H_    0.610313 0.173697 0.306154 0.149959
H149  H     H_    0.090593 0.550649 0.153938 0.347795
H150  H     H_    0.001270 0.423268 0.209048 0.195597
H151  H     H_    0.088208 0.552232 0.670343 0.355312
H152  H     H_    0.590628 0.050582 0.153911 0.347797
H153  H     H_    0.588139 0.052352 0.670415 0.355294
H154  H     H_    0.903210 0.291754 0.539225 0.381014
H155  H     H_    0.097300 0.290969 0.456369 0.379995
H156  H     H_    0.403221 0.791757 0.539171 0.381016
H157  H     H_    0.597291 0.790970 0.456409 0.379995
H158  H     H_    0.551353 0.243708 0.531617 0.348984
H159  H     H_    0.451241 0.243878 0.461260 0.347515
H160  H     H_    0.051557 0.743712 0.531142 0.348982
O1    O     O_R   0.934530 0.463050 0.065470 -0.565742
O2    O     O_R   0.434520 0.499990 0.618000 -0.609311
O3    O     O_3   0.948090 0.865402 0.465318 -0.532283
O4    O     O_3   0.998951 0.583758 0.300158 -0.606274
O5    O     O_3   0.071884 0.455211 0.634075 -0.621909
O6    O     O_3   0.499023 0.083756 0.300091 -0.606120
O7    O     O_3   0.571944 0.955308 0.634004 -0.621810
O8    O     O_3   0.926475 0.540860 0.276956 -0.634649
O9    O     O_3   0.993985 0.415317 0.802743 -0.584062
O10   O     O_3   0.426514 0.040932 0.276918 -0.634690
O11   O     O_3   0.494104 0.915310 0.802631 -0.584204
O12   O     O_3   0.928137 0.455792 0.364649 -0.781174
O13   O     O_R   0.065480 0.999990 0.382000 -0.607035
O14   O     O_3   0.925600 0.459654 0.778231 -0.730642
O15   O     O_3   0.428097 0.955853 0.364691 -0.781079
O16   O     O_3   0.425649 0.959574 0.778175 -0.730570
O17   O     O_3   0.772996 0.437781 0.158228 -0.732202
O18   O     O_3   0.222026 0.435215 0.850735 -0.705316
O19   O     O_3   0.272967 0.937748 0.158421 -0.732279
O20   O     O_3   0.722039 0.935215 0.850678 -0.705304
O21   O     O_3   0.866372 0.437522 0.064270 -0.577036
O22   O     O_3   0.133262 0.438448 0.938943 -0.549419
O23   O     O_3   0.366341 0.937424 0.064508 -0.577158
O24   O     O_R   0.934520 0.999990 0.618000 -0.609353
O25   O     O_3   0.633274 0.938423 0.938877 -0.549419
O26   O     O_3   0.863122 0.561024 0.214773 -0.663543
O27   O     O_3   0.137424 0.558845 0.782986 -0.648131
O28   O     O_3   0.363144 0.061103 0.214654 -0.663486
O29   O     O_3   0.637412 0.058874 0.783032 -0.648125
O30   O     O_R   0.500000 0.434520 0.552520 -0.577440
O31   O     O_R   0.500000 0.434520 0.447480 -0.576711
O32   O     O_R   1.000000 0.934520 0.552520 -0.577612
O33   O     O_R   0.000000 0.934520 0.447480 -0.576895
O34   O     O_R   0.934550 0.536970 0.065450 -0.625591
O35   O     O_R   0.065450 0.536970 0.934550 -0.605410
O36   O     O_R   0.434550 0.036970 0.065450 -0.625487
O37   O     O_R   0.065470 0.463050 0.934530 -0.577056
O38   O     O_R   0.565450 0.036970 0.934550 -0.605360
O39   O     O_R   0.000010 0.463050 0.093020 -0.642610
O40   O     O_R   0.999990 0.463050 0.906980 -0.588054
O41   O     O_R   0.500010 0.963050 0.093020 -0.642625
O42   O     O_R   0.499990 0.963050 0.906980 -0.588044
O43   O     O_R   0.000020 0.536970 0.093000 -0.600729
O44   O     O_R   0.999980 0.536970 0.907000 -0.604456
O45   O     O_R   0.500020 0.036970 0.093000 -0.600709
O46   O     O_R   0.499980 0.036970 0.907000 -0.604404
O47   O     O_R   0.036960 0.565440 0.463030 -0.612971
O48   O     O_R   0.434530 0.963050 0.065470 -0.565743
O49   O     O_R   0.963040 0.565440 0.536970 -0.612750
O50   O     O_R   0.536960 0.065440 0.463030 -0.613004
O51   O     O_R   0.463040 0.065440 0.536970 -0.612835
O52   O     O_R   0.036960 0.499960 0.370010 -0.631722
O53   O     O_R   0.963040 0.499960 0.629990 -0.575938
O54   O     O_R   0.536960 0.999960 0.370010 -0.631721
O55   O     O_R   0.463040 0.999960 0.629990 -0.575791
O56   O     O_R   0.963040 0.499940 0.443930 -0.599421
O57   O     O_R   0.036960 0.499940 0.556070 -0.609314
O58   O     O_R   0.463040 0.999940 0.443930 -0.599387
O59   O     O_R   0.565470 0.963050 0.934530 -0.577040
O60   O     O_R   0.536960 0.999940 0.556070 -0.609307
O61   O     O_R   0.036980 0.434490 0.463020 -0.580474
O62   O     O_R   0.963020 0.434490 0.536980 -0.568980
O63   O     O_R   0.536980 0.934490 0.463020 -0.580499
O64   O     O_R   0.463020 0.934490 0.536980 -0.568982
O65   O     O_R   0.500030 0.565470 0.552480 -0.610444
O66   O     O_R   0.499970 0.565470 0.447520 -0.608611
O67   O     O_R   0.000030 0.065470 0.552480 -0.610472
O68   O     O_R   0.999970 0.065470 0.447520 -0.608650
O69   O     O_3   0.775965 0.566244 0.291931 -0.683966
O70   O     O_R   0.565480 0.500000 0.487030 -0.577540
O71   O     O_3   0.224541 0.563010 0.705445 -0.677433
O72   O     O_3   0.275990 0.066366 0.291769 -0.683925
O73   O     O_3   0.724527 0.063074 0.705530 -0.677386
O74   O     O_3   0.727656 0.471443 0.375111 -0.577984
O75   O     O_3   0.272936 0.468207 0.624950 -0.568892
O76   O     O_3   0.227666 0.971636 0.375190 -0.577992
O77   O     O_3   0.772923 0.968343 0.624904 -0.568860
O78   O     O_3   0.636755 0.476307 0.470838 -0.579936
O79   O     O_3   0.363703 0.474167 0.529286 -0.583214
O80   O     O_3   0.136765 0.976450 0.470895 -0.579543
O81   O     O_R   0.434520 0.500000 0.512970 -0.577034
O82   O     O_3   0.863690 0.974262 0.529255 -0.582785
O83   O     O_3   0.637222 0.531925 0.255060 -0.671076
O84   O     O_3   0.362364 0.533426 0.744334 -0.674918
O85   O     O_3   0.137214 0.031866 0.255028 -0.671092
O86   O     O_3   0.862374 0.033387 0.744355 -0.674924
O87   O     O_3   0.726574 0.528509 0.165184 -0.533133
O88   O     O_3   0.273034 0.528990 0.834145 -0.545508
O89   O     O_3   0.226567 0.028461 0.165150 -0.533129
O90   O     O_3   0.773044 0.028957 0.834177 -0.545492
O91   O     O_3   0.929015 0.365109 0.517763 -0.580297
O92   O     O_R   0.065480 0.000000 0.487030 -0.577388
O93   O     O_3   0.072976 0.364558 0.473612 -0.577673
O94   O     O_3   0.429026 0.865111 0.517720 -0.580280
O95   O     O_3   0.572978 0.864560 0.473609 -0.577638
O96   O     O_3   0.553306 0.723052 0.358838 -0.666174
O97   O     O_3   0.446320 0.724149 0.639485 -0.667667
O98   O     O_3   0.053314 0.223050 0.358839 -0.666169
O99   O     O_3   0.946316 0.224146 0.639482 -0.667647
O100  O     O_3   0.559647 0.635790 0.362599 -0.672178
O101  O     O_3   0.440617 0.636714 0.637352 -0.671609
O102  O     O_3   0.059658 0.135788 0.362601 -0.672234
O103  O     O_R   0.934520 0.000000 0.512970 -0.576909
O104  O     O_3   0.940609 0.136711 0.637346 -0.671646
O105  O     O_3   0.944513 0.634718 0.636178 -0.598489
O106  O     O_3   0.054811 0.633215 0.362024 -0.568700
O107  O     O_3   0.444598 0.134692 0.636225 -0.598538
O108  O     O_3   0.554719 0.133215 0.362015 -0.568640
O109  O     O_3   0.072644 0.543229 0.134516 -0.787136
O110  O     O_3   0.072014 0.540762 0.723390 -0.757891
O111  O     O_3   0.572680 0.043167 0.134485 -0.787188
O112  O     O_3   0.571959 0.040861 0.723447 -0.757811
O113  O     O_3   0.927994 0.271854 0.524937 -0.728264
O114  O     O_R   0.565480 0.499990 0.382000 -0.606987
O115  O     O_3   0.072312 0.271322 0.471002 -0.730448
O116  O     O_3   0.428001 0.771857 0.524904 -0.728266
O117  O     O_3   0.572306 0.771323 0.471024 -0.730446
O118  O     O_3   0.552148 0.276085 0.536104 -0.712103
O119  O     O_3   0.449306 0.276307 0.459563 -0.718082
O120  O     O_3   0.052460 0.776095 0.535416 -0.712117
O121  O     O_3   0.949037 0.776319 0.460139 -0.718082
O122  O     O_3   0.552074 0.365259 0.533923 -0.533191
O123  O     O_3   0.448387 0.365385 0.464650 -0.532331
O124  O     O_3   0.052373 0.865276 0.533249 -0.533168
Zn1   Zn    Zn3+2 1.000000 0.450650 0.000000 1.050005
Zn2   Zn    Zn3+2 0.499990 0.500000 0.429890 1.048129
Zn3   Zn    Zn3+2 0.000010 0.000000 0.570110 1.045635
Zn4   Zn    Zn3+2 0.999990 0.000000 0.429890 1.048109
Zn5   Zn    Zn3+2 0.500000 0.950650 0.000000 1.049957
Zn6   Zn    Zn3+2 1.000000 0.549370 0.000000 1.041997
Zn7   Zn    Zn3+2 0.500000 0.049370 0.000000 1.042120
Zn8   Zn    Zn3+2 0.049370 0.499970 0.450630 1.025506
Zn9   Zn    Zn3+2 0.950630 0.499970 0.549370 1.057762
Zn10  Zn    Zn3+2 0.549370 0.999970 0.450630 1.025525
Zn11  Zn    Zn3+2 0.450630 0.999970 0.549370 1.057893
Zn12  Zn    Zn3+2 0.500010 0.500000 0.570110 1.045627

loop_
_geom_bond_atom_site_label_1
_geom_bond_atom_site_label_2
_ccdc_geom_bond_type
C71   O88   S    
C130  O40   A    
C131  O45   A    
C78   H137  S    
C99   O25   S    
C1    O1    A    
C101  C113  S    
C142  C184  S    
C136  C140  A    
C135  C139  A    
H99   O85   S    
C5    O104  S    
C102  C132  S    
H57   O72   S    
C69   O82   S    
C25   C164  S    
C22   C38   A    
C29   C33   A    
C33   C36   A    
C170  O93   S    
C149  C153  A    
C87   H17   S    
C91   H27   S    
C19   C37   A    
O35   Zn6   S    
H132  O100  S    
C146  C150  A    
C161  C172  A    
O92   Zn3   S    
C45   C59   S    
C133  C155  A    
C47   O112  S    
O41   Zn5   S    
O57   Zn8   S    
C151  C155  A    
C28   O120  S    
C86   H14   S    
H51   O20   S    
C175  O58   A    
O2    Zn12  S    
C89   O6    S    
C103  O17   S    
C35   C178  S    
C88   H22   S    
H3    O121  S    
H45   O15   S    
C66   H87   S    
C61   H70   S    
C88   H20   S    
O36   Zn7   S    
O103  Zn4   S    
C180  C182  S    
C181  C183  S    
C115  C123  S    
C27   C31   A    
C124  O73   S    
C32   O124  S    
C95   H41   S    
C83   H4    S    
C28   C32   A    
H48   O17   S    
C99   H63   S    
H158  O118  S    
C109  O23   S    
H50   O19   S    
C140  O80   S    
C91   O7    S    
C22   O99   S    
C108  C113  A    
C91   H29   S    
C40   C162  A    
C19   C188  A    
C138  O78   S    
C76   H123  S    
O42   Zn5   S    
C74   H115  S    
C71   H107  S    
O24   Zn3   S    
C72   H108  S    
H155  O115  S    
C48   H1    S    
C64   H82   S    
C94   H39   S    
H152  O111  S    
C72   O89   S    
C81   H144  S    
C143  C185  S    
C184  O114  A    
C13   C54   S    
C168  O51   A    
C108  O22   S    
O43   Zn6   S    
C152  C157  A    
C63   O76   S    
C18   C168  S    
O58   Zn11  S    
C50   C57   S    
O56   Zn9   S    
C2    C53   S    
C62   H75   S    
C98   H61   S    
C56   C134  S    
C53   C58   S    
C78   O105  S    
C84   H9    S    
C105  O19   S    
C40   O115  S    
C123  O38   A    
C75   H120  S    
C75   O93   S    
C58   O5    S    
O46   Zn7   S    
C49   C53   S    
C33   O3    S    
C51   C55   S    
C123  O59   A    
O52   Zn8   S    
C176  O55   A    
C85   H10   S    
C48   C52   S    
C39   C169  A    
C103  C107  A    
C84   H7    S    
C61   H72   S    
C89   H26   S    
O47   Zn8   S    
C15   C18   A    
C135  C157  A    
C73   H111  S    
C95   H42   S    
H47   O16   S    
C105  C127  A    
C80   O106  S    
C72   H109  S    
C83   O122  S    
C149  O85   S    
H130  O98   S    
O114  Zn2   S    
C41   C171  A    
C120  O69   S    
C70   H102  S    
C82   H147  S    
C153  O89   S    
C17   C166  S    
C77   O95   S    
O48   Zn5   S    
C13   C57   S    
C11   C25   A    
C177  O62   A    
C76   O94   S    
C92   O8    S    
O40   Zn1   S    
C118  C122  A    
C153  C158  A    
C56   O4    S    
C171  O94   S    
C23   C165  S    
C139  C143  A    
C130  O44   A    
C21   C38   A    
C131  O41   A    
C81   O107  S    
C4    C181  A    
C161  C179  S    
C8    C12   A    
C136  C158  A    
C41   O116  S    
H44   O14   S    
C47   C102  S    
H46   O71   S    
C73   O90   S    
C14   C17   A    
H100  O86   S    
H65   O26   S    
H97   O83   S    
H98   O84   S    
C183  O68   A    
H134  O102  S    
C54   C59   S    
C176  O60   A    
O49   Zn9   S    
C143  C148  A    
C112  O36   A    
C60   C167  S    
C30   C34   A    
O62   Zn9   S    
C65   H85   S    
C24   C167  S    
C75   H118  S    
C94   H38   S    
C9    C23   A    
O53   Zn9   S    
C80   H142  S    
C116  C120  A    
C83   H5    S    
C92   H31   S    
C147  C151  A    
C3    C180  A    
C13   C156  S    
C98   H60   S    
C85   H12   S    
C69   H94   S    
C7    O32   A    
C13   O15   S    
C96   H54   S    
C31   C34   A    
H127  O96   S    
C106  O20   S    
C39   C162  A    
C178  O12   S    
C14   O106  S    
C111  C116  A    
C109  C114  A    
C76   H122  S    
C10   C25   A    
O31   Zn2   S    
C26   C30   A    
C115  C119  A    
C117  O27   S    
C73   H113  S    
C113  C117  A    
C182  O66   A    
C71   H104  S    
C67   H91   S    
C68   H24   S    
C61   O74   S    
C126  C157  S    
C79   C134  S    
C105  C109  A    
C169  O91   S    
C78   H138  S    
C107  C111  A    
C142  C147  A    
C148  C152  A    
O51   Zn11  S    
C134  O8    S    
C43   O109  S    
O70   Zn12  S    
C59   C156  S    
O34   Zn6   S    
C139  O79   S    
C168  O50   A    
C173  O56   A    
C137  O77   S    
C150  O86   S    
C62   O75   S    
C154  C159  A    
C97   H56   S    
C20   C37   A    
C8    H106  S    
C84   H8    S    
C26   C164  A    
C147  O83   S    
C185  O2    A    
C103  C125  A    
C55   C176  S    
C161  C171  A    
O44   Zn6   S    
C57   H13   S    
C74   O91   S    
C136  O76   S    
C133  O74   S    
C132  O46   A    
C86   H15   S    
C128  C159  S    
C10   H128  S    
O63   Zn10  S    
C82   O108  S    
C19   O96   S    
C15   O107  S    
C7    C36   S    
C66   H88   S    
C45   O111  S    
C186  O13   A    
C87   O4    S    
C40   C170  A    
C98   O23   S    
C58   C145  S    
C122  O72   S    
C89   H23   S    
C2    C145  S    
C77   H126  S    
C46   C49   S    
C50   C54   S    
C42   O117  S    
O38   Zn7   S    
C68   C102  S    
C90   C145  S    
C119  O29   S    
C69   H96   S    
C30   O122  S    
C6    O30   A    
C79   C129  S    
C106  C128  A    
C66   H89   S    
C29   C165  A    
H43   O12   S    
C180  C188  A    
C187  O103  A    
C151  O87   S    
C44   C58   S    
C12   C17   A    
C160  C169  A    
C74   H116  S    
C93   H34   S    
C8    C23   A    
C124  C128  A    
C100  C156  S    
C133  C138  A    
C81   H143  S    
C78   H136  S    
C55   C60   S    
H129  O97   S    
C96   H52   S    
C21   O98   S    
H151  O110  S    
C35   C48   S    
C39   O113  S    
C5    C181  A    
C166  O49   A    
C118  O28   S    
C100  C131  S    
C86   O3    S    
C137  C159  A    
C80   H140  S    
C94   O10   S    
O61   Zn8   S    
H159  O119  S    
C64   H80   S    
C62   H76   S    
C97   H58   S    
C49   H73   S    
H157  O117  S    
C119  C124  A    
C7    O33   A    
C6    C34   S    
C187  O24   A    
C129  O39   A    
C54   C175  S    
C9    C14   A    
C87   H18   S    
C91   H28   S    
C75   H119  S    
C11   C16   A    
C146  C187  S    
C12   O105  S    
O13   Zn4   S    
O30   Zn12  S    
C3    C20   A    
C134  C178  S    
C182  O65   A    
C4    O102  S    
C127  C158  S    
C3    O101  S    
C141  C146  A    
C132  O42   A    
C88   H21   S    
C41   C163  A    
C138  C142  A    
C70   O87   S    
C61   H71   S    
C66   O79   S    
C32   C36   A    
C104  C108  A    
C174  O57   A    
C89   H25   S    
C64   O77   S    
C137  C141  A    
C107  O21   S    
C135  O75   S    
H66   O27   S    
C120  C125  A    
C27   O119  S    
C140  C144  A    
C99   H64   S    
C45   C100  S    
C72   H110  S    
C47   C51   S    
C46   C90   S    
O55   Zn11  S    
C88   O5    S    
C16   O108  S    
O39   Zn1   S    
C70   H103  S    
C82   H148  S    
C97   O22   S    
C1    C111  S    
C44   O110  S    
C179  O63   A    
O68   Zn4   S    
C177  O61   A    
C35   H150  S    
C95   O11   S    
C74   H114  S    
C93   H36   S    
H35   O69   S    
C179  O64   A    
C63   H78   S    
C52   C178  S    
C160  C177  S    
C64   H81   S    
C24   C68   S    
C90   C130  S    
C184  O70   A    
C121  C126  A    
C9    H117  S    
C1    O34   A    
C81   H145  S    
C20   O97   S    
C110  C115  A    
C2    O14   S    
C44   C49   S    
C152  O88   S    
C173  O52   A    
C166  O47   A    
C167  O11   S    
C102  C167  S    
C29   O121  S    
C45   C50   S    
C62   H74   S    
C183  O67   A    
C175  O54   A    
C26   O118  S    
C144  C186  S    
H49   O18   S    
C2    C46   S    
C24   C55   S    
C10   C15   A    
C71   H105  S    
C141  O82   S    
C43   C79   S    
C156  O10   S    
C122  C127  A    
O65   Zn12  S    
O1    Zn1   S    
C35   C79   S    
C92   H32   S    
C117  C121  A    
C95   H40   S    
O37   Zn1   S    
H153  O112  S    
C47   C60   S    
C85   H11   S    
C69   H93   S    
C5    C22   A    
C67   O80   S    
C43   C48   S    
C94   H37   S    
O66   Zn2   S    
C65   O78   S    
C37   C163  S    
C60   O7    S    
O32   Zn3   S    
C73   H112  S    
C104  O18   S    
C51   H95   S    
C46   H2    S    
C99   H62   S    
C185  O81   A    
H154  O113  S    
C101  O35   A    
C116  O26   S    
C53   C174  S    
O50   Zn10  S    
H133  O101  S    
H68   O73   S    
C96   H53   S    
C70   H101  S    
C82   H146  S    
C59   O6    S    
C145  O9    S    
C42   C163  A    
H149  O109  S    
H67   O28   S    
O54   Zn10  S    
C57   C100  S    
O59   Zn5   S    
C67   H90   S    
C101  O37   A    
C92   H30   S    
C144  C149  A    
C27   C164  A    
C97   H55   S    
C63   H77   S    
C112  O48   A    
C154  O90   S    
C148  O84   S    
O81   Zn2   S    
C87   H19   S    
C114  C118  A    
C42   C172  A    
O60   Zn10  S    
C112  C114  S    
C28   C165  A    
C16   C18   A    
C50   H84   S    
C96   O21   S    
O67   Zn3   S    
C11   H139  S    
H160  O120  S    
C31   O123  S    
C172  O95   S    
C93   O9    S    
H135  O104  S    
C121  O71   S    
C86   H16   S    
C44   C90   S    
O64   Zn11  S    
C106  C110  A    
C65   H86   S    
C129  O43   A    
C24   O16   S    
C77   H125  S    
O45   Zn7   S    
C80   H141  S    
C84   O123  S    
C188  O100  S    
C83   H6    S    
C98   H59   S    
C4    C21   A    
C6    O31   A    
H131  O99   S    
C110  O25   S    
C51   C68   S    
H156  O116  S    
C65   H83   S    
H69   O29   S    
C174  O53   A    
C76   H121  S    
O33   Zn4   S    
C125  C155  S    
C43   C56   S    
C38   C162  S    
C77   H124  S    
C104  C126  A    
C186  O92   A    
C150  C154  A    
C85   O124  S    
C160  C170  A    
C93   H33   S    
C67   H92   S    
C63   H79   S    
C52   C173  S    
C52   C56   S    
