data_mof_unit_pretest_573.cif
_audit_creation_date              2012-12-10T16:32:37-0500
_audit_creation_method            fapswitch 2.2
_symmetry_space_group_name_H-M    P1
_symmetry_Int_Tables_number       1
_space_group_crystal_system       triclinic
_cell_length_a                    16.932555
_cell_length_b                    16.944073
_cell_length_c                    16.955294
_cell_angle_alpha                 65.494018
_cell_angle_beta                  65.511885
_cell_angle_gamma                 65.528404
_cell_volume                      3851.88631808

loop_
_atom_site_label
_atom_site_type_symbol
_atom_type_description
_atom_site_fract_x
_atom_site_fract_y
_atom_site_fract_z
_atom_type_partial_charge
C1    C     C_R   0.590205 0.033973 0.591103 0.079313
C2    C     C_R   0.821516 0.564143 0.033642 0.934572
C3    C     C_R   0.435934 0.966119 0.178441 0.935014
C4    C     C_R   0.564066 0.033881 0.821559 0.935014
C5    C     C_R   0.564026 0.821544 0.033944 0.934850
C6    C     C_R   0.435974 0.178456 0.966056 0.934850
C7    C     C_R   0.033858 0.564077 0.821575 0.934720
C8    C     C_R   0.966142 0.435923 0.178425 0.934720
C9    C     C_R   0.821532 0.033616 0.564155 0.934313
C10   C     C_R   0.178468 0.966384 0.435845 0.934313
C11   C     C_R   0.543546 0.016872 0.544584 0.139032
C12   C     C_R   0.409795 0.966027 0.408897 0.079313
C13   C     C_R   0.456454 0.983128 0.455416 0.139032
C14   C     C_R   0.016750 0.543663 0.544568 0.136675
C15   C     C_R   0.983250 0.456337 0.455432 0.136675
C16   C     C_R   0.543590 0.544516 0.016893 0.138540
C17   C     C_R   0.456410 0.455483 0.983107 0.138540
C18   C     C_R   0.552451 0.060176 0.451741 -0.175573
C19   C     C_R   0.447549 0.939824 0.548259 -0.175573
C20   C     C_R   0.956438 0.490487 0.592279 -0.178189
C21   C     C_R   0.043562 0.509513 0.407720 -0.178189
C22   C     C_R   0.490870 0.592259 0.956239 -0.181946
C23   C     C_R   0.033807 0.590344 0.591109 0.079358
C24   C     C_R   0.509130 0.407741 0.043761 -0.181945
C25   C     C_R   0.509360 0.043666 0.407751 -0.179755
C26   C     C_R   0.490639 0.956333 0.592249 -0.179755
C27   C     C_R   0.447722 0.548329 0.939713 -0.177485
C28   C     C_R   0.552278 0.451671 0.060287 -0.177484
C29   C     C_R   0.940055 0.447286 0.548312 -0.174040
C30   C     C_R   0.059945 0.552714 0.451688 -0.174040
C31   C     C_R   0.549145 0.038468 0.680302 -0.279110
C32   C     C_R   0.450855 0.961532 0.319698 -0.279110
C33   C     C_R   0.037936 0.679784 0.549786 -0.281406
C34   C     C_R   0.966193 0.409656 0.408891 0.079358
C35   C     C_R   0.962064 0.320216 0.450214 -0.281406
C36   C     C_R   0.679666 0.549643 0.038204 -0.284247
C37   C     C_R   0.320334 0.450357 0.961796 -0.284247
C38   C     C_R   0.320343 0.961851 0.450255 -0.282445
C39   C     C_R   0.679657 0.038149 0.549745 -0.282445
C40   C     C_R   0.450883 0.319806 0.961364 -0.280340
C41   C     C_R   0.549117 0.680194 0.038636 -0.280340
C42   C     C_R   0.961608 0.450746 0.319702 -0.277605
C43   C     C_R   0.038393 0.549254 0.680297 -0.277606
C44   C     C_R   0.596254 0.050006 0.724925 -0.177974
C45   C     C_R   0.590221 0.590994 0.034067 0.079563
C46   C     C_R   0.403746 0.949994 0.275075 -0.177974
C47   C     C_R   0.049747 0.724765 0.596420 -0.178048
C48   C     C_R   0.950253 0.275235 0.403580 -0.178048
C49   C     C_R   0.724691 0.596315 0.049949 -0.178180
C50   C     C_R   0.275309 0.403684 0.950051 -0.178181
C51   C     C_R   0.275296 0.950103 0.403636 -0.178347
C52   C     C_R   0.724704 0.049896 0.596364 -0.178348
C53   C     C_R   0.403796 0.275131 0.949860 -0.178213
C54   C     C_R   0.596204 0.724869 0.050140 -0.178213
C55   C     C_R   0.950051 0.403697 0.275061 -0.177969
C56   C     C_R   0.409779 0.409006 0.965933 0.079563
C57   C     C_R   0.049949 0.596303 0.724939 -0.177969
C58   C     C_R   0.679351 0.065521 0.679344 0.562842
C59   C     C_R   0.320649 0.934478 0.320656 0.562842
C60   C     C_R   0.065432 0.679378 0.679385 0.561938
C61   C     C_R   0.934568 0.320622 0.320615 0.561937
C62   C     C_R   0.679311 0.679317 0.065606 0.563733
C63   C     C_R   0.320689 0.320683 0.934394 0.563733
C64   C     C_R   0.966449 0.178452 0.435804 0.934479
C65   C     C_R   0.033551 0.821548 0.564196 0.934478
C66   C     C_R   0.178484 0.435857 0.966358 0.934572
F1    F     F_    0.719678 0.087006 0.719398 -0.641899
F2    F     F_    0.280322 0.912994 0.280602 -0.641899
F3    F     F_    0.086971 0.719638 0.719441 -0.642923
F4    F     F_    0.913029 0.280361 0.280559 -0.642923
F5    F     F_    0.719632 0.719430 0.087050 -0.640798
F6    F     F_    0.280368 0.280570 0.912950 -0.640798
H1    H     H_    0.483784 0.920316 0.663356 0.135053
H2    H     H_    0.484204 0.663375 0.920164 0.135406
H3    H     H_    0.079506 0.516507 0.336582 0.138119
H4    H     H_    0.920494 0.483493 0.663418 0.138119
H5    H     H_    0.481849 0.030308 0.715759 0.182277
H6    H     H_    0.518151 0.969692 0.284241 0.182277
H7    H     H_    0.026742 0.715724 0.483798 0.183674
H8    H     H_    0.973258 0.284276 0.516202 0.183674
H9    H     H_    0.715586 0.483631 0.027024 0.182704
H10   H     H_    0.284414 0.516369 0.972976 0.182704
H11   H     H_    0.284429 0.973000 0.516249 0.183497
H12   H     H_    0.516216 0.079684 0.336644 0.135053
H13   H     H_    0.715571 0.027000 0.483751 0.183497
H14   H     H_    0.518181 0.284373 0.969491 0.181886
H15   H     H_    0.481819 0.715627 0.030509 0.181886
H16   H     H_    0.969701 0.518034 0.284262 0.182665
H17   H     H_    0.030299 0.481965 0.715738 0.182666
H18   H     H_    0.107559 0.592228 0.413216 0.144425
H19   H     H_    0.892441 0.407772 0.586784 0.144425
H20   H     H_    0.591468 0.413217 0.108141 0.142675
H21   H     H_    0.408532 0.586783 0.891859 0.142675
H22   H     H_    0.408225 0.892048 0.586680 0.142375
H23   H     H_    0.591775 0.107952 0.413320 0.142375
H24   H     H_    0.515796 0.336625 0.079836 0.135406
O1    O     O_R   0.982940 0.138950 0.510160 -0.650586
O2    O     O_R   0.982940 0.510160 0.138950 -0.651842
O3    O     O_R   0.861050 0.017060 0.489840 -0.650867
O4    O     O_R   0.138950 0.982940 0.510160 -0.650867
O5    O     O_R   0.867700 0.025880 0.612340 -0.558289
O6    O     O_R   0.132300 0.974120 0.387660 -0.558289
O7    O     O_R   0.025880 0.612340 0.867700 -0.558684
O8    O     O_R   0.974120 0.387660 0.132300 -0.558685
O9    O     O_R   0.612340 0.867700 0.025880 -0.557881
O10   O     O_R   0.387660 0.132300 0.974120 -0.557882
O11   O     O_R   0.387660 0.974120 0.132300 -0.558167
O12   O     O_R   0.017060 0.861050 0.489840 -0.650586
O13   O     O_R   0.612340 0.025880 0.867700 -0.558167
O14   O     O_R   0.132300 0.387660 0.974120 -0.557722
O15   O     O_R   0.867700 0.612340 0.025880 -0.557722
O16   O     O_R   0.974120 0.132300 0.387660 -0.558549
O17   O     O_R   0.025880 0.867700 0.612340 -0.558549
O18   O     O_R   0.138950 0.510160 0.982940 -0.652082
O19   O     O_R   0.861050 0.489840 0.017060 -0.652082
O20   O     O_R   0.510160 0.982940 0.138950 -0.652961
O21   O     O_R   0.489840 0.017060 0.861050 -0.652961
O22   O     O_R   0.489840 0.861050 0.017060 -0.653293
O23   O     O_R   0.510160 0.138950 0.982940 -0.653293
O24   O     O_R   0.017060 0.489840 0.861050 -0.651842
Zn1   Zn    Zn3+2 0.004880 0.004880 0.583590 1.042611
Zn2   Zn    Zn3+2 0.995120 0.995120 0.416410 1.042611
Zn3   Zn    Zn3+2 0.004880 0.583590 0.004880 1.041186
Zn4   Zn    Zn3+2 0.995120 0.416410 0.995120 1.041185
Zn5   Zn    Zn3+2 0.583590 0.004880 0.004880 1.039923
Zn6   Zn    Zn3+2 0.416410 0.995120 0.995120 1.039923

loop_
_geom_bond_atom_site_label_1
_geom_bond_atom_site_label_2
_ccdc_geom_bond_type
C61   F4    S    
C16   C28   A    
C4    O13   A    
C11   C18   A    
C50   C63   A    
C38   H11   S    
C40   C56   A    
C34   C42   A    
C30   H18   S    
O7    Zn3   S    
C5    O9    A    
C12   C13   S    
C18   C25   A    
C43   H17   S    
C34   C35   A    
C3    O20   A    
C24   H24   S    
C59   F2    S    
C48   C64   S    
C10   C51   S    
C35   H8    S    
C1    C31   A    
C26   H1    S    
C23   C43   A    
C20   H4    S    
O4    Zn1   S    
C40   H14   S    
C19   C26   A    
C8    O2    A    
O1    Zn1   S    
O14   Zn4   S    
C47   C60   A    
C37   C56   A    
C44   C58   A    
C23   C33   A    
C1    C11   S    
C25   H12   S    
C15   C29   A    
C49   C62   A    
O21   Zn6   S    
C15   C34   S    
C39   C52   A    
C9    O3    A    
C7    O7    A    
C12   C32   A    
C18   H23   S    
C13   C25   A    
C9    C52   S    
C32   C46   A    
C14   C30   A    
C35   C48   A    
C8    C55   S    
C31   H5    S    
C20   C29   A    
O2    Zn3   S    
C41   H15   S    
C2    O15   A    
C17   C24   A    
C31   C44   A    
C13   C19   A    
O15   Zn3   S    
C17   C27   A    
C14   C20   A    
C5    C54   S    
C10   O6    A    
C1    C39   A    
C33   H7    S    
C57   C60   A    
C38   C51   A    
C4    C44   S    
C11   C26   A    
C3    O11   A    
O5    Zn1   S    
C14   C23   S    
O16   Zn2   S    
C2    C49   S    
C42   C55   A    
C8    O8    A    
C2    O19   A    
C36   H9    S    
C6    O10   A    
O17   Zn1   S    
C36   C45   A    
C28   H20   S    
C65   O12   A    
C66   O14   A    
C10   O4    A    
C50   C66   S    
C17   C56   S    
C19   H22   S    
C52   C58   A    
O3    Zn2   S    
O18   Zn3   S    
O23   Zn5   S    
O13   Zn5   S    
C64   O1    A    
O20   Zn5   S    
C33   C47   A    
C37   H10   S    
C27   H21   S    
C51   C59   A    
C39   H13   S    
C6    C53   S    
C6    O23   A    
C29   H19   S    
O10   Zn6   S    
C16   C22   A    
O19   Zn4   S    
C66   O18   A    
C65   O17   A    
C7    O24   A    
C24   C28   A    
O11   Zn6   S    
O12   Zn2   S    
C16   C45   S    
O8    Zn4   S    
C22   H2    S    
C54   C62   A    
C21   C30   A    
C21   H3    S    
C3    C46   S    
O9    Zn5   S    
C5    O22   A    
C22   C27   A    
C37   C50   A    
C53   C63   A    
C48   C61   A    
C60   F3    S    
C55   C61   A    
C47   C65   S    
C62   F5    S    
C12   C38   A    
C4    O21   A    
C41   C54   A    
C64   O16   A    
C43   C57   A    
C32   H6    S    
C58   F1    S    
C15   C21   A    
C42   H16   S    
C63   F6    S    
C46   C59   A    
C9    O5    A    
C40   C53   A    
C41   C45   A    
O22   Zn6   S    
O6    Zn2   S    
C7    C57   S    
C36   C49   A    
O24   Zn4   S    
