data_mof_unit_pretest_1922.cif
_audit_creation_date              2012-12-10T19:21:01-0500
_audit_creation_method            fapswitch 2.2
_symmetry_space_group_name_H-M    P1
_symmetry_Int_Tables_number       1
_space_group_crystal_system       triclinic
_cell_length_a                    14.75409
_cell_length_b                    16.003415
_cell_length_c                    17.153297
_cell_angle_alpha                 89.59995
_cell_angle_beta                  94.564041
_cell_angle_gamma                 90.028591
_cell_volume                      4037.22344741

loop_
_atom_site_label
_atom_site_type_symbol
_atom_type_description
_atom_site_fract_x
_atom_site_fract_y
_atom_site_fract_z
_atom_type_partial_charge
C1    C     C_R   0.499962 0.340847 0.499983 0.805688
C2    C     C_R   0.500038 0.659153 0.500017 0.805675
C3    C     C_R   0.500034 0.912731 0.499996 -0.340158
C4    C     C_R   0.499966 0.087269 0.500006 -0.340157
C5    C     C_R   0.417505 0.956379 0.490899 0.506725
C6    C     C_R   0.582494 0.043621 0.509104 0.506724
C7    C     C_1   0.500065 0.823225 0.500000 0.232291
C8    C     C_1   0.499935 0.176775 0.500002 0.232290
C9    C     C_1   0.499930 0.251783 0.499994 -0.117022
C10   C     C_1   0.500070 0.748217 0.500007 -0.117020
C11   C     C_R   0.945460 0.512028 0.430401 -0.311532
C12   C     C_R   0.054540 0.487971 0.569599 -0.311528
C13   C     C_R   0.902894 0.499970 0.500233 -0.168517
C14   C     C_R   0.097106 0.500030 0.499767 -0.168522
C15   C     C_R   0.958737 0.487917 0.569969 0.675194
C16   C     C_R   0.041263 0.512083 0.430031 0.675190
C17   C     C_1   0.802738 0.500003 0.500095 0.298678
C18   C     C_1   0.197262 0.499997 0.499905 0.298687
C19   C     C_R   0.511871 0.498009 0.651397 0.830968
C20   C     C_R   0.488128 0.501989 0.348602 0.830949
C21   C     C_R   0.519868 0.496163 0.737513 -0.078221
C22   C     C_R   0.480132 0.503838 0.262483 -0.078252
C23   C     C_R   0.442649 0.514233 0.776870 -0.270211
C24   C     C_R   0.557391 0.485911 0.223129 -0.270197
C25   C     C_R   0.446802 0.513304 0.857877 -0.169022
C26   C     C_R   0.553244 0.486850 0.142122 -0.169036
C27   C     C_R   0.528880 0.493967 0.901970 0.315940
C28   C     C_R   0.471129 0.506049 0.098025 0.315949
C29   C     C_R   0.606830 0.475554 0.863199 0.084556
C30   C     C_R   0.393140 0.524325 0.136791 0.084543
C31   C     C_R   0.602698 0.476359 0.781043 0.129001
C32   C     C_R   0.397264 0.523509 0.218947 0.128992
C33   C     C_R   0.582529 0.956372 0.509098 0.506802
C34   C     C_R   0.417471 0.043628 0.490904 0.506800
Cu1   Cu    Cu3+1 0.589220 0.500000 0.499980 1.036643
Cu2   Cu    Cu3+1 0.410780 0.500000 0.500020 1.036641
H1    H     H_    0.621580 0.470512 0.255074 0.188112
H2    H     H_    0.378492 0.529741 0.744925 0.188093
H3    H     H_    0.614650 0.472384 0.114327 0.174997
H4    H     H_    0.385430 0.527890 0.885675 0.174997
H5    H     H_    0.904399 0.521456 0.375848 0.192373
H6    H     H_    0.095601 0.478543 0.624152 0.192380
N1    N     N_2   0.536095 0.492144 0.984981 -0.251471
N2    N     N_2   0.463916 0.507872 0.015015 -0.251471
N3    N     N_1   0.276710 0.499980 0.499980 -0.147595
N4    N     N_1   0.723290 0.500020 0.500020 -0.147598
O1    O     O_R   0.575320 0.380310 0.499960 -0.559724
O2    O     O_R   0.424680 0.619690 0.500040 -0.559741
O3    O     O_R   0.424640 0.380310 0.500000 -0.562568
O4    O     O_R   0.575360 0.619690 0.500000 -0.562569
O5    O     O_R   0.583590 0.499240 0.613900 -0.537822
O6    O     O_R   0.416410 0.500760 0.386100 -0.537813
O7    O     O_R   0.432900 0.499240 0.613940 -0.594184
O8    O     O_R   0.567100 0.500760 0.386060 -0.594192
N5    N     N_3   0.691042 0.455415 0.906859 -0.581243
H7    H     H_    0.680514 0.403211 0.942004 0.242057
H8    H     H_    0.709452 0.505672 0.943401 0.243386
N6    N     N_3   0.308890 0.544323 0.093128 -0.581251
H9    H     H_    0.319313 0.596551 0.057983 0.242042
H10   H     H_    0.290585 0.494040 0.056585 0.243400
N7    N     N_3   0.682146 0.455645 0.742086 -0.511427
H11   H     H_    0.733876 0.497618 0.760014 0.271455
H12   H     H_    0.703165 0.395528 0.759583 0.256046
N8    N     N_3   0.317765 0.544067 0.257897 -0.511350
H13   H     H_    0.266129 0.502002 0.239962 0.271384
H14   H     H_    0.296617 0.604148 0.240401 0.256114
F1    F     F_    0.662686 0.085512 0.517951 -0.573652
F2    F     F_    0.337314 0.914488 0.482051 -0.573653
F3    F     F_    0.662753 0.914475 0.517941 -0.574053
F4    F     F_    0.337247 0.085525 0.482061 -0.574053
F5    F     F_    0.079369 0.523944 0.361353 -0.642467
F6    F     F_    0.920631 0.476056 0.638647 -0.642467

loop_
_geom_bond_atom_site_label_1
_geom_bond_atom_site_label_2
_ccdc_geom_bond_type
C7    C10   T    
N1    N2    D    
C6    C33   A    
C11   H5    S    
C13   C15   A    
C14   C16   A    
C33   F3    S    
C27   C29   A    
C23   H2    S    
C11   C13   A    
C11   C16   A    
C14   C18   S    
C26   C28   A    
Cu1   Cu2   S    
Cu2   O6    S    
C12   C15   A    
C13   C17   S    
C4    C8    S    
Cu1   O1    S    
C5    C34   A    
C19   O7    A    
Cu1   O4    S    
C28   C30   A    
C24   H1    S    
C12   C14   A    
Cu2   N3    S    
C20   O6    A    
N8    H13   S    
Cu1   O8    S    
C30   C32   A    
C15   F6    S    
C21   C31   A    
C16   F5    S    
C22   C32   A    
C5    F2    S    
C30   N6    S    
C4    C6    A    
C6    F1    S    
C19   C21   S    
C20   C22   S    
Cu2   O2    S    
C19   O5    A    
C3    C7    S    
C25   H4    S    
N5    H8    S    
C4    C34   A    
Cu1   O5    S    
N7    H11   S    
C22   C24   A    
C26   H3    S    
C25   C27   A    
C3    C33   A    
N5    H7    S    
N6    H10   S    
C2    C10   S    
C18   N3    T    
C27   N1    S    
C23   C25   A    
C1    C9    S    
C17   N4    T    
C32   N8    S    
C20   O8    A    
C2    O4    A    
N7    H12   S    
C31   N7    S    
C34   F4    S    
C1    O1    A    
C12   H6    S    
Cu2   O7    S    
C29   N5    S    
C2    O2    A    
N6    H9    S    
C29   C31   A    
Cu1   N4    S    
C1    O3    A    
C21   C23   A    
C28   N2    S    
Cu2   O3    S    
C24   C26   A    
C8    C9    T    
C3    C5    A    
N8    H14   S    
