data_mof_unit_pretest_849.cif
_audit_creation_date              2012-12-11T15:07:09-0500
_audit_creation_method            fapswitch 2.2
_symmetry_space_group_name_H-M    P1
_symmetry_Int_Tables_number       1
_space_group_crystal_system       triclinic
_cell_length_a                    19.715656
_cell_length_b                    11.356965
_cell_length_c                    18.723953
_cell_angle_alpha                 89.909155
_cell_angle_beta                  90.762456
_cell_angle_gamma                 90.012153
_cell_volume                      4192.10404452

loop_
_atom_site_label
_atom_site_type_symbol
_atom_type_description
_atom_site_fract_x
_atom_site_fract_y
_atom_site_fract_z
_atom_type_partial_charge
C1    C     C_R   0.760076 0.528737 0.641151 0.530096
C2    C     C_R   0.239871 0.528444 0.358944 0.529178
C3    C     C_R   0.260646 0.023755 0.639476 0.533747
C4    C     C_R   0.739311 0.023469 0.360594 0.532850
C5    C     C_3   0.816666 0.120508 0.451400 -0.265157
C6    C     C_3   0.183369 0.120996 0.548536 -0.265282
C7    C     C_3   0.314756 0.632465 0.447979 -0.262812
C8    C     C_3   0.685137 0.632620 0.551914 -0.262878
C9    C     C_3   0.749312 0.055500 0.436483 0.059203
C10   C     C_3   0.250660 0.055856 0.563580 0.059145
C11   C     C_3   0.248575 0.566230 0.434323 0.054237
C12   C     C_3   0.751372 0.566585 0.565765 0.054108
C13   C     C_3   0.761885 0.089219 0.574133 0.057050
C14   C     C_3   0.238095 0.089261 0.425894 0.057206
C15   C     C_3   0.262456 0.596354 0.572324 0.047551
C16   C     C_3   0.737493 0.596385 0.427728 0.047821
C17   C     C_3   0.744698 0.961085 0.562116 -0.258043
C18   C     C_3   0.255077 0.961099 0.438227 -0.258426
C19   C     C_3   0.253376 0.465362 0.559280 -0.268029
C20   C     C_3   0.746672 0.465456 0.441097 -0.268475
C21   C     C_3   0.828855 0.115964 0.533194 -0.233264
C22   C     C_3   0.171196 0.116471 0.466754 -0.233131
C23   C     C_3   0.326266 0.635368 0.529462 -0.219969
C24   C     C_3   0.673637 0.635294 0.470424 -0.219882
C25   C     C_3   0.001351 0.211697 0.459049 -0.293230
C26   C     C_3   0.998491 0.211791 0.541164 -0.292912
C27   C     C_3   0.503635 0.707598 0.459229 -0.286260
C28   C     C_3   0.496289 0.707724 0.541053 -0.286008
C29   C     C_3   0.071671 0.395773 0.480796 -0.153947
C30   C     C_3   0.928118 0.395816 0.519003 -0.154233
C31   C     C_3   0.564464 0.907914 0.474893 -0.186732
C32   C     C_3   0.435392 0.907977 0.524896 -0.186938
C33   C     C_3   0.950982 0.414452 0.442149 0.117653
C34   C     C_3   0.048785 0.414661 0.557583 0.117388
C35   C     C_3   0.441578 0.892395 0.443751 0.059688
C36   C     C_3   0.558257 0.892714 0.556076 0.059578
C37   C     C_3   0.015184 0.338981 0.432436 0.044972
C38   C     C_3   0.984609 0.339145 0.567479 0.044648
C39   C     C_3   0.510588 0.835282 0.430859 0.044925
C40   C     C_3   0.489289 0.835501 0.569105 0.044658
C41   C     C_3   0.819621 0.031030 0.048670 -0.229520
C42   C     C_3   0.187350 0.010367 0.955636 -0.224504
C43   C     C_3   0.319623 0.531032 0.048673 -0.229529
C44   C     C_3   0.687348 0.510369 0.955633 -0.224461
C45   C     C_R   0.774004 0.120180 0.649878 0.550785
C46   C     C_R   0.226000 0.120095 0.350112 0.550589
C47   C     C_R   0.275127 0.623696 0.648366 0.542111
C48   C     C_R   0.724868 0.623622 0.351640 0.541815
C49   C     C_3   0.822347 0.037198 0.968455 -0.227297
C50   C     C_3   0.184459 0.017155 0.035759 -0.234668
C51   C     C_3   0.322349 0.537201 0.968458 -0.227147
C52   C     C_3   0.684458 0.517159 0.035756 -0.234539
C53   C     C_3   0.692900 0.012459 0.030495 -0.223900
C54   C     C_3   0.317913 0.033559 0.970523 -0.216925
C55   C     C_3   0.192902 0.512461 0.030498 -0.223078
C56   C     C_3   0.817911 0.533562 0.970519 -0.216036
C57   C     C_3   0.744185 0.203947 0.060930 -0.253246
C58   C     C_3   0.245201 0.199352 0.937631 -0.258546
C59   C     C_3   0.244187 0.703949 0.060935 -0.253261
C60   C     C_3   0.745199 0.699354 0.937626 -0.258624
C61   C     C_3   0.749110 0.072612 0.075455 0.058915
C62   C     C_3   0.253318 0.067862 0.926019 0.062787
C63   C     C_3   0.249112 0.572614 0.075458 0.058881
C64   C     C_3   0.753316 0.567865 0.926016 0.062689
C65   C     C_3   0.760938 0.106198 0.936378 0.060069
C66   C     C_3   0.239802 0.102442 0.064603 0.056806
C67   C     C_3   0.260940 0.606203 0.936381 0.060618
C68   C     C_3   0.739800 0.602447 0.064600 0.057385
C69   C     C_3   0.699574 0.027595 0.948471 -0.256766
C70   C     C_3   0.308125 0.044252 0.052262 -0.248841
C71   C     C_3   0.199576 0.527599 0.948475 -0.257470
C72   C     C_3   0.808124 0.544258 0.052258 -0.249629
C73   C     C_3   0.745599 0.221797 0.978778 -0.217289
C74   C     C_3   0.238432 0.217123 0.019317 -0.230568
C75   C     C_3   0.245602 0.721800 0.978783 -0.217211
C76   C     C_3   0.738430 0.717127 0.019312 -0.230424
C77   C     C_3   0.994869 0.479058 0.042215 -0.233268
C78   C     C_3   0.991651 0.479093 0.961382 -0.227270
C79   C     C_3   0.494868 0.979058 0.042215 -0.233347
C80   C     C_3   0.491652 0.979094 0.961382 -0.227755
C81   C     C_3   0.067113 0.296634 0.028160 -0.222361
C82   C     C_3   0.937775 0.270714 0.972538 -0.212253
C83   C     C_3   0.567112 0.796634 0.028161 -0.223589
C84   C     C_3   0.437776 0.770715 0.972538 -0.213389
C85   C     C_3   0.945432 0.279387 0.054488 -0.256358
C86   C     C_3   0.058043 0.298834 0.946000 -0.263289
C87   C     C_3   0.445431 0.779389 0.054488 -0.255882
C88   C     C_3   0.558044 0.798837 0.946001 -0.262724
C89   C     C_R   0.963823 0.343596 0.642678 0.542974
C90   C     C_R   0.035989 0.343471 0.357232 0.542028
C91   C     C_R   0.468506 0.842495 0.644929 0.579991
C92   C     C_R   0.531427 0.842373 0.355034 0.579237
C93   C     C_3   0.008370 0.352233 0.070271 0.059708
C94   C     C_3   0.988355 0.351321 0.931265 0.063108
C95   C     C_3   0.508368 0.852234 0.070272 0.059157
C96   C     C_3   0.488356 0.851322 0.931265 0.062455
C97   C     C_R   0.761252 0.532054 0.849487 0.531488
C98   C     C_R   0.239994 0.535688 0.151958 0.527415
C99   C     C_R   0.261254 0.032051 0.849489 0.531969
C100  C     C_R   0.739993 0.035687 0.151957 0.527802
C101  C     C_R   0.774757 0.133761 0.859199 0.536228
C102  C     C_R   0.225652 0.132367 0.141365 0.536018
C103  C     C_R   0.274758 0.633765 0.859201 0.534258
C104  C     C_R   0.725651 0.632371 0.141363 0.533918
C105  C     C_R   0.967948 0.353282 0.854349 0.535262
C106  C     C_R   0.030156 0.353322 0.146883 0.532781
C107  C     C_R   0.467950 0.853282 0.854348 0.539482
C108  C     C_R   0.530155 0.853322 0.146883 0.537477
C109  C     C_3   0.692197 0.135720 0.462805 -0.224691
C110  C     C_3   0.307816 0.135993 0.537082 -0.225136
C111  C     C_3   0.191812 0.648014 0.462068 -0.228190
C112  C     C_3   0.808126 0.648381 0.537892 -0.228797
C113  C     C_3   0.704896 0.164025 0.541098 -0.212491
C114  C     C_3   0.295251 0.163891 0.458664 -0.212466
C115  C     C_3   0.196776 0.654700 0.543613 -0.221565
C116  C     C_3   0.803111 0.655046 0.456347 -0.221728
C117  C     C_3   0.752578 0.938675 0.481548 -0.223890
C118  C     C_3   0.247249 0.938927 0.518840 -0.223482
C119  C     C_3   0.252713 0.450222 0.478043 -0.223730
C120  C     C_3   0.747345 0.450510 0.522366 -0.223439
Cr1   Cr    Cr6+3 0.885690 0.492860 0.745310 1.036908
Cr2   Cr    Cr6+3 0.114310 0.492860 0.254690 1.036280
Cr3   Cr    Cr6+3 0.385690 0.992860 0.745310 1.035319
Cr4   Cr    Cr6+3 0.614310 0.992860 0.254690 1.034549
Cr5   Cr    Cr6+3 0.729880 0.332270 0.748190 1.023395
Cr6   Cr    Cr6+3 0.270120 0.332270 0.251810 1.022974
Cr7   Cr    Cr6+3 0.229880 0.832270 0.748190 1.017432
Cr8   Cr    Cr6+3 0.770120 0.832270 0.251810 1.017027
Cr9   Cr    Cr6+3 0.888120 0.178590 0.753010 1.001184
Cr10  Cr    Cr6+3 0.111880 0.178590 0.246990 1.000484
Cr11  Cr    Cr6+3 0.388120 0.678590 0.753010 1.000134
Cr12  Cr    Cr6+3 0.611880 0.678590 0.246990 0.999398
H1    H     H_    0.643007 0.093669 0.456561 0.164924
H2    H     H_    0.357015 0.094041 0.543621 0.164466
H3    H     H_    0.140358 0.626809 0.443912 0.182786
H4    H     H_    0.859583 0.627022 0.556045 0.182813
H5    H     H_    0.866576 0.045379 0.544971 0.142079
H6    H     H_    0.133361 0.046042 0.455136 0.142002
H7    H     H_    0.365528 0.567983 0.541038 0.134886
H8    H     H_    0.634436 0.567757 0.458995 0.134878
H9    H     H_    0.804879 0.905768 0.476361 0.137792
H10   H     H_    0.194919 0.906147 0.524199 0.138076
H11   H     H_    0.303664 0.414300 0.465637 0.143315
H12   H     H_    0.696450 0.414348 0.534927 0.143740
H13   H     H_    0.779874 0.906655 0.594698 0.117129
H14   H     H_    0.219731 0.906836 0.405850 0.117066
H15   H     H_    0.295932 0.414865 0.583974 0.128225
H16   H     H_    0.704153 0.414781 0.416548 0.127884
H17   H     H_    0.039237 0.147704 0.440982 0.148658
H18   H     H_    0.960678 0.147674 0.559403 0.148822
H19   H     H_    0.545218 0.652273 0.442648 0.142965
H20   H     H_    0.454717 0.652355 0.557789 0.143247
H21   H     H_    0.952431 0.181383 0.436315 0.117046
H22   H     H_    0.047436 0.181629 0.563965 0.117162
H23   H     H_    0.459014 0.664442 0.434358 0.113229
H24   H     H_    0.540926 0.664712 0.566051 0.113398
H25   H     H_    0.615798 0.891672 0.457218 0.075224
H26   H     H_    0.384062 0.891822 0.542663 0.075129
H27   H     H_    0.115041 0.340223 0.486157 0.029080
H28   H     H_    0.884709 0.340331 0.513837 0.028987
H29   H     H_    0.598786 0.834934 0.577089 0.117148
H30   H     H_    0.401059 0.834452 0.422987 0.117222
H31   H     H_    0.089060 0.385062 0.595828 0.096754
H32   H     H_    0.910708 0.384679 0.404004 0.096314
H33   H     H_    0.910600 0.477296 0.542184 0.200890
H34   H     H_    0.089225 0.477155 0.457383 0.201164
H35   H     H_    0.445915 0.001625 0.536579 0.221376
H36   H     H_    0.553934 0.001511 0.462874 0.221591
H37   H     H_    0.832588 0.939338 0.063709 0.139519
H38   H     H_    0.180713 0.919049 0.939682 0.139089
H39   H     H_    0.332589 0.439339 0.063710 0.139558
H40   H     H_    0.680713 0.419050 0.939681 0.139114
H41   H     H_    0.689793 0.217856 0.430697 0.111278
H42   H     H_    0.310137 0.218296 0.568865 0.111260
H43   H     H_    0.198245 0.736274 0.439737 0.109410
H44   H     H_    0.801730 0.736624 0.560092 0.109423
H45   H     H_    0.859715 0.086155 0.073205 0.116819
H46   H     H_    0.142188 0.055557 0.932143 0.117145
H47   H     H_    0.359717 0.586156 0.073208 0.117020
H48   H     H_    0.642186 0.555558 0.932140 0.117245
H49   H     H_    0.871016 0.073050 0.953429 0.134119
H50   H     H_    0.132225 0.043384 0.049500 0.133662
H51   H     H_    0.371018 0.573054 0.953431 0.134157
H52   H     H_    0.632224 0.543388 0.049498 0.133648
H53   H     H_    0.822914 0.946273 0.946313 0.116691
H54   H     H_    0.191844 0.929046 0.059696 0.119673
H55   H     H_    0.322916 0.446278 0.946315 0.116480
H56   H     H_    0.691843 0.429050 0.059693 0.119375
H57   H     H_    0.700561 0.922168 0.043908 0.108665
H58   H     H_    0.337957 0.947888 0.955506 0.107666
H59   H     H_    0.200564 0.422169 0.043910 0.108522
H60   H     H_    0.837953 0.447890 0.955503 0.107772
H61   H     H_    0.706322 0.941213 0.921943 0.108670
H62   H     H_    0.310344 0.956458 0.078164 0.105884
H63   H     H_    0.206323 0.441217 0.921946 0.107265
H64   H     H_    0.810344 0.456464 0.078160 0.104042
H65   H     H_    0.695953 0.237733 0.083118 0.116831
H66   H     H_    0.289537 0.248884 0.917096 0.114342
H67   H     H_    0.195955 0.737734 0.083124 0.117166
H68   H     H_    0.789535 0.748887 0.917091 0.114745
H69   H     H_    0.786699 0.251538 0.087419 0.103493
H70   H     H_    0.199718 0.232638 0.908271 0.104997
H71   H     H_    0.286701 0.751539 0.087425 0.104645
H72   H     H_    0.699716 0.732639 0.908265 0.106206
H73   H     H_    0.779021 0.294067 0.964312 0.107099
H74   H     H_    0.188593 0.249114 0.026786 0.109953
H75   H     H_    0.279023 0.794071 0.964318 0.107294
H76   H     H_    0.688589 0.749115 0.026779 0.110061
H77   H     H_    0.693502 0.247108 0.962912 0.120330
H78   H     H_    0.277677 0.278878 0.038868 0.125372
H79   H     H_    0.193504 0.747110 0.962918 0.120273
H80   H     H_    0.777674 0.778884 0.038863 0.125522
H81   H     H_    0.642601 0.043532 0.047486 0.126811
H82   H     H_    0.356555 0.099721 0.956635 0.119965
H83   H     H_    0.142603 0.543533 0.047490 0.126928
H84   H     H_    0.856553 0.599723 0.956629 0.119969
H85   H     H_    0.725195 0.248792 0.543828 0.112201
H86   H     H_    0.275315 0.248913 0.455273 0.112835
H87   H     H_    0.188683 0.743145 0.563715 0.151640
H88   H     H_    0.811118 0.743522 0.436050 0.152021
H89   H     H_    0.652910 0.068023 0.925274 0.116781
H90   H     H_    0.348548 0.100162 0.076421 0.121523
H91   H     H_    0.152911 0.568028 0.925279 0.114687
H92   H     H_    0.848547 0.600169 0.076414 0.119706
H93   H     H_    0.034101 0.543355 0.058926 0.135119
H94   H     H_    0.949988 0.534192 0.943054 0.135147
H95   H     H_    0.534100 0.043356 0.058927 0.134917
H96   H     H_    0.449989 0.034194 0.943053 0.134837
H97   H     H_    0.946907 0.512231 0.064289 0.118533
H98   H     H_    0.037236 0.524671 0.940485 0.116417
H99   H     H_    0.446906 0.012232 0.064289 0.120217
H100  H     H_    0.537237 0.024672 0.940486 0.117828
H101  H     H_    0.608442 0.851903 0.042875 0.108093
H102  H     H_    0.385300 0.782497 0.954711 0.109672
H103  H     H_    0.108443 0.351904 0.042872 0.108370
H104  H     H_    0.885299 0.282500 0.954713 0.109698
H105  H     H_    0.598208 0.852170 0.920539 0.109646
H106  H     H_    0.399950 0.820204 0.078259 0.106019
H107  H     H_    0.098207 0.352166 0.920538 0.107515
H108  H     H_    0.899951 0.320201 0.078259 0.104201
H109  H     H_    0.952302 0.190408 0.078147 0.116677
H110  H     H_    0.061768 0.208374 0.923841 0.111441
H111  H     H_    0.452300 0.690411 0.078149 0.116789
H112  H     H_    0.561770 0.708378 0.923840 0.111683
H113  H     H_    0.952299 0.179786 0.958362 0.124770
H114  H     H_    0.076004 0.205203 0.046089 0.133276
H115  H     H_    0.452301 0.679787 0.958363 0.124878
H116  H     H_    0.576001 0.705203 0.046089 0.133403
H117  H     H_    0.658515 0.170760 0.572032 0.218139
H118  H     H_    0.341677 0.169973 0.427806 0.218237
H119  H     H_    0.155212 0.605791 0.566668 0.200801
H120  H     H_    0.844716 0.606310 0.433412 0.201048
H121  H     H_    0.719267 0.869227 0.461739 0.107563
H122  H     H_    0.280518 0.869448 0.538835 0.107704
H123  H     H_    0.211472 0.391586 0.461085 0.105868
H124  H     H_    0.788641 0.392109 0.539550 0.105989
H125  H     H_    0.693024 0.941359 0.579652 0.171026
H126  H     H_    0.306700 0.941043 0.420689 0.170803
H127  H     H_    0.205915 0.431060 0.582904 0.107891
H128  H     H_    0.794164 0.431270 0.417571 0.107966
H129  H     H_    0.858947 0.075420 0.423984 0.138297
H130  H     H_    0.141047 0.075990 0.576033 0.138213
H131  H     H_    0.357492 0.586802 0.421734 0.130290
H132  H     H_    0.642427 0.586892 0.578266 0.130433
H133  H     H_    0.814472 0.213068 0.432111 0.104886
H134  H     H_    0.185632 0.213543 0.567654 0.105037
H135  H     H_    0.311502 0.722515 0.425545 0.102667
H136  H     H_    0.688317 0.722740 0.574081 0.102743
H137  H     H_    0.849826 0.196242 0.555170 0.121635
H138  H     H_    0.150413 0.196884 0.444570 0.121705
H139  H     H_    0.345715 0.720323 0.547490 0.109180
H140  H     H_    0.654139 0.720161 0.452118 0.109422
O1    O     O_R   0.957210 0.449410 0.665480 -0.451595
O2    O     O_R   0.042790 0.449410 0.334520 -0.452000
O3    O     O_R   0.457210 0.949410 0.665480 -0.448645
O4    O     O_R   0.542790 0.949410 0.334520 -0.449214
O5    O     O_R   0.736260 0.212010 0.826560 -0.504891
O6    O     O_R   0.263740 0.212010 0.173440 -0.504553
O7    O     O_R   0.236260 0.712010 0.826560 -0.507319
O8    O     O_R   0.763740 0.712010 0.173440 -0.506940
O9    O     O_R   0.832520 0.095300 0.836000 -0.532380
O10   O     O_R   0.167480 0.095300 0.164000 -0.532724
O11   O     O_R   0.332520 0.595300 0.836000 -0.532410
O12   O     O_R   0.667480 0.595300 0.164000 -0.532747
O13   O     O_R   0.946380 0.253940 0.826940 -0.513592
O14   O     O_R   0.053620 0.253940 0.173060 -0.514082
O15   O     O_R   0.446380 0.753940 0.826940 -0.514407
O16   O     O_R   0.553620 0.753940 0.173060 -0.514970
O17   O     O_3   0.834560 0.334570 0.748840 -0.291818
O18   O     O_3   0.165440 0.334570 0.251160 -0.289075
O19   O     O_3   0.334560 0.834570 0.748840 -0.291194
O20   O     O_3   0.665440 0.834570 0.251160 -0.288472
O21   O     O_R   0.820730 0.541240 0.668250 -0.513450
O22   O     O_R   0.179270 0.541240 0.331750 -0.513885
O23   O     O_R   0.320730 0.041240 0.668250 -0.515358
O24   O     O_R   0.679270 0.041240 0.331750 -0.515896
O25   O     O_R   0.714240 0.455060 0.663710 -0.526073
O26   O     O_R   0.285760 0.455060 0.336290 -0.526525
O27   O     O_R   0.214240 0.955060 0.663710 -0.525154
O28   O     O_R   0.785760 0.955060 0.336290 -0.525697
O29   O     O_R   0.736780 0.204870 0.675910 -0.495160
O30   O     O_R   0.263220 0.204870 0.324090 -0.495457
O31   O     O_R   0.236780 0.704870 0.675910 -0.504816
O32   O     O_R   0.763220 0.704870 0.324090 -0.505067
O33   O     O_R   0.833070 0.087590 0.673490 -0.529418
O34   O     O_R   0.166930 0.087590 0.326510 -0.529574
O35   O     O_R   0.333070 0.587590 0.673490 -0.526481
O36   O     O_R   0.666930 0.587590 0.326510 -0.526678
O37   O     O_R   0.946890 0.246800 0.676300 -0.523770
O38   O     O_R   0.053110 0.246800 0.323700 -0.524283
O39   O     O_R   0.446890 0.746800 0.676300 -0.525987
O40   O     O_R   0.553110 0.746800 0.323700 -0.526414
O41   O     O_R   0.956650 0.457120 0.827980 -0.525561
O42   O     O_R   0.043350 0.457120 0.172020 -0.525476
O43   O     O_R   0.456650 0.957120 0.827980 -0.520973
O44   O     O_R   0.543350 0.957120 0.172020 -0.520958
O45   O     O_R   0.820220 0.548390 0.818890 -0.511630
O46   O     O_R   0.179780 0.548390 0.181110 -0.511176
O47   O     O_R   0.320220 0.048390 0.818890 -0.511842
O48   O     O_R   0.679780 0.048390 0.181110 -0.511395
O49   O     O_R   0.713680 0.462770 0.826210 -0.532883
O50   O     O_R   0.286320 0.462770 0.173790 -0.532577
O51   O     O_R   0.213680 0.962770 0.826210 -0.532404
O52   O     O_R   0.786320 0.962770 0.173790 -0.532084
Cl1   Cl    Cl    0.965258 0.569881 0.424932 -0.608671
Cl2   Cl    Cl    0.034442 0.570107 0.574345 -0.608686
Cl3   Cl    Cl    0.431092 0.030429 0.398648 -0.696716
Cl4   Cl    Cl    0.568599 0.031093 0.600597 -0.696338

loop_
_geom_bond_atom_site_label_1
_geom_bond_atom_site_label_2
_ccdc_geom_bond_type
C78   H94   S    
C5    H133  S    
C82   C94   S    
C119  H11   S    
C120  H12   S    
C21   H5    S    
C53   C69   S    
C104  O8    A    
C56   H60   S    
C43   C63   S    
C44   C64   S    
Cr6   O6    S    
C84   H115  S    
C80   H100  S    
C63   C98   S    
C51   H51   S    
Cr2   O2    S    
C19   H127  S    
C35   C39   S    
C109  H41   S    
C28   C40   S    
C72   H92   S    
C30   C38   S    
C113  H85   S    
C42   H38   S    
C75   H75   S    
C56   C72   S    
C45   O33   A    
C8    H132  S    
C18   C118  S    
C81   C86   S    
C83   C88   S    
C87   H106  S    
C48   O32   A    
C5    H129  S    
C41   C49   S    
Cr8   O28   S    
Cr1   O45   S    
Cr2   O42   S    
Cr3   O47   S    
Cr4   O48   S    
C26   C38   S    
Cr10  O34   S    
C14   C114  S    
Cr11  O39   S    
C60   C76   S    
C24   H8    S    
Cr8   O52   S    
C55   H59   S    
C29   H34   S    
C44   H40   S    
C88   H112  S    
C54   C70   S    
C48   O36   A    
C68   C72   S    
C43   H47   S    
C69   H61   S    
C13   C21   S    
C99   O47   A    
C79   H99   S    
C31   H25   S    
C64   C97   S    
C36   H29   S    
C15   C115  S    
C20   C120  S    
C1    O25   A    
C54   H82   S    
Cr9   O37   S    
C57   H65   S    
C59   C63   S    
C52   H52   S    
Cr4   O20   S    
C72   H64   S    
C57   C61   S    
C82   C85   S    
Cr6   O50   S    
C77   H97   S    
Cr11  O19   S    
C60   C64   S    
Cr9   O13   S    
C13   C45   S    
C102  O6    A    
C78   C94   S    
C69   H89   S    
C95   C108  S    
C60   H68   S    
C62   C99   S    
C107  O43   A    
C5    C21   S    
C58   H70   S    
C79   H95   S    
C31   C36   S    
C47   O35   A    
C4    O28   A    
C97   O45   A    
C55   C71   S    
C90   O38   A    
Cr1   O21   S    
C84   H102  S    
Cr2   O18   S    
C65   C101  S    
Cr10  O14   S    
Cr3   O23   S    
Cr11  O11   S    
C67   C103  S    
C66   C70   S    
Cr5   O5    S    
C37   C90   S    
C24   H140  S    
C41   H45   S    
C42   H46   S    
C55   H83   S    
C115  H119  S    
C66   C74   S    
C113  H117  S    
C25   H17   S    
C57   C73   S    
C53   C61   S    
C60   H72   S    
C83   H101  S    
C55   C63   S    
C6    H134  S    
C56   C64   S    
C7    H131  S    
Cr7   O51   S    
C116  H88   S    
C42   C62   S    
Cr5   O29   S    
C76   H80   S    
C83   C95   S    
C50   H50   S    
C1    C12   S    
Cr9   O33   S    
C112  H4    S    
C2    C11   S    
Cr3   O3    S    
C110  H42   S    
C6    H130  S    
C43   H39   S    
C25   C26   S    
C105  O13   A    
C107  O15   A    
C5    C9    S    
C108  O16   A    
C93   C106  S    
C71   H63   S    
C8    C12   S    
C90   O2    A    
C51   C67   S    
C7    H135  S    
C42   C50   S    
C49   H49   S    
C112  H44   S    
Cr2   O46   S    
Cr3   O43   S    
C110  H2    S    
C61   C100  S    
C67   C75   S    
C17   H125  S    
C50   H54   S    
C112  C116  S    
C58   C74   S    
Cr10  O38   S    
Cr11  O35   S    
C53   H81   S    
C54   H58   S    
C81   H114  S    
C30   H33   S    
C68   C76   S    
C33   Cl1   S    
C98   O46   A    
C85   H108  S    
C14   C22   S    
C35   Cl3   S    
C27   C39   S    
C7    C23   S    
C8    C24   S    
C40   C91   S    
C101  O9    A    
C56   H84   S    
Cr7   O27   S    
C46   O30   A    
C99   O51   A    
Cr8   O20   S    
C114  H86   S    
C49   H53   S    
C57   H69   S    
C52   H56   S    
Cr7   O7    S    
C4    C9    S    
Cr4   O24   S    
C53   H57   S    
Cr8   O8    S    
C86   H110  S    
C58   C62   S    
C89   O1    A    
C88   C96   S    
C94   C105  S    
C77   H93   S    
C82   H104  S    
C12   C112  S    
C44   H48   S    
C21   H137  S    
C14   C46   S    
C77   C78   S    
C15   C19   S    
C75   H79   S    
C101  O5    A    
C92   O40   A    
C6    C22   S    
Cr5   O17   S    
C66   C102  S    
C73   H73   S    
Cr6   O18   S    
Cr2   O22   S    
C103  O7    A    
Cr3   O19   S    
C46   O34   A    
C82   H113  S    
C17   C117  S    
C19   C119  S    
C27   H23   S    
C81   H103  S    
C2    O22   A    
Cr12  O36   S    
C16   C116  S    
C76   H76   S    
C9    C109  S    
C25   H21   S    
C26   H18   S    
C105  O41   A    
C54   C62   S    
C18   H14   S    
C109  H1    S    
C29   C34   S    
C108  O44   A    
C19   H15   S    
C41   C61   S    
C30   H28   S    
C79   C95   S    
Cr5   O25   S    
Cr6   O30   S    
C70   H62   S    
C85   H109  S    
C86   H107  S    
C80   H96   S    
Cr12  O12   S    
C96   C107  S    
C91   O39   A    
C100  O52   A    
C39   C92   S    
C33   C37   S    
C73   H77   S    
C27   H19   S    
C106  O14   A    
C14   C18   S    
C68   C104  S    
C119  H123  S    
C17   H13   S    
C6    C10   S    
C1    O21   A    
C78   H98   S    
C22   H6    S    
Cr5   O49   S    
C91   O3    A    
C104  O12   A    
C43   C51   S    
C41   H37   S    
C65   C69   S    
C77   C93   S    
C70   H90   S    
C10   C110  S    
C67   C71   S    
C111  H3    S    
Cr1   O1    S    
C18   H126  S    
C51   H55   S    
C3    O23   A    
C13   C17   S    
C59   H71   S    
C31   H36   S    
C32   H35   S    
C29   C37   S    
C11   C111  S    
C23   H139  S    
C9    C117  S    
C102  O10   A    
C117  H9    S    
C84   C87   S    
C15   C47   S    
C8    H136  S    
C11   C119  S    
C16   C48   S    
C29   H27   S    
C7    C11   S    
C38   C89   S    
C49   C65   S    
C74   H78   S    
C111  H43   S    
C23   H7    S    
Cr7   O31   S    
Cr8   O32   S    
Cr1   O41   S    
C114  H118  S    
C65   C73   S    
C84   C96   S    
Cr4   O44   S    
C86   C94   S    
C25   C37   S    
C12   C120  S    
C59   H67   S    
C83   H116  S    
Cr12  O20   S    
C80   C96   S    
C118  H122  S    
C52   C68   S    
C16   C20   S    
C22   H138  S    
C15   C23   S    
Cr9   O17   S    
C16   C24   S    
C115  H87   S    
C85   C93   S    
C2    O26   A    
C103  O11   A    
C32   H26   S    
C35   H30   S    
C71   H91   S    
C117  H121  S    
C32   C35   S    
C36   C40   S    
C33   H32   S    
C34   H31   S    
C97   O49   A    
Cr7   O19   S    
C116  H120  S    
C36   Cl4   S    
C87   C95   S    
C120  H124  S    
C10   C118  S    
C81   C93   S    
C87   H111  S    
C3    O27   A    
Cr10  O18   S    
C20   H16   S    
Cr12  O40   S    
Cr9   O9    S    
C50   C66   S    
C100  O48   A    
C20   H128  S    
C28   H20   S    
C45   O29   A    
C26   H22   S    
C92   O4    A    
C59   C75   S    
C106  O42   A    
C74   H74   S    
C110  C114  S    
C58   H66   S    
C30   C33   S    
C34   C38   S    
C47   O31   A    
C4    O24   A    
C118  H10   S    
C89   O37   A    
Cr6   O26   S    
C109  C113  S    
C34   Cl2   S    
Cr1   O17   S    
Cr10  O10   S    
C3    C10   S    
Cr11  O15   S    
Cr4   O4    S    
C44   C52   S    
Cr12  O16   S    
C88   H105  S    
C31   C39   S    
C32   C40   S    
C79   C80   S    
C98   O50   A    
C27   C28   S    
C28   H24   S    
C111  C115  S    
C13   C113  S    
