data_mof_unit_pretest_706.cif
_audit_creation_date              2012-12-11T14:35:52-0500
_audit_creation_method            fapswitch 2.2
_symmetry_space_group_name_H-M    P1
_symmetry_Int_Tables_number       1
_space_group_crystal_system       triclinic
_cell_length_a                    15.17599
_cell_length_b                    15.607838
_cell_length_c                    6.984504
_cell_angle_alpha                 89.525977
_cell_angle_beta                  81.757215
_cell_angle_gamma                 90.092155
_cell_volume                      1637.22708126

loop_
_atom_site_label
_atom_site_type_symbol
_atom_type_description
_atom_site_fract_x
_atom_site_fract_y
_atom_site_fract_z
_atom_type_partial_charge
O1    O     O_R   0.337460 0.413110 0.524760 -0.491708
O2    O     O_R   0.662540 0.913110 0.475240 -0.513579
O3    O     O_R   0.348690 0.587910 0.191230 -0.556642
O4    O     O_R   0.651310 0.087910 0.808770 -0.554639
O5    O     O_R   0.166530 0.586890 0.082470 -0.555451
O6    O     O_R   0.833470 0.086890 0.917530 -0.556086
C1    C     C_R   0.364573 0.620342 0.355041 0.705952
C2    C     C_R   0.640424 0.123128 0.642530 0.720491
O7    O     O_R   0.348700 0.413830 0.191250 -0.541075
O8    O     O_R   0.651300 0.913830 0.808750 -0.535293
O9    O     O_R   0.166530 0.411570 0.082490 -0.515643
O10   O     O_R   0.833470 0.911570 0.917510 -0.511105
C3    C     C_R   0.372278 0.386743 0.356152 0.846871
C4    C     C_R   0.625328 0.889199 0.645178 0.827261
O11   O     O_R   0.337460 0.588430 0.524740 -0.547015
O12   O     O_R   0.662540 0.088430 0.475260 -0.544868
O13   O     O_3   0.192230 0.499460 0.407330 -0.374968
O14   O     O_3   0.807770 0.999460 0.592670 -0.373759
V1    V     V_3+5 0.263080 0.500100 0.108540 1.475952
V2    V     V_3+5 0.736920 0.000100 0.891460 1.469241
O15   O     O_R   0.155290 0.412090 0.756570 -0.507282
O16   O     O_R   0.844710 0.912090 0.243430 -0.517797
C5    C     C_R   0.130930 0.384201 0.934031 0.767738
C6    C     C_R   0.866366 0.881506 0.067987 0.752665
O17   O     O_R   0.155290 0.586170 0.756550 -0.564457
O18   O     O_R   0.844710 0.086170 0.243450 -0.561046
C7    C     C_R   0.135125 0.616715 0.931807 0.674262
C8    C     C_R   0.864458 0.116989 0.067417 0.684698
V3    V     V_3+5 0.240910 0.499900 0.616030 1.509862
V4    V     V_3+5 0.759090 0.999900 0.383970 1.477149
O19   O     O_3   0.311760 0.500540 0.867100 -0.368531
O20   O     O_3   0.688240 0.000540 0.132900 -0.370799
C9    C     C_3   0.087421 0.753321 0.118452 -0.363573
C10   C     C_3   0.911606 0.254398 0.876860 -0.357874
H1    H     H_    0.099025 0.723583 0.256948 0.135510
H2    H     H_    0.903197 0.224654 0.737408 0.137845
H3    H     H_    0.151935 0.784707 0.061779 0.149785
H4    H     H_    0.845691 0.283604 0.928495 0.148613
C11   C     C_3   0.014377 0.823491 0.154644 -0.364979
C12   C     C_3   0.982892 0.326950 0.845531 -0.365327
H5    H     H_    0.045248 0.887424 0.118280 0.148728
H6    H     H_    0.950157 0.389514 0.883952 0.146496
H7    H     H_    0.989096 0.825720 0.308631 0.235321
H8    H     H_    0.008807 0.332794 0.692535 0.235834
C13   C     C_3   0.970207 0.645677 0.032982 0.312611
C14   C     C_3   0.029119 0.148935 0.971003 0.301208
C15   C     C_3   0.058456 0.739928 0.781850 -0.429532
C16   C     C_3   0.937265 0.241249 0.216611 -0.423801
C17   C     C_3   0.064397 0.686367 0.968682 -0.036102
C18   C     C_3   0.934072 0.187740 0.030044 -0.039776
H9    H     H_    0.045854 0.696923 0.663120 0.165656
H10   H     H_    0.948955 0.198435 0.338103 0.166859
H11   H     H_    0.123570 0.771536 0.731527 0.144298
H12   H     H_    0.871476 0.271817 0.262511 0.146038
C19   C     C_3   0.937389 0.809010 0.033357 -0.023993
C20   C     C_3   0.059175 0.312504 0.969236 -0.028198
C21   C     C_3   0.896758 0.716156 0.073377 0.088954
C22   C     C_3   0.100994 0.221056 0.930726 0.105576
C23   C     C_3   0.984405 0.809708 0.818778 0.079950
C24   C     C_3   0.010563 0.312174 0.181737 0.069129
H13   H     H_    0.015029 0.873591 0.785164 0.140224
H14   H     H_    0.979121 0.375537 0.212693 0.144383
H15   H     H_    0.954535 0.614344 0.899932 0.079408
H16   H     H_    0.043695 0.118335 0.107002 0.081030
H17   H     H_    0.848570 0.705874 0.970392 0.134268
H18   H     H_    0.147737 0.210786 0.036175 0.123192
H19   H     H_    0.429811 0.700021 0.647723 0.131838
H20   H     H_    0.560426 0.190150 0.354728 0.143729
C25   C     C_2   0.421475 0.696675 0.347658 -0.300754
C26   C     C_2   0.586144 0.200755 0.644039 -0.327062
C27   C     C_2   0.450760 0.728689 0.506109 -0.214742
C28   C     C_2   0.544578 0.222684 0.492340 -0.255865
H21   H     H_    0.514065 0.809526 0.790023 0.111356
H22   H     H_    0.486976 0.312508 0.215540 0.093833
C29   C     C_2   0.548486 0.829066 0.649340 -0.451283
C30   C     C_2   0.446838 0.324505 0.354449 -0.419130
C31   C     C_2   0.519413 0.796974 0.487851 0.461592
C32   C     C_2   0.468099 0.283020 0.514506 0.477999
H23   H     H_    0.438511 0.728096 0.208302 0.166055
H24   H     H_    0.573258 0.236104 0.778594 0.150401
Br1   Br    Br    0.899428 0.793322 0.641914 -0.599521
Br2   Br    Br    0.093624 0.296138 0.361547 -0.605333
O21   O     O_3   0.558806 0.819200 0.301686 -0.545898
C33   C     C_3   0.631397 0.763600 0.245266 0.177516
H25   H     H_    0.639920 0.712878 0.354901 0.153514
H26   H     H_    0.691889 0.804128 0.219892 0.185281
C34   C     C_3   0.625422 0.717851 0.055730 -0.743548
H27   H     H_    0.683721 0.674992 0.021392 0.218281
H28   H     H_    0.565173 0.677434 0.063331 0.207333
H29   H     H_    0.628144 0.764676 0.937055 0.229592
O22   O     O_3   0.419747 0.296506 0.697380 -0.530817
C35   C     C_3   0.388493 0.217156 0.783683 0.127612
H30   H     H_    0.441095 0.173952 0.819693 0.100251
H31   H     H_    0.352347 0.180165 0.684991 0.168406
C36   C     C_3   0.331287 0.232756 0.976501 -0.595247
H32   H     H_    0.293695 0.173595 0.025196 0.183597
H33   H     H_    0.374221 0.247538 0.086056 0.184723
H34   H     H_    0.285539 0.287162 0.965740 0.248620
O23   O     O_3   0.964121 0.575160 0.167019 -0.556328
C37   C     C_3   0.989144 0.592684 0.350535 0.171913
H35   H     H_    0.977394 0.659491 0.396623 0.178542
H36   H     H_    0.059931 0.579180 0.350282 0.147911
C38   C     C_3   0.938617 0.533417 0.503118 -0.638901
H37   H     H_    0.938900 0.466783 0.450752 0.213043
H38   H     H_    0.971432 0.533313 0.634850 0.151755
H39   H     H_    0.868618 0.554476 0.541468 0.255902
O24   O     O_3   0.038433 0.078076 0.840943 -0.558330
C39   C     C_3   0.014556 0.093677 0.655320 0.161415
H40   H     H_    0.023897 0.160726 0.606692 0.182221
H41   H     H_    0.944550 0.076320 0.653574 0.150024
C40   C     C_3   0.069631 0.036656 0.507545 -0.645692
H42   H     H_    0.072243 0.970325 0.563376 0.210909
H43   H     H_    0.038825 0.034445 0.373175 0.156739
H44   H     H_    0.138655 0.061359 0.472455 0.253412
Br3   Br    Br    0.817520 0.696658 0.310563 -0.619851
Br4   Br    Br    0.182137 0.208968 0.693623 -0.585175

loop_
_geom_bond_atom_site_label_1
_geom_bond_atom_site_label_2
_ccdc_geom_bond_type
C34   H27   S    
O11   V3    S    
C19   C23   S    
C36   H32   S    
O13   V3    S    
C40   H42   S    
C33   C34   S    
O4    C2    A    
V1    O19   S    
C36   H34   S    
C5    C20   S    
C21   Br3   S    
C6    C19   S    
C16   H12   S    
C13   C21   S    
C9    C11   S    
H22   C30   S    
C10   C12   S    
C33   H26   S    
C16   H10   S    
O3    C1    A    
C31   O21   S    
C9    C17   S    
C39   H40   S    
C24   H14   S    
C25   C27   D    
O7    C3    A    
C35   H30   S    
C28   C32   S    
O13   V1    S    
O5    C7    A    
C24   Br2   S    
O7    V1    S    
O6    C8    A    
O21   C33   S    
O8    V2    S    
C12   C20   S    
O24   C39   S    
O3    V1    S    
O14   V4    S    
C40   H44   S    
H19   C27   S    
C15   H11   S    
C16   C18   S    
C2    O12   A    
C14   C22   S    
C22   Br4   S    
H21   C29   S    
C8    C18   S    
C37   H36   S    
C22   H18   S    
C16   C24   S    
O17   V3    S    
C11   C19   S    
C10   C18   S    
C23   H13   S    
C26   H24   S    
C33   H25   S    
C15   C17   S    
C13   O23   S    
C21   H17   S    
O22   C35   S    
C15   H9    S    
C1    O11   A    
O15   V3    S    
C13   H15   S    
C35   C36   S    
C9    H3    S    
C20   C24   S    
C14   H16   S    
O23   C37   S    
C3    C30   S    
C13   C17   S    
H20   C28   S    
O9    V1    S    
C14   O24   S    
O10   V2    S    
C35   H31   S    
C40   H43   S    
C29   C31   D    
O18   V4    S    
C19   C21   S    
O8    C4    A    
C38   H38   S    
O16   C6    A    
C25   H23   S    
O1    C3    A    
C27   C31   S    
V2    O20   S    
C14   C18   S    
O16   V4    S    
C10   H4    S    
C2    C26   S    
C23   Br1   S    
C30   C32   D    
C12   H6    S    
C1    C25   S    
C11   H7    S    
C36   H33   S    
O5    V1    S    
C32   O22   S    
O17   C7    A    
O6    V2    S    
O10   C6    A    
O18   C8    A    
C39   C40   S    
O2    V4    S    
C4    C29   S    
O15   C5    A    
V3    O19   S    
V4    O20   S    
O1    V3    S    
C39   H41   S    
O9    C5    A    
C37   H35   S    
C9    H1    S    
C10   H2    S    
C20   C22   S    
C38   H39   S    
O14   V2    S    
C37   C38   S    
O2    C4    A    
C15   C23   S    
O4    V2    S    
C12   H8    S    
C11   H5    S    
C34   H29   S    
C38   H37   S    
C34   H28   S    
C26   C28   D    
O12   V4    S    
C7    C17   S    
