data_mof_unit_pretest_1671.cif
_audit_creation_date              2012-12-10T18:50:46-0500
_audit_creation_method            fapswitch 2.2
_symmetry_space_group_name_H-M    P1
_symmetry_Int_Tables_number       1
_space_group_crystal_system       triclinic
_cell_length_a                    37.25567
_cell_length_b                    30.252908
_cell_length_c                    21.722007
_cell_angle_alpha                 89.510942
_cell_angle_beta                  125.469936
_cell_angle_gamma                 90.399399
_cell_volume                      19938.422247

loop_
_atom_site_label
_atom_site_type_symbol
_atom_type_description
_atom_site_fract_x
_atom_site_fract_y
_atom_site_fract_z
_atom_type_partial_charge
C1    C     C_R   0.413696 0.499895 0.914845 0.863499
C2    C     C_R   0.586368 0.499973 0.085505 0.866584
C3    C     C_R   0.913698 0.999896 0.914853 0.863486
C4    C     C_R   0.086369 0.999973 0.085507 0.866585
C5    C     C_2   0.506899 0.502112 0.822026 -0.348565
C6    C     C_2   0.492671 0.497916 0.177535 -0.348811
C7    C     C_2   0.006903 0.002108 0.822030 -0.348523
C8    C     C_2   0.992671 0.997916 0.177535 -0.348867
C9    C     C_R   0.295676 0.463865 0.818553 -0.170510
C10   C     C_R   0.704722 0.463590 0.188500 -0.174167
C11   C     C_R   0.795692 0.963909 0.818805 -0.170512
C12   C     C_R   0.204726 0.963573 0.188616 -0.174102
C13   C     C_R   0.341595 0.462130 0.864414 0.096500
C14   C     C_R   0.658831 0.461383 0.143095 0.094515
C15   C     C_R   0.841612 0.962183 0.864658 0.096431
C16   C     C_R   0.158835 0.961367 0.143196 0.094517
C17   C     C_R   0.365665 0.499903 0.869078 -0.052070
C18   C     C_R   0.634512 0.500124 0.131870 -0.053058
C19   C     C_R   0.865672 0.999906 0.869103 -0.051978
C20   C     C_R   0.134514 0.000123 0.131878 -0.053104
C21   C     C_R   0.343446 0.538665 0.829509 -0.230944
C22   C     C_R   0.656666 0.540003 0.165634 -0.227050
C23   C     C_R   0.843447 0.038618 0.829338 -0.230938
C24   C     C_R   0.156667 0.040017 0.165555 -0.227024
C25   C     C_R   0.297890 0.540059 0.785085 -0.192921
C26   C     C_R   0.702241 0.541679 0.210113 -0.191448
C27   C     C_R   0.797891 0.040007 0.784917 -0.192877
C28   C     C_R   0.202242 0.041693 0.210034 -0.191495
C29   C     C_R   0.274043 0.502717 0.779646 0.123062
C30   C     C_R   0.726176 0.503560 0.221201 0.124919
C31   C     C_R   0.774052 0.002710 0.779685 0.123036
C32   C     C_R   0.226180 0.003557 0.221221 0.124899
C33   C     C_R   0.204777 0.515462 0.655308 -0.259990
C34   C     C_R   0.795621 0.518508 0.343912 -0.261037
C35   C     C_R   0.704795 0.015277 0.655265 -0.260005
C36   C     C_R   0.295636 0.018645 0.343856 -0.260960
C37   C     C_R   0.158880 0.515425 0.606413 0.116321
C38   C     C_R   0.841525 0.517996 0.392742 0.111209
C39   C     C_R   0.658899 0.015239 0.606360 0.116303
C40   C     C_R   0.341542 0.018144 0.392675 0.111114
C41   C     C_R   0.134461 0.502647 0.634751 -0.070032
C42   C     C_R   0.865635 0.503099 0.365304 -0.071092
C43   C     C_R   0.634467 0.002632 0.634754 -0.069999
C44   C     C_R   0.365641 0.003107 0.365301 -0.071178
C45   C     C_R   0.501860 0.500313 0.882880 0.938005
C46   C     C_R   0.498004 0.499693 0.116984 0.933679
C47   C     C_R   0.001862 0.000312 0.882882 0.937921
C48   C     C_R   0.998004 0.999693 0.116984 0.933692
C49   C     C_R   0.156250 0.491815 0.711479 -0.287682
C50   C     C_R   0.843625 0.490542 0.289506 -0.280970
C51   C     C_R   0.656251 0.991958 0.711540 -0.287570
C52   C     C_R   0.343627 0.990421 0.289565 -0.280972
C53   C     C_R   0.201960 0.492568 0.760084 0.117283
C54   C     C_R   0.797923 0.491521 0.241041 0.117376
C55   C     C_R   0.701961 0.992710 0.760149 0.117263
C56   C     C_R   0.297925 0.991401 0.241101 0.117362
C57   C     C_R   0.226186 0.503807 0.731348 0.086741
C58   C     C_R   0.773985 0.504970 0.268950 0.085905
C59   C     C_R   0.726196 0.003788 0.731367 0.086774
C60   C     C_R   0.273992 0.004972 0.268957 0.085902
C61   C     C_R   0.499956 0.413921 0.499957 0.878159
C62   C     C_R   0.999956 0.913917 0.499958 0.877919
C63   C     C_R   0.499813 0.498291 0.618814 0.953071
C64   C     C_R   0.500187 0.501634 0.381181 0.953362
C65   C     C_R   0.999813 0.998287 0.618814 0.953001
C66   C     C_R   0.000187 0.001635 0.381180 0.953224
C67   C     C_R   0.500049 0.586278 0.500134 0.864403
C68   C     C_R   0.000049 0.086278 0.500134 0.864420
C69   C     C_R   0.000024 0.413580 0.500258 0.892899
C70   C     C_R   0.500023 0.913580 0.500258 0.892917
C71   C     C_R   0.086413 0.500919 0.586306 0.896532
C72   C     C_R   0.913619 0.501010 0.413704 0.891349
C73   C     C_R   0.586415 0.000914 0.586307 0.896683
C74   C     C_R   0.413621 0.001014 0.413705 0.891112
C75   C     C_R   0.000111 0.586122 0.499858 0.911045
C76   C     C_R   0.500114 0.086124 0.499863 0.910922
C77   C     C_R   0.479290 0.297442 0.430050 -0.207236
C78   C     C_R   0.520853 0.296386 0.566952 -0.209373
C79   C     C_R   0.978981 0.797417 0.430036 -0.207342
C80   C     C_R   0.021180 0.796377 0.567016 -0.209497
C81   C     C_R   0.000439 0.273700 0.501924 -0.012099
C82   C     C_R   0.500437 0.773699 0.501922 -0.012109
C83   C     C_R   0.478821 0.343382 0.430095 -0.018504
C84   C     C_R   0.521097 0.342290 0.568024 -0.014816
C85   C     C_R   0.978515 0.843355 0.430075 -0.018533
C86   C     C_R   0.021411 0.842281 0.568079 -0.014748
C87   C     C_R   0.499883 0.365974 0.499351 -0.115885
C88   C     C_R   0.999885 0.865963 0.499364 -0.116190
C89   C     C_R   0.500166 0.273884 0.498252 0.094506
C90   C     C_R   0.000175 0.773870 0.498279 0.094515
C91   C     C_R   0.039152 0.702642 0.550225 -0.199272
C92   C     C_R   0.961434 0.702522 0.445879 -0.203575
C93   C     C_R   0.539034 0.202651 0.550755 -0.199376
C94   C     C_R   0.461556 0.202526 0.445312 -0.203706
C95   C     C_R   0.039346 0.656562 0.551706 0.055967
C96   C     C_R   0.961089 0.656426 0.445938 0.064288
C97   C     C_R   0.539222 0.156572 0.552265 0.055942
C98   C     C_R   0.461215 0.156429 0.445372 0.064380
C99   C     C_R   0.000153 0.633755 0.499309 -0.040272
C100  C     C_R   0.500153 0.133761 0.499309 -0.040627
C101  C     C_R   0.000282 0.725602 0.497928 0.073830
C102  C     C_R   0.500282 0.225611 0.497903 0.073973
C103  C     C_R   0.460456 0.703093 0.467332 -0.154282
C104  C     C_R   0.540227 0.703223 0.536399 -0.153285
C105  C     C_R   0.960452 0.203094 0.467262 -0.154271
C106  C     C_R   0.040232 0.203223 0.536470 -0.153289
C107  C     C_R   0.460287 0.657317 0.466515 -0.190373
C108  C     C_R   0.540170 0.657444 0.535846 -0.186215
C109  C     C_R   0.960282 0.157318 0.466446 -0.190372
C110  C     C_R   0.040175 0.157443 0.535916 -0.186204
C111  C     C_R   0.500167 0.634278 0.500772 -0.031096
C112  C     C_R   0.000167 0.134279 0.500772 -0.031110
C113  C     C_R   0.004721 0.296817 0.450029 0.013503
C114  C     C_R   0.996038 0.296556 0.553329 0.013940
C115  C     C_R   0.504631 0.796816 0.449926 0.013509
C116  C     C_R   0.496125 0.796556 0.553427 0.013944
C117  C     C_R   0.500394 0.725801 0.502153 0.122574
C118  C     C_R   0.000394 0.225802 0.502154 0.122570
C119  C     C_R   0.000165 0.365561 0.500887 -0.071417
C120  C     C_R   0.500164 0.865560 0.500885 -0.071428
C121  C     C_R   0.004490 0.342677 0.449749 -0.234046
C122  C     C_R   0.996007 0.342439 0.552592 -0.234300
C123  C     C_R   0.504402 0.842675 0.449648 -0.234051
C124  C     C_R   0.496093 0.842438 0.552690 -0.234298
C125  C     C_2   0.533404 0.477677 0.749607 -0.184394
C126  C     C_2   0.467016 0.523176 0.250914 -0.193611
C127  C     C_2   0.033399 0.977653 0.749600 -0.184719
C128  C     C_2   0.967015 0.023175 0.250912 -0.193624
C129  C     C_2   0.498542 0.492548 0.683361 -0.357632
C130  C     C_2   0.501452 0.507160 0.316599 -0.348596
C131  C     C_2   0.998542 0.992541 0.683361 -0.357798
C132  C     C_2   0.001452 0.007161 0.316599 -0.348817
C133  C     C_2   0.530817 0.472686 0.814166 0.150785
C134  C     C_2   0.469553 0.527979 0.186233 0.147436
C135  C     C_2   0.030819 0.972676 0.814169 0.150806
C136  C     C_2   0.969551 0.027977 0.186231 0.147453
H1    H     H_    0.563494 0.468093 0.756124 0.179679
H2    H     H_    0.437445 0.534016 0.245142 0.166606
H3    H     H_    0.063480 0.968051 0.756101 0.179758
H4    H     H_    0.937442 0.034013 0.245140 0.166631
H5    H     H_    0.137871 0.482499 0.734087 0.168463
H6    H     H_    0.861828 0.479532 0.267675 0.167813
H7    H     H_    0.637869 0.982771 0.734195 0.168489
H8    H     H_    0.361828 0.979311 0.267785 0.167766
H9    H     H_    0.463905 0.280006 0.376943 0.140955
H10   H     H_    0.536326 0.278118 0.619668 0.138705
H11   H     H_    0.963344 0.779968 0.376891 0.140998
H12   H     H_    0.036906 0.778108 0.619773 0.138733
H13   H     H_    0.069317 0.720638 0.589517 0.135450
H14   H     H_    0.931301 0.720409 0.406151 0.135148
H15   H     H_    0.569120 0.220644 0.590471 0.135404
H16   H     H_    0.431502 0.220406 0.405153 0.135089
H17   H     H_    0.007776 0.360451 0.409686 0.166473
H18   H     H_    0.992617 0.360042 0.592237 0.166142
H19   H     H_    0.507618 0.860448 0.409505 0.166481
H20   H     H_    0.492773 0.860041 0.592414 0.166149
H21   H     H_    0.429645 0.720862 0.440745 0.135707
H22   H     H_    0.571109 0.721094 0.563248 0.136412
H23   H     H_    0.929637 0.220864 0.440620 0.135708
H24   H     H_    0.071118 0.221093 0.563374 0.136406
H25   H     H_    0.467106 0.498115 0.674682 0.157684
H26   H     H_    0.532639 0.500553 0.324928 0.156411
H27   H     H_    0.967110 0.998121 0.674688 0.157718
H28   H     H_    0.032639 0.000557 0.324928 0.156452
H29   H     H_    0.429077 0.640066 0.439312 0.158402
H30   H     H_    0.571292 0.640293 0.562510 0.159370
H31   H     H_    0.929069 0.140068 0.439185 0.158406
H32   H     H_    0.071301 0.140292 0.562637 0.159378
H33   H     H_    0.493208 0.531087 0.785547 0.136487
H34   H     H_    0.505561 0.468566 0.213201 0.141278
H35   H     H_    0.993213 0.031080 0.785547 0.136497
H36   H     H_    0.005564 0.968568 0.213204 0.141196
H37   H     H_    0.276671 0.434983 0.813115 0.135466
H38   H     H_    0.723877 0.434162 0.198450 0.134031
H39   H     H_    0.776694 0.935062 0.813533 0.135475
H40   H     H_    0.223881 0.934132 0.198644 0.134058
H41   H     H_    0.361286 0.567917 0.832371 0.169620
H42   H     H_    0.638788 0.570004 0.158064 0.171692
H43   H     H_    0.861284 0.067829 0.832037 0.169555
H44   H     H_    0.138789 0.070031 0.157909 0.171709
H45   H     H_    0.281176 0.570218 0.754882 0.141813
H46   H     H_    0.718895 0.572674 0.235756 0.141644
H47   H     H_    0.781171 0.070125 0.754549 0.141852
H48   H     H_    0.218894 0.072702 0.235596 0.141622
H49   H     H_    0.224002 0.524370 0.634118 0.142140
H50   H     H_    0.776566 0.529035 0.364389 0.142523
H51   H     H_    0.724027 0.024059 0.634039 0.142142
H52   H     H_    0.276588 0.029272 0.364293 0.142511
O1    O     O_R   0.434530 0.536960 0.934530 -0.633405
O2    O     O_R   0.565470 0.536960 0.065470 -0.632545
O3    O     O_R   0.934530 0.036960 0.934530 -0.633385
O4    O     O_R   0.065470 0.036960 0.065470 -0.632548
O5    O     O_R   0.065470 0.500010 0.514410 -0.599049
O6    O     O_R   0.934530 0.500010 0.485590 -0.600121
O7    O     O_R   0.565470 0.000010 0.514410 -0.599155
O8    O     O_R   0.434530 0.000010 0.485590 -0.600045
O9    O     O_R   0.065460 0.500010 0.616540 -0.635431
O10   O     O_R   0.934540 0.500010 0.383460 -0.628513
O11   O     O_R   0.565460 0.000010 0.616540 -0.635382
O12   O     O_R   0.434540 0.000010 0.383460 -0.628472
O13   O     O_R   0.000010 0.565480 0.448930 -0.605034
O14   O     O_R   0.999990 0.565480 0.551070 -0.637678
O15   O     O_R   0.500010 0.065480 0.448930 -0.604975
O16   O     O_R   0.499990 0.065480 0.551070 -0.637627
O17   O     O_R   0.434530 0.463040 0.934530 -0.598229
O18   O     O_R   0.565470 0.463040 0.065470 -0.598942
O19   O     O_R   0.934530 0.963040 0.934530 -0.598190
O20   O     O_R   0.065470 0.963040 0.065470 -0.598966
O21   O     O_R   0.500010 0.536960 0.909550 -0.629014
O22   O     O_R   0.499990 0.536960 0.090450 -0.588317
O23   O     O_R   0.000010 0.036960 0.909550 -0.629012
O24   O     O_R   0.999990 0.036960 0.090450 -0.588301
O25   O     O_R   0.500010 0.463040 0.909550 -0.588591
O26   O     O_R   0.499990 0.463040 0.090450 -0.628834
O27   O     O_R   0.000010 0.963040 0.909550 -0.588626
O28   O     O_R   0.999990 0.963040 0.090450 -0.628832
O29   O     O_R   0.536960 0.434530 0.536970 -0.615802
O30   O     O_R   0.463040 0.434530 0.463030 -0.613067
O31   O     O_R   0.036960 0.934530 0.536970 -0.615727
O32   O     O_R   0.963040 0.934530 0.463030 -0.613027
O33   O     O_R   0.536950 0.500000 0.627420 -0.614437
O34   O     O_R   0.463050 0.500000 0.372580 -0.612272
O35   O     O_R   0.036950 0.000000 0.627420 -0.614358
O36   O     O_R   0.963050 0.000000 0.372580 -0.612237
O37   O     O_R   0.463030 0.500000 0.553490 -0.624286
O38   O     O_R   0.536970 0.500000 0.446510 -0.625014
O39   O     O_R   0.963030 1.000000 0.553490 -0.624286
O40   O     O_R   0.036970 1.000000 0.446510 -0.624989
O41   O     O_R   0.536960 0.565470 0.536960 -0.627923
O42   O     O_R   0.463040 0.565470 0.463040 -0.631739
O43   O     O_R   0.036960 0.065470 0.536960 -0.627916
O44   O     O_R   0.963040 0.065470 0.463040 -0.631733
O45   O     O_R   0.000000 0.434540 0.448940 -0.627912
O46   O     O_R   0.000000 0.434540 0.551060 -0.626607
O47   O     O_R   0.500000 0.934540 0.448940 -0.627904
O48   O     O_R   0.500000 0.934540 0.551060 -0.626621
Zn1   Zn    Zn3+2 0.500000 0.549350 0.000000 0.964678
Zn2   Zn    Zn3+2 0.000000 0.049350 0.000000 0.964691
Zn3   Zn    Zn3+2 0.500000 0.450640 0.000000 0.988009
Zn4   Zn    Zn3+2 0.000000 0.950640 0.000000 0.987995
Zn5   Zn    Zn3+2 0.549360 0.500000 0.549360 0.964714
Zn6   Zn    Zn3+2 0.450640 0.500000 0.450640 0.964522
Zn7   Zn    Zn3+2 0.049360 1.000000 0.549360 0.964830
Zn8   Zn    Zn3+2 0.950640 1.000000 0.450640 0.964573
Zn9   Zn    Zn3+2 0.000010 0.500010 0.431810 0.973859
Zn10  Zn    Zn3+2 0.999990 0.500010 0.568190 0.956581
Zn11  Zn    Zn3+2 0.500010 0.000010 0.431810 0.973834
Zn12  Zn    Zn3+2 0.499990 0.000010 0.568190 0.956579
N1    N     N_3   0.137233 0.528944 0.528936 -0.425704
H53   H     H_    0.122833 0.559723 0.522683 0.191993
H54   H     H_    0.160133 0.533734 0.516299 0.174690
N2    N     N_3   0.863514 0.533013 0.469264 -0.425538
H55   H     H_    0.878660 0.563172 0.473538 0.174351
H56   H     H_    0.840740 0.539456 0.481503 0.176100
N3    N     N_3   0.637268 0.028580 0.528806 -0.425701
H57   H     H_    0.622910 0.059409 0.522378 0.191817
H58   H     H_    0.660172 0.033207 0.516140 0.174697
N4    N     N_3   0.363545 0.033325 0.469113 -0.425551
H59   H     H_    0.378724 0.063431 0.473222 0.174299
H60   H     H_    0.340777 0.039911 0.481310 0.176130
N5    N     N_3   0.223727 0.482586 0.838734 -0.469414
H61   H     H_    0.214251 0.450789 0.843241 0.178910
H62   H     H_    0.212509 0.504789 0.860666 0.188247
N6    N     N_3   0.775835 0.479299 0.163394 -0.468029
H63   H     H_    0.784895 0.446919 0.161815 0.177770
H64   H     H_    0.787191 0.499972 0.139256 0.190189
N7    N     N_3   0.723722 0.982893 0.838850 -0.469413
H65   H     H_    0.714238 0.951139 0.843531 0.178917
H66   H     H_    0.712505 0.005198 0.860652 0.188236
N8    N     N_3   0.275835 0.979057 0.163506 -0.468064
H67   H     H_    0.284890 0.946651 0.162062 0.177768
H68   H     H_    0.287191 0.999650 0.139280 0.190193
C137  C     C_1   0.008925 0.274106 0.396222 0.154534
N9    N     N_1   0.012291 0.255892 0.353182 -0.199010
C138  C     C_1   0.991896 0.273557 0.607536 0.154316
N10   N     N_1   0.988578 0.255112 0.650902 -0.200711
C139  C     C_1   0.508743 0.774103 0.396017 0.154540
N11   N     N_1   0.512036 0.755888 0.352895 -0.199026
C140  C     C_1   0.492075 0.773556 0.607737 0.154329
N12   N     N_1   0.488830 0.755110 0.651185 -0.200708
C141  C     C_1   0.457870 0.366646 0.358759 0.162672
N13   N     N_1   0.441143 0.385304 0.301708 -0.200651
C142  C     C_1   0.542237 0.364275 0.640023 0.166306
N14   N     N_1   0.559191 0.381797 0.697724 -0.224794
C143  C     C_1   0.957250 0.866598 0.358670 0.163153
N15   N     N_1   0.940270 0.885240 0.301561 -0.200514
C144  C     C_1   0.042849 0.864269 0.640129 0.166750
N16   N     N_1   0.060038 0.881799 0.697868 -0.224755
N17   N     N_3   0.079207 0.632681 0.604739 -0.473400
H69   H     H_    0.075253 0.617420 0.643815 0.191852
H70   H     H_    0.105836 0.654457 0.635416 0.182174
N18   N     N_3   0.921386 0.632381 0.392619 -0.451791
H71   H     H_    0.911126 0.616525 0.422905 0.162300
H72   H     H_    0.896124 0.654093 0.354872 0.184461
N19   N     N_3   0.578969 0.132700 0.605886 -0.473094
H73   H     H_    0.574667 0.117504 0.644590 0.192302
H74   H     H_    0.605570 0.154474 0.636894 0.182110
N20   N     N_3   0.421634 0.132383 0.391510 -0.451229
H75   H     H_    0.411020 0.116536 0.421273 0.162102
H76   H     H_    0.396480 0.154092 0.353427 0.184432
N21   N     N_3   0.555550 0.438556 0.869626 -0.415524
H77   H     H_    0.569946 0.417863 0.851341 0.187665
H78   H     H_    0.581441 0.453910 0.918778 0.162515
N22   N     N_3   0.445851 0.562876 0.131835 -0.412177
H79   H     H_    0.431767 0.583763 0.150447 0.178202
H80   H     H_    0.419748 0.548373 0.081853 0.174659
N23   N     N_3   0.055554 0.938550 0.869638 -0.415594
H81   H     H_    0.069971 0.917868 0.851383 0.187537
H82   H     H_    0.081427 0.953909 0.918803 0.162622
N24   N     N_3   0.945846 0.062872 0.131829 -0.412160
H83   H     H_    0.931760 0.083759 0.150439 0.178205
H84   H     H_    0.919744 0.048366 0.081849 0.174638
N25   N     N_3   0.363600 0.422670 0.907024 -0.425734
H85   H     H_    0.377957 0.429640 0.963914 0.184329
H86   H     H_    0.340930 0.397132 0.892227 0.174658
N26   N     N_3   0.637196 0.420290 0.107869 -0.425083
H87   H     H_    0.624463 0.423053 0.050630 0.182759
H88   H     H_    0.659856 0.394307 0.129729 0.173497
N27   N     N_3   0.863633 0.922787 0.907484 -0.425740
H89   H     H_    0.878016 0.929888 0.964341 0.184206
H90   H     H_    0.840967 0.897273 0.892874 0.174694
N28   N     N_3   0.137202 0.920259 0.108047 -0.425093
H91   H     H_    0.124482 0.922975 0.050808 0.182818
H92   H     H_    0.159862 0.894274 0.129975 0.173489

loop_
_geom_bond_atom_site_label_1
_geom_bond_atom_site_label_2
_ccdc_geom_bond_type
C10   H38   S    
N28   H92   S    
N3    H58   S    
C55   C59   A    
C65   O35   A    
C56   N8    S    
O34   Zn6   S    
N21   H77   S    
C77   C89   A    
C52   H8    S    
C127  H3    S    
C61   O29   A    
C72   O6    A    
C86   C88   A    
C16   N28   S    
C94   H16   S    
C96   C99   A    
C31   C59   S    
C34   H50   S    
C9    C13   A    
C79   C90   A    
C80   C86   A    
C11   C15   A    
C12   C16   A    
O35   Zn7   S    
C45   O25   A    
C3    C19   S    
C14   N26   S    
C23   H43   S    
C68   O43   A    
C21   H41   S    
O1    Zn1   S    
O44   Zn8   S    
C106  C118  A    
C103  C117  A    
O2    Zn1   S    
C41   C49   A    
C75   O14   A    
C114  C138  S    
C4    O20   A    
C78   C89   A    
C25   C29   A    
N24   H84   S    
C115  C123  A    
C27   C31   A    
C96   N18   S    
C28   C32   A    
C91   H13   S    
C40   N4    S    
C103  H21   S    
O37   Zn6   S    
C46   O22   A    
O7    Zn11  S    
C69   C119  S    
C17   C21   A    
N26   H87   S    
C36   H52   S    
C19   C23   A    
C10   C30   A    
O4    Zn2   S    
C16   C20   A    
C42   C72   S    
C44   C74   S    
O19   Zn4   S    
C26   H46   S    
C74   O12   A    
N8    H68   S    
C105  C118  A    
N20   H75   S    
C79   C85   A    
C104  C117  A    
C108  H30   S    
C2    O2    A    
C51   H7    S    
C76   C100  S    
C108  C111  A    
C3    O19   A    
C62   O31   A    
N18   H72   S    
O45   Zn9   S    
C52   C56   A    
C49   C53   A    
C51   C55   A    
C70   O47   A    
C127  C131  D    
C78   H10   S    
C4    C20   S    
C125  C129  D    
C80   H12   S    
C39   N3    S    
C67   O41   A    
O6    Zn10  S    
C34   C58   A    
C126  C130  D    
C103  C107  A    
N2    H55   S    
C43   C73   S    
N27   H90   S    
C47   O23   A    
O48   Zn12  S    
O43   Zn7   S    
C63   O37   A    
O33   Zn5   S    
C5    C133  D    
N1    H53   S    
N26   H88   S    
O21   Zn1   S    
C82   C115  A    
N5    H61   S    
N25   H86   S    
O10   Zn9   S    
C92   C96   A    
C53   N5    S    
C65   O39   A    
C68   C112  S    
C69   O45   A    
C61   C87   S    
C38   N2    S    
C70   C120  S    
N6    H63   S    
C81   C114  A    
C24   H44   S    
C9    H37   S    
C2    O18   A    
C12   H40   S    
C130  H26   S    
N22   H80   S    
C139  N11   T    
C91   C101  A    
C27   H47   S    
C119  C121  A    
C84   C142  S    
C129  H25   S    
O28   Zn4   S    
C48   O24   A    
C10   C14   A    
C113  C137  S    
O39   Zn8   S    
C78   C84   A    
C45   O21   A    
C47   O27   A    
O42   Zn6   S    
C75   C99   S    
N17   H69   S    
C64   O34   A    
C126  C134  S    
O11   Zn12  S    
C42   C50   A    
N6    H64   S    
C64   C130  S    
C26   C30   A    
C93   C97   A    
C97   C100  A    
C6    H34   S    
C85   C88   A    
C63   O33   A    
C21   C25   A    
O5    Zn9   S    
C18   C22   A    
C107  C111  A    
C24   C28   A    
C104  H22   S    
N7    H65   S    
C1    C17   S    
C13   C17   A    
N4    H59   S    
C28   H48   S    
N20   H76   S    
C95   N17   S    
C37   C41   A    
C110  C112  A    
C91   C95   A    
C40   C44   A    
C113  C121  A    
C66   O40   A    
C142  N14   T    
O8    Zn12  S    
C50   H6    S    
C1    O1    A    
C83   C87   A    
C7    H35   S    
C8    C136  D    
C86   C144  S    
C4    O4    A    
C138  N10   T    
C107  H29   S    
C75   O13   A    
C76   O15   A    
C123  H19   S    
C15   C19   A    
C50   C54   A    
C121  H17   S    
C127  C135  S    
C128  C136  S    
C54   C58   A    
C71   O5    A    
C94   C98   A    
C95   C99   A    
C125  C133  S    
C35   C59   A    
C105  C109  A    
C49   H5    S    
C140  N12   T    
O18   Zn3   S    
C120  C123  A    
O3    Zn2   S    
N28   H91   S    
C133  N21   S    
O12   Zn11  S    
C64   O38   A    
N21   H78   S    
O14   Zn10  S    
N23   H81   S    
O22   Zn1   S    
O13   Zn9   S    
C61   O30   A    
N19   H74   S    
N19   H73   S    
C15   N27   S    
C79   H11   S    
C125  H1    S    
C5    C45   S    
C81   C118  S    
C33   C37   A    
C56   C60   A    
C62   O32   A    
C35   C39   A    
C8    C48   S    
C143  N15   T    
O41   Zn5   S    
C144  N16   T    
C131  H27   S    
O23   Zn2   S    
C70   O48   A    
C92   C101  A    
C67   C111  S    
C29   C57   S    
C98   C100  A    
C73   O7    A    
C92   H14   S    
C93   H15   S    
C32   C60   S    
C104  C108  A    
N2    H56   S    
N24   H83   S    
C53   C57   A    
C116  C124  A    
C97   N19   S    
C93   C102  A    
C11   H39   S    
C54   N6    S    
O26   Zn3   S    
C82   C116  A    
O46   Zn10  S    
N7    H66   S    
C43   C51   A    
N25   H85   S    
C105  H23   S    
O40   Zn7   S    
C62   C88   S    
C106  H24   S    
C63   C129  S    
C128  H4    S    
O29   Zn5   S    
C72   O10   A    
N27   H89   S    
C35   H51   S    
C22   C26   A    
C81   C113  A    
C5    H33   S    
N8    H67   S    
C33   H49   S    
O27   Zn4   S    
C82   C117  S    
C8    H36   S    
C7    C47   S    
C48   O28   A    
C89   C102  S    
C2    C18   S    
C14   C18   A    
C84   C87   A    
C22   H42   S    
O20   Zn4   S    
C132  H28   S    
C135  N23   S    
O32   Zn8   S    
C85   C143  S    
N18   H71   S    
C38   C42   A    
C77   C83   A    
C73   O11   A    
O9    Zn10  S    
O17   Zn3   S    
C109  H31   S    
C110  H32   S    
C20   C24   A    
C67   O42   A    
C46   O26   A    
C23   C27   A    
C1    O17   A    
C9    C29   A    
C115  C139  S    
O30   Zn6   S    
C11   C31   A    
C12   C32   A    
C122  H18   S    
C134  N22   S    
C128  C132  D    
O47   Zn11  S    
C65   C131  S    
C25   H45   S    
C71   O9    A    
C66   C132  S    
C74   O8    A    
N1    H54   S    
C36   C40   A    
C55   N7    S    
C66   O36   A    
C109  C112  A    
N5    H62   S    
O36   Zn8   S    
O38   Zn5   S    
C39   C43   A    
C141  N13   T    
N23   H82   S    
N4    H60   S    
C69   O46   A    
C90   C101  S    
C7    C135  D    
C83   C141  S    
C3    O3    A    
C137  N9    T    
O15   Zn11  S    
O16   Zn12  S    
N22   H79   S    
C124  H20   S    
C13   N25   S    
N3    H57   S    
C98   N20   S    
C77   H9    S    
C106  C110  A    
C119  C122  A    
C136  N24   S    
C126  H2    S    
C33   C57   A    
C6    C46   S    
C34   C38   A    
C116  C140  S    
O25   Zn3   S    
C76   O16   A    
C41   C71   S    
C6    C134  D    
C44   C52   A    
C37   N1    S    
C30   C58   S    
N17   H70   S    
O31   Zn7   S    
C80   C90   A    
O24   Zn2   S    
C114  C122  A    
C68   O44   A    
C36   C60   A    
C120  C124  A    
C94   C102  A    
