data_mof_unit_pretest_1649.cif
_audit_creation_date              2012-12-10T18:14:25-0500
_audit_creation_method            fapswitch 2.2
_symmetry_space_group_name_H-M    P1
_symmetry_Int_Tables_number       1
_space_group_crystal_system       triclinic
_cell_length_a                    42.287513
_cell_length_b                    29.20583
_cell_length_c                    30.5782
_cell_angle_alpha                 89.904621
_cell_angle_beta                  136.317879
_cell_angle_gamma                 90.068752
_cell_volume                      26082.8648041

loop_
_atom_site_label
_atom_site_type_symbol
_atom_type_description
_atom_site_fract_x
_atom_site_fract_y
_atom_site_fract_z
_atom_type_partial_charge
C1    C     C_R   0.586686 0.500000 0.587093 0.909178
C2    C     C_1   0.999862 0.001637 0.334643 0.024146
C3    C     C_3   0.547660 0.491856 0.269094 -0.550631
C4    C     C_3   0.961038 0.973973 0.182177 -0.535540
C5    C     C_3   0.046423 0.987164 0.267786 -0.550909
C6    C     C_1   0.499981 0.502098 0.120631 -0.190090
C7    C     C_1   0.000022 0.002112 0.120671 -0.190149
C8    C     C_3   0.499593 0.503275 0.288222 0.088811
C9    C     C_3   0.999873 0.003303 0.288502 0.088736
C10   C     C_3   0.499514 0.505924 0.204450 0.111161
C11   C     C_3   0.999887 0.005973 0.204823 0.111142
C12   C     C_3   0.393133 0.438874 0.185082 -0.295270
C13   C     C_1   0.499819 0.500464 0.372748 -0.193597
C14   C     C_3   0.623944 0.501133 0.416895 -0.316000
C15   C     C_3   0.887533 0.949815 0.179653 -0.295535
C16   C     C_3   0.123409 0.988788 0.416154 -0.316174
C17   C     C_3   0.537759 0.621021 0.265213 -0.380546
C18   C     C_3   0.430121 0.611525 0.139596 -0.267904
C19   C     C_3   0.049476 0.116671 0.276888 -0.380205
C20   C     C_3   0.941395 0.117977 0.150983 -0.268119
C21   C     C_1   0.999904 0.000469 0.372835 -0.193587
C22   C     C_1   0.637267 0.500000 0.637567 -0.223420
C23   C     C_1   0.137267 1.000000 0.637567 -0.223087
C24   C     C_1   0.679404 0.500000 0.679624 0.001980
C25   C     C_1   0.179404 0.999999 0.679624 0.002291
C26   C     C_1   0.729138 0.500000 0.729279 0.004319
C27   C     C_1   0.229138 0.999999 0.729279 0.004496
C28   C     C_1   0.771275 0.500000 0.771362 0.004383
C29   C     C_R   0.086686 1.000000 0.587092 0.909633
C30   C     C_1   0.271275 0.999999 0.771362 0.004479
C31   C     C_1   0.821009 0.500000 0.821048 0.002883
C32   C     C_1   0.321009 1.000000 0.821049 0.002939
C33   C     C_R   0.500015 0.500065 0.417665 0.946477
C34   C     C_R   0.999968 0.000066 0.417617 0.946741
C35   C     C_1   0.863147 0.500000 0.863161 -0.215818
C36   C     C_1   0.363147 0.000000 0.863161 -0.215784
C37   C     C_1   0.499980 0.499912 0.636035 -0.222499
C38   C     C_1   0.999980 0.999912 0.636035 -0.222502
C39   C     C_1   0.499988 0.499906 0.677220 0.015089
C40   C     C_3   0.487192 0.555245 0.208661 1.008322
C41   C     C_1   0.999988 0.999906 0.677220 0.015084
C42   C     C_1   0.499999 0.499918 0.726232 0.002635
C43   C     C_1   0.999999 0.999918 0.726232 0.002632
C44   C     C_1   0.500008 0.499935 0.767419 0.002619
C45   C     C_1   0.000007 0.999935 0.767419 0.002616
C46   C     C_1   0.500017 0.499959 0.816429 0.014791
C47   C     C_1   0.000017 0.999959 0.816429 0.014790
C48   C     C_1   0.500023 0.499978 0.857613 -0.221148
C49   C     C_1   0.000023 0.999978 0.857613 -0.221143
C50   C     C_1   0.362678 0.499999 0.362968 -0.221196
C51   C     C_3   0.992584 0.056273 0.214076 1.008209
C52   C     C_1   0.862678 0.999999 0.362967 -0.221390
C53   C     C_1   0.320543 0.499998 0.320766 0.004366
C54   C     C_1   0.820543 0.999998 0.320764 0.004065
C55   C     C_1   0.270813 0.499997 0.270971 0.006226
C56   C     C_1   0.770812 0.999997 0.270969 0.005973
C57   C     C_R   0.413256 0.500000 0.413640 0.911152
C58   C     C_R   0.913256 0.000000 0.413640 0.910904
C59   C     C_1   0.228678 0.499997 0.228793 0.005734
C60   C     C_1   0.728678 0.999997 0.228791 0.005572
C61   C     C_1   0.178947 0.499998 0.179021 0.003810
C62   C     C_3   0.486732 0.552247 0.259836 -0.491696
C63   C     C_1   0.678947 0.999998 0.179020 0.003712
C64   C     C_1   0.136811 0.499999 0.136860 -0.215176
C65   C     C_1   0.636811 0.999999 0.136859 -0.215233
C66   C     C_R   0.500031 0.586640 0.994589 0.915442
C67   C     C_R   0.500031 0.413358 0.994569 0.902954
C68   C     C_R   0.000030 0.086640 0.994590 0.915538
C69   C     C_R   0.000031 0.913358 0.994569 0.902860
C70   C     C_R   0.500019 0.499314 0.076023 0.940452
C71   C     C_R   0.000023 0.999308 0.076026 0.940402
C72   C     C_R   0.500025 0.499999 0.907499 0.891009
C73   C     C_3   0.991921 0.053316 0.265050 -0.491588
C74   C     C_R   0.000025 0.999999 0.907499 0.891004
C75   C     C_R   0.000015 0.413716 0.999166 0.897772
C76   C     C_R   0.000015 0.586281 0.999100 0.897970
C77   C     C_R   0.500015 0.913716 0.999166 0.897746
C78   C     C_R   0.500015 0.086281 0.999100 0.897998
C79   C     C_R   0.913728 0.500001 0.913737 0.897986
C80   C     C_R   0.413728 0.000001 0.913737 0.897992
C81   C     C_R   0.086233 0.500000 0.086264 0.898161
C82   C     C_R   0.586233 0.000000 0.086264 0.898158
C83   C     C_1   0.500040 0.637226 0.995463 -0.218683
C84   C     C_1   0.499810 0.504421 0.158562 0.056633
C85   C     C_1   0.500041 0.362771 0.995385 -0.223789
C86   C     C_1   0.000040 0.137226 0.995465 -0.218681
C87   C     C_1   0.000041 0.862771 0.995385 -0.223866
C88   C     C_R   0.499972 0.499966 0.586143 0.892004
C89   C     C_R   0.999972 0.999965 0.586143 0.891999
C90   C     C_1   0.500041 0.679363 0.996236 0.005459
C91   C     C_1   0.500043 0.320632 0.996106 0.002110
C92   C     C_1   0.000041 0.179363 0.996238 0.005371
C93   C     C_1   0.000043 0.820632 0.996105 0.002033
C94   C     C_1   0.500038 0.729100 0.997144 0.005865
C95   C     C_1   0.999984 0.004454 0.158733 0.056687
C96   C     C_1   0.500041 0.270894 0.996961 0.004809
C97   C     C_1   0.000039 0.229100 0.997146 0.005802
C98   C     C_1   0.000041 0.770894 0.996961 0.004741
C99   C     C_1   0.000035 0.271237 0.997867 0.005028
C100  C     C_1   0.000037 0.728756 0.997653 0.004842
C101  C     C_1   0.500035 0.771237 0.997866 0.005036
C102  C     C_1   0.500037 0.228756 0.997653 0.004906
C103  C     C_1   0.000029 0.320977 0.998604 0.003262
C104  C     C_1   0.000031 0.679016 0.998384 0.003359
C105  C     C_1   0.500029 0.820977 0.998604 0.003242
C106  C     C_1   0.499663 0.501621 0.334445 0.024145
C107  C     C_1   0.500031 0.179016 0.998384 0.003417
C108  C     C_1   0.000023 0.363121 0.999041 -0.215674
C109  C     C_1   0.000024 0.636873 0.998855 -0.215429
C110  C     C_1   0.500023 0.863121 0.999041 -0.215705
C111  C     C_1   0.500024 0.136873 0.998855 -0.215381
C112  C     C_3   0.548132 0.490582 0.319921 0.331211
C113  C     C_3   0.464042 0.468184 0.235384 0.334575
C114  C     C_3   0.046872 0.985841 0.318589 0.331411
C115  C     C_3   0.960964 0.971935 0.232355 0.334322
C116  C     C_3   0.464020 0.470207 0.185111 -0.536009
H1    H     H_    0.556884 0.457336 0.265605 0.150826
H2    H     H_    0.574030 0.516104 0.282963 0.246641
H3    H     H_    0.927273 0.986002 0.135979 0.251581
H4    H     H_    0.075062 0.008654 0.283878 0.246686
H5    H     H_    0.509433 0.576895 0.299321 0.177056
H6    H     H_    0.451864 0.560479 0.237297 0.208683
H7    H     H_    0.016992 0.075578 0.306871 0.176942
H8    H     H_    0.958069 0.064975 0.243578 0.208823
H9    H     H_    0.406905 0.416495 0.225215 0.155895
H10   H     H_    0.391123 0.419751 0.151685 0.155390
H11   H     H_    0.357807 0.448827 0.159061 0.196596
H12   H     H_    0.472580 0.435640 0.180638 0.145393
H13   H     H_    0.635609 0.485331 0.397402 0.159977
H14   H     H_    0.623067 0.475113 0.442601 0.161180
H15   H     H_    0.649359 0.527614 0.451584 0.195387
H16   H     H_    0.899061 0.926172 0.217520 0.155624
H17   H     H_    0.883562 0.930994 0.144296 0.155517
H18   H     H_    0.853393 0.963231 0.154879 0.196687
H19   H     H_    0.133383 0.971916 0.394948 0.159962
H20   H     H_    0.120009 0.962975 0.439335 0.161405
H21   H     H_    0.151352 0.012604 0.453332 0.195343
H22   H     H_    0.565138 0.607582 0.314290 0.220123
H23   H     H_    0.052130 0.951897 0.260770 0.150603
H24   H     H_    0.511005 0.639395 0.257254 0.146029
H25   H     H_    0.554029 0.646634 0.259644 0.204744
H26   H     H_    0.450289 0.632999 0.136756 0.201515
H27   H     H_    0.433324 0.624149 0.176884 0.132218
H28   H     H_    0.393622 0.615248 0.093736 0.186924
H29   H     H_    0.075414 0.100563 0.324487 0.220056
H30   H     H_    0.024726 0.137624 0.270972 0.145959
H31   H     H_    0.068189 0.140533 0.273740 0.204712
H32   H     H_    0.963562 0.137340 0.150113 0.201488
H33   H     H_    0.945900 0.130207 0.189570 0.132332
H34   H     H_    0.966077 0.938732 0.174156 0.145457
H35   H     H_    0.905432 0.125327 0.105712 0.187001
H36   H     H_    0.555547 0.454723 0.338280 0.060054
H37   H     H_    0.475620 0.433319 0.257542 0.055120
H38   H     H_    0.050702 0.949421 0.333357 0.060227
H39   H     H_    0.969034 0.936084 0.250972 0.055110
H40   H     H_    0.429247 0.478803 0.137845 0.251539
O1    O     O_R   0.563110 0.535630 0.563620 -0.595986
O2    O     O_R   0.500010 0.063160 0.964010 -0.593152
O3    O     O_R   0.000000 0.436830 0.034310 -0.594699
O4    O     O_R   0.000000 0.563170 0.034310 -0.594809
O5    O     O_R   0.500000 0.936830 0.034310 -0.594674
O6    O     O_R   0.500000 0.063170 0.034310 -0.594805
O7    O     O_R   0.936840 0.500000 0.901700 -0.593805
O8    O     O_R   0.436840 1.000000 0.901700 -0.593754
O9    O     O_R   0.936840 0.500000 0.972000 -0.594518
O10   O     O_R   0.436840 1.000000 0.972000 -0.594544
O11   O     O_R   0.063130 0.500000 0.028000 -0.593128
O12   O     O_R   0.563110 0.464370 0.563620 -0.598662
O13   O     O_R   0.563130 1.000000 0.028000 -0.593212
O14   O     O_R   0.063120 0.500000 0.098300 -0.594653
O15   O     O_R   0.563120 0.000000 0.098300 -0.594604
O16   O     O_R   0.499970 0.535640 0.438200 -0.608748
O17   O     O_R   0.499970 0.464360 0.438200 -0.619471
O18   O     O_R   0.999970 0.035640 0.438200 -0.608769
O19   O     O_R   0.999970 0.964360 0.438200 -0.619744
O20   O     O_R   0.436830 0.535630 0.437320 -0.596542
O21   O     O_R   0.436830 0.464370 0.437320 -0.597861
O22   O     O_R   0.936830 0.035630 0.437320 -0.596289
O23   O     O_R   0.063110 0.035630 0.563620 -0.596052
O24   O     O_R   0.936830 0.964370 0.437320 -0.598160
O25   O     O_R   0.499970 0.535630 0.562740 -0.592596
O26   O     O_R   0.499970 0.464370 0.562740 -0.592242
O27   O     O_R   0.999970 0.035630 0.562740 -0.592581
O28   O     O_R   0.999970 0.964370 0.562740 -0.592261
O29   O     O_R   0.535670 0.563060 0.029670 -0.595375
O30   O     O_R   0.535670 0.436940 0.029670 -0.598414
O31   O     O_R   0.035670 0.063060 0.029670 -0.595214
O32   O     O_R   0.035670 0.936940 0.029670 -0.598400
O33   O     O_R   0.464380 0.563080 0.958370 -0.595400
O34   O     O_R   0.063110 0.964370 0.563620 -0.598577
O35   O     O_R   0.464380 0.436920 0.958370 -0.597967
O36   O     O_R   0.964380 0.063080 0.958370 -0.595399
O37   O     O_R   0.964380 0.936920 0.958370 -0.598075
O38   O     O_R   0.535670 0.500000 0.091080 -0.611472
O39   O     O_R   0.035670 1.000000 0.091080 -0.610378
O40   O     O_R   0.464370 0.500000 0.019780 -0.606693
O41   O     O_R   0.964370 0.000000 0.019780 -0.607787
O42   O     O_R   0.535670 0.500000 0.966540 -0.593888
O43   O     O_R   0.035670 1.000000 0.966540 -0.593925
O44   O     O_3   0.419793 0.478924 0.207539 -0.570900
O45   O     O_R   0.464380 0.500000 0.895240 -0.593953
O46   O     O_3   0.580788 0.522265 0.369011 -0.587230
O47   O     O_3   0.918036 0.987017 0.205911 -0.570890
O48   O     O_3   0.082557 0.014111 0.370654 -0.587328
O49   O     O_3   0.519891 0.585547 0.221129 -0.626470
O50   O     O_3   0.442172 0.564895 0.147898 -0.627499
O51   O     O_3   0.028109 0.083165 0.229328 -0.626259
O52   O     O_3   0.948724 0.070376 0.154541 -0.627658
O53   O     O_R   0.964380 1.000000 0.895240 -0.593918
O54   O     O_R   0.000010 0.436840 0.964010 -0.593437
O55   O     O_R   0.000010 0.563160 0.964010 -0.593177
O56   O     O_R   0.500010 0.936840 0.964010 -0.593483
Zn1   Zn    Zn3+2 0.499970 0.547590 0.500630 0.969926
Zn2   Zn    Zn3+2 0.499990 0.000000 0.953050 0.968391
Zn3   Zn    Zn3+2 0.999980 0.500000 0.046950 0.963582
Zn4   Zn    Zn3+2 0.499980 1.000000 0.046950 0.963619
Zn5   Zn    Zn3+2 0.499970 0.452410 0.500630 0.961531
Zn6   Zn    Zn3+2 0.999970 0.047590 0.500630 0.970057
Zn7   Zn    Zn3+2 0.999970 0.952410 0.500630 0.961279
Zn8   Zn    Zn3+2 0.547630 0.500000 0.040770 0.968461
Zn9   Zn    Zn3+2 0.047630 0.000000 0.040770 0.969188
Zn10  Zn    Zn3+2 0.452420 0.500000 0.945550 0.972097
Zn11  Zn    Zn3+2 0.952420 1.000000 0.945550 0.971451
Zn12  Zn    Zn3+2 0.999990 0.500000 0.953050 0.968440

loop_
_geom_bond_atom_site_label_1
_geom_bond_atom_site_label_2
_ccdc_geom_bond_type
C101  C105  S    
C99   C103  S    
C105  C110  T    
C63   C65   T    
C75   O54   A    
C49   C74   S    
O29   Zn8   S    
C96   C102  T    
C5    C114  S    
C58   O24   A    
C68   C86   S    
C37   C88   S    
C16   H21   S    
C20   H32   S    
C112  O46   S    
O34   Zn7   S    
C85   C91   T    
C10   C116  S    
C47   C49   T    
C12   H11   S    
O6    Zn4   S    
O7    Zn12  S    
C17   H22   S    
O13   Zn2   S    
C38   C89   S    
C50   C53   T    
C19   H29   S    
C9    C73   S    
C60   C63   S    
C9    C114  S    
C32   C36   T    
C17   H25   S    
C18   H27   S    
C24   C26   S    
C5    C11   S    
C55   C59   T    
C8    C112  S    
C7    C71   S    
C104  C109  T    
C51   O51   S    
C12   H10   S    
C7    C95   T    
C68   O36   A    
C88   O25   A    
C18   H28   S    
C66   O33   A    
C87   C93   T    
C100  C104  S    
C40   C62   S    
C20   H33   S    
C10   C40   S    
C10   C84   S    
C80   O8    A    
C34   O19   A    
C3    H1    S    
C77   O56   A    
C91   C96   S    
C40   O49   S    
C71   O39   A    
O9    Zn3   S    
O28   Zn7   S    
C15   H16   S    
C94   C101  T    
C52   C54   T    
C76   C109  S    
C73   H7    S    
C115  O47   S    
C57   O21   A    
C112  H36   S    
C4    H3    S    
C5    H23   S    
C103  C108  T    
O43   Zn9   S    
O12   Zn5   S    
C33   O17   A    
C69   C87   S    
C67   O30   A    
C113  C116  S    
C107  C111  T    
O32   Zn9   S    
C45   C47   S    
C66   C83   S    
C82   O13   A    
C1    C22   S    
C75   O3    A    
C27   C30   T    
C19   O51   S    
C41   C43   S    
C42   C44   T    
O45   Zn10  S    
C48   C72   S    
C80   O10   A    
C26   C28   T    
C97   C99   T    
C44   C46   S    
C92   C97   S    
C71   O41   A    
C39   C42   S    
C54   C56   S    
C14   H15   S    
C53   C55   S    
C77   O5    A    
O11   Zn12  S    
C40   O50   S    
C59   C61   S    
C90   C94   S    
O54   Zn12  S    
C74   O53   A    
C19   H30   S    
C89   O28   A    
C18   H26   S    
O3    Zn3   S    
C68   O31   A    
C38   C41   T    
C36   C80   S    
C113  H37   S    
C15   H18   S    
C51   O52   S    
O38   Zn8   S    
C21   C34   S    
C5    H4    S    
C1    O12   A    
O8    Zn2   S    
O4    Zn3   S    
O30   Zn8   S    
C19   H31   S    
C56   C60   T    
C9    C115  S    
C61   C64   T    
C13   C33   S    
C6    C84   T    
C34   O18   A    
C3    H2    S    
C57   O20   A    
C88   O26   A    
C69   O32   A    
O37   Zn11  S    
C3    C112  S    
C70   O38   A    
C73   H8    S    
C2    C21   T    
C69   O37   A    
C81   O11   A    
C102  C107  S    
C58   O22   A    
C81   O14   A    
C79   O9    A    
C4    C11   S    
C79   O7    A    
C43   C45   T    
O35   Zn10  S    
C78   C111  S    
C52   C58   S    
C8    C113  S    
O18   Zn6   S    
O15   Zn4   S    
C76   O55   A    
C12   O44   S    
O5    Zn4   S    
O56   Zn2   S    
C78   O6    A    
O27   Zn6   S    
C98   C100  T    
O23   Zn6   S    
C116  H12   S    
O53   Zn11  S    
C22   C24   T    
C25   C27   S    
C20   O52   S    
O16   Zn1   S    
C16   H20   S    
C89   O27   A    
C62   H6    S    
C4    H34   S    
O39   Zn9   S    
C14   H14   S    
O20   Zn1   S    
C11   C95   S    
C6    C70   S    
C83   C90   T    
C82   O15   A    
C76   O4    A    
C114  O48   S    
O17   Zn5   S    
C115  H39   S    
O33   Zn10  S    
C50   C57   S    
O19   Zn7   S    
C78   O2    A    
O22   Zn6   S    
C28   C31   S    
O42   Zn8   S    
C51   C73   S    
O36   Zn11  S    
O21   Zn5   S    
C13   C106  T    
O41   Zn11  S    
C8    C106  S    
C15   O47   S    
C23   C29   S    
C4    C115  S    
C15   H17   S    
O2    Zn2   S    
O31   Zn9   S    
O1    Zn1   S    
C12   H9    S    
C20   H35   S    
C18   O50   S    
C17   O49   S    
C33   O16   A    
C1    O1    A    
C37   C39   T    
C3    C10   S    
C86   C92   T    
C30   C32   S    
C2    C9    S    
C65   C82   S    
C67   C85   S    
O14   Zn3   S    
O55   Zn12  S    
C14   O46   S    
C31   C35   T    
C35   C79   S    
C113  O44   S    
C17   H24   S    
C67   O35   A    
C23   C25   T    
C77   C110  S    
C64   C81   S    
C116  H40   S    
C11   C51   S    
C72   O42   A    
C46   C48   T    
C75   C108  S    
C74   O43   A    
O26   Zn5   S    
C70   O40   A    
C29   O23   A    
C66   O29   A    
C8    C62   S    
C29   O34   A    
O24   Zn7   S    
O25   Zn1   S    
C16   O48   S    
C16   H19   S    
C93   C98   S    
C114  H38   S    
C62   H5    S    
O40   Zn10  S    
O10   Zn4   S    
C72   O45   A    
C14   H13   S    
