data_mof_unit_pretest_131.cif
_audit_creation_date              2012-10-26T19:59:42-0400
_audit_creation_method            fapswitch 2.2
_symmetry_space_group_name_H-M    P1
_symmetry_Int_Tables_number       1
_space_group_crystal_system       triclinic
_cell_length_a                    10.76445
_cell_length_b                    8.691255
_cell_length_c                    7.44857
_cell_angle_alpha                 102.898173
_cell_angle_beta                  94.24194
_cell_angle_gamma                 92.134267
_cell_volume                      676.382470946

loop_
_atom_site_label
_atom_site_type_symbol
_atom_type_description
_atom_site_fract_x
_atom_site_fract_y
_atom_site_fract_z
_atom_type_partial_charge
C1    C     C_R   0.495827 0.199753 0.453347 0.552229
C2    C     C_R   0.503447 0.800229 0.546677 0.534620
C3    C     C_R   0.737376 0.508576 0.499093 0.540573
C4    C     C_R   0.149088 0.752198 0.772825 -0.091318
C5    C     C_R   0.093404 0.865153 0.902379 0.030887
C6    C     C_R   0.963673 0.868856 0.893429 -0.108887
C7    C     C_R   0.890144 0.759804 0.758519 -0.119359
C8    C     C_R   0.944519 0.639168 0.633283 0.020406
C9    C     C_3   0.172842 0.983222 0.048292 -0.279394
C10   C     C_3   0.229966 0.112570 0.966642 -0.442233
C11   C     C_R   0.075913 0.635911 0.639516 0.006241
C12   C     C_R   0.129476 0.518857 0.508020 0.001323
C13   C     C_R   0.054556 0.413189 0.369945 -0.152747
C14   C     C_R   0.926652 0.415405 0.365239 -0.151903
C15   C     C_R   0.871297 0.523978 0.498208 0.004217
C16   C     C_2   0.493366 0.031901 0.427064 -0.160479
C17   C     C_2   0.504978 0.968024 0.572968 -0.165041
C18   C     C_R   0.262876 0.506738 0.503327 0.536671
Cu1   Cu    Cu3+1 0.513920 0.517380 0.684380 0.935292
Cu2   Cu    Cu3+1 0.486080 0.482620 0.315620 0.934017
H1    H     H_    0.095437 0.325735 0.267180 0.124276
H2    H     H_    0.155673 0.172520 0.901290 0.154864
H3    H     H_    0.282654 0.201324 0.078922 0.174680
H4    H     H_    0.294781 0.062466 0.862157 0.144598
H5    H     H_    0.116198 0.038608 0.161885 0.134608
H6    H     H_    0.248138 0.922347 0.110364 0.152240
H7    H     H_    0.597803 0.621185 0.051377 0.240323
H8    H     H_    0.249615 0.758828 0.777896 0.149137
H9    H     H_    0.919092 0.958416 0.988990 0.106785
H10   H     H_    0.790716 0.773622 0.752343 0.138939
H11   H     H_    0.870575 0.328249 0.260934 0.130057
H12   H     H_    0.482304 0.960536 0.286337 0.127980
H13   H     H_    0.516019 0.039396 0.713684 0.129049
H14   H     H_    0.402219 0.379499 0.948028 0.235446
N1    N     N_2   0.465100 0.456430 0.038520 -0.260976
N2    N     N_2   0.534900 0.543570 0.961480 -0.256094
O1    O     O_R   0.509050 0.286130 0.619770 -0.497772
O2    O     O_R   0.485540 0.256780 0.308360 -0.507776
O3    O     O_R   0.331410 0.514680 0.655740 -0.515734
O4    O     O_R   0.307900 0.485330 0.344330 -0.506119
O5    O     O_R   0.514460 0.743220 0.691640 -0.517196
O6    O     O_R   0.490950 0.713870 0.380230 -0.502596
O7    O     O_R   0.692100 0.514670 0.655670 -0.501522
O8    O     O_R   0.668590 0.485320 0.344260 -0.502312

loop_
_geom_bond_atom_site_label_1
_geom_bond_atom_site_label_2
_ccdc_geom_bond_type
Cu2   O6    S    
C11   C12   A    
C5    C9    S    
C6    C7    A    
H7    N2    S    
C16   H12   S    
Cu2   O2    S    
C9    C10   S    
N1    N2    D    
C1    O1    A    
C14   H11   S    
C18   O3    A    
C9    H5    S    
C7    C8    A    
C7    H10   S    
C13   C14   A    
C10   H2    S    
C2    C17   S    
C3    O7    A    
C17   H13   S    
C1    O2    A    
C2    O6    A    
C8    C11   A    
Cu2   O4    S    
Cu1   O3    S    
C4    H8    S    
Cu1   O7    S    
C9    H6    S    
Cu2   O8    S    
C8    C15   A    
Cu1   N2    S    
C5    C6    A    
C10   H3    S    
C3    O8    A    
C2    O5    A    
C13   H1    S    
Cu1   O5    S    
C6    H9    S    
C3    C15   S    
C12   C13   A    
H14   N1    S    
C12   C18   S    
C1    C16   S    
C18   O4    A    
C14   C15   A    
C16   C17   D    
Cu1   O1    S    
C10   H4    S    
Cu2   N1    S    
Cu1   Cu2   S    
C4    C5    A    
C4    C11   A    
