data_mof_unit_pretest_1808.cif
_audit_creation_date              2012-10-26T19:01:44-0400
_audit_creation_method            fapswitch 2.2
_symmetry_space_group_name_H-M    P1
_symmetry_Int_Tables_number       1
_space_group_crystal_system       triclinic
_cell_length_a                    13.901279
_cell_length_b                    15.802702
_cell_length_c                    17.001232
_cell_angle_alpha                 95.204453
_cell_angle_beta                  89.903307
_cell_angle_gamma                 82.616977
_cell_volume                      3688.22232988

loop_
_atom_site_label
_atom_site_type_symbol
_atom_type_description
_atom_site_fract_x
_atom_site_fract_y
_atom_site_fract_z
_atom_type_partial_charge
C1    C     C_R   0.499432 0.509450 0.651316 0.582986
C2    C     C_R   0.560132 0.834970 0.471189 0.252836
C3    C     C_R   0.507208 0.108517 0.479330 0.198912
C4    C     C_R   0.492751 0.891488 0.520674 0.198925
C5    C     C_R   0.573645 0.145130 0.434798 -0.143460
C6    C     C_R   0.426208 0.854875 0.565099 -0.143426
C7    C     C_R   0.574829 0.234307 0.441027 0.028005
C8    C     C_R   0.425046 0.765695 0.558868 0.028029
C9    C     C_R   0.316274 0.513514 0.500536 0.573145
C10   C     C_R   0.683726 0.486486 0.499465 0.573149
C11   C     C_1   0.786904 0.478548 0.499935 0.049160
C12   C     C_R   0.500568 0.490550 0.348685 0.582998
C13   C     C_1   0.213096 0.521453 0.500067 0.049151
C14   C     C_2   0.977582 0.464975 0.501429 0.101012
C15   C     C_2   0.022418 0.535025 0.498573 0.101006
C16   C     C_1   0.126158 0.528181 0.499445 0.041049
C17   C     C_1   0.873842 0.471819 0.500557 0.041058
C18   C     C_R   0.495912 0.511214 0.737184 -0.027590
C19   C     C_R   0.504081 0.488786 0.262817 -0.027580
C20   C     C_R   0.570153 0.462680 0.776343 0.104037
C21   C     C_R   0.429807 0.537282 0.223659 0.104031
C22   C     C_R   0.559848 0.451876 0.856602 0.291935
C23   C     C_R   0.403848 0.542434 0.859554 -0.103075
C24   C     C_R   0.440096 0.548093 0.143400 0.291935
C25   C     C_R   0.476639 0.494272 0.898855 0.168010
C26   C     C_R   0.523327 0.505741 0.101146 0.167997
C27   C     C_R   0.596152 0.457621 0.140447 -0.103082
C28   C     C_R   0.412622 0.551185 0.779245 0.028749
C29   C     C_R   0.587391 0.448862 0.220756 0.028719
C30   C     C_R   0.446268 0.253596 0.534628 0.109466
C31   C     C_R   0.553835 0.746406 0.465476 0.109453
C32   C     C_R   0.439950 0.165036 0.528923 0.252838
Cu1   Cu    Cu3+1 0.495370 0.585120 0.503830 1.018552
Cu2   Cu    Cu3+1 0.504630 0.414880 0.496170 1.018551
H1    H     H_    0.339773 0.573441 0.891915 0.179977
H2    H     H_    0.602886 0.377295 0.938131 0.355458
H3    H     H_    0.653347 0.914388 0.460113 0.361662
H4    H     H_    0.346689 0.085689 0.540102 0.361622
H5    H     H_    0.660245 0.426651 0.108087 0.179993
H6    H     H_    0.604877 0.703467 0.427767 0.169720
H7    H     H_    0.395317 0.296537 0.572414 0.169696
H8    H     H_    0.624593 0.104475 0.395098 0.151002
H9    H     H_    0.375160 0.895532 0.604715 0.150982
H10   H     H_    0.625788 0.261345 0.405666 0.172073
H11   H     H_    0.374000 0.738656 0.594145 0.172081
H12   H     H_    0.397012 0.622676 0.061886 0.355445
I1    I     I_    0.946075 0.659671 0.492358 -0.237145
I2    I     I_    0.053925 0.340329 0.507643 -0.237203
I3    I     I_    0.300786 0.597200 0.284422 -0.171800
I4    I     I_    0.699151 0.402699 0.715585 -0.171756
I5    I     I_    0.293843 0.620378 0.724546 -0.303468
I6    I     I_    0.706208 0.379725 0.275457 -0.303469
N1    N     N_2   0.464240 0.490247 0.980819 -0.223898
N2    N     N_2   0.535717 0.509769 0.019181 -0.223912
N3    N     N_R   0.511590 0.287020 0.490400 -0.267107
N4    N     N_R   0.488410 0.712980 0.509600 -0.267113
N5    N     N_2   0.507970 0.017040 0.469186 -0.216724
N6    N     N_2   0.491981 0.982963 0.530826 -0.216684
O1    O     O_R   0.495670 0.579790 0.617520 -0.477921
O2    O     O_3   0.630620 0.398112 0.890950 -0.627044
O3    O     O_3   0.635085 0.861901 0.430882 -0.662712
O4    O     O_3   0.365091 0.138112 0.569351 -0.662700
O5    O     O_R   0.504330 0.420210 0.382480 -0.477993
O6    O     O_R   0.503490 0.436020 0.611040 -0.492626
O7    O     O_R   0.496510 0.563980 0.388960 -0.492558
O8    O     O_R   0.357690 0.582040 0.503680 -0.480311
O9    O     O_R   0.642310 0.417960 0.496320 -0.480241
O10   O     O_R   0.365510 0.438280 0.497200 -0.502854
O11   O     O_R   0.634490 0.561720 0.502800 -0.502918
O12   O     O_3   0.369289 0.601822 0.109053 -0.627035

loop_
_geom_bond_atom_site_label_1
_geom_bond_atom_site_label_2
_ccdc_geom_bond_type
Cu2   O9    S    
C26   C27   A    
C2    C4    A    
C5    H8    S    
C1    O6    A    
C30   H7    S    
C7    N3    A    
C31   N4    A    
C27   C29   A    
C30   N3    A    
C9    C13   S    
C18   C20   A    
C14   C15   D    
C2    O3    S    
Cu1   O11   S    
C8    N4    A    
Cu1   N4    S    
Cu2   O6    S    
Cu1   Cu2   S    
C1    C18   S    
C9    O10   A    
C24   O12   S    
Cu2   N3    S    
Cu1   O1    S    
Cu2   O10   S    
N1    N2    D    
C9    O8    A    
C30   C32   A    
C14   C17   S    
N5    N6    D    
C20   I4    S    
C26   N2    S    
C12   C19   S    
C21   I3    S    
Cu2   O5    S    
C19   C21   A    
C25   N1    S    
Cu1   O8    S    
C23   H1    S    
C6    H9    S    
C1    O1    A    
C13   C16   T    
C22   O2    S    
C3    C32   A    
C28   I5    S    
H12   O12   S    
C23   C28   A    
C10   C11   S    
C20   C22   A    
Cu1   O7    S    
C15   C16   S    
C19   C29   A    
C10   O11   A    
C3    N5    S    
C23   C25   A    
C18   C28   A    
C31   H6    S    
C22   C25   A    
C4    C6    A    
C12   O7    A    
C21   C24   A    
C4    N6    S    
C5    C7    A    
C12   O5    A    
C14   I2    S    
C8    H11   S    
C11   C17   T    
C15   I1    S    
C6    C8    A    
H3    O3    S    
C32   O4    S    
C3    C5    A    
C10   O9    A    
H4    O4    S    
C7    H10   S    
C24   C26   A    
C27   H5    S    
C2    C31   A    
H2    O2    S    
C29   I6    S    
