data_mof_unit_pretest_863.cif
_audit_creation_date              2012-12-10T22:11:10-0500
_audit_creation_method            fapswitch 2.2
_symmetry_space_group_name_H-M    P1
_symmetry_Int_Tables_number       1
_space_group_crystal_system       triclinic
_cell_length_a                    12.122393
_cell_length_b                    12.375436
_cell_length_c                    22.987203
_cell_angle_alpha                 90.492742
_cell_angle_beta                  90.976316
_cell_angle_gamma                 90.337823
_cell_volume                      3447.84674361

loop_
_atom_site_label
_atom_site_type_symbol
_atom_type_description
_atom_site_fract_x
_atom_site_fract_y
_atom_site_fract_z
_atom_type_partial_charge
C1    C     C_R   0.657322 0.997983 0.579021 0.962603
C2    C     C_R   0.342837 0.002461 0.420397 0.938433
C3    C     C_R   0.899703 0.809127 0.123790 -0.160629
C4    C     C_R   0.087488 0.258668 0.838204 -0.120427
C5    C     C_R   0.066397 0.816968 0.209244 -0.138216
C6    C     C_R   0.926045 0.097225 0.837671 -0.164551
C7    C     C_R   0.068545 0.738474 0.166149 -0.178137
C8    C     C_R   0.926417 0.176069 0.880443 -0.145737
C9    C     C_R   0.896533 0.168329 0.194258 0.355522
C10   C     C_R   0.095876 0.881973 0.834072 0.439880
C11   C     C_R   0.913708 0.258020 0.159885 -0.246144
C12   C     C_R   0.088760 0.798014 0.873009 -0.204640
C13   C     C_R   0.094930 0.917787 0.331341 -0.230018
C14   C     C_R   0.829693 0.080016 0.708912 -0.176736
C15   C     C_R   0.171827 0.922451 0.376601 -0.079098
C16   C     C_R   0.741139 0.074021 0.669673 -0.095761
C17   C     C_R   0.883600 0.090462 0.326833 -0.064903
C18   C     C_R   0.175363 0.909219 0.703429 -0.065104
C19   C     C_R   0.805873 0.091061 0.370148 -0.076510
C20   C     C_R   0.253335 0.908416 0.660127 -0.115632
C21   C     C_3   0.987242 0.998159 0.246910 -0.083175
C22   C     C_3   0.009189 0.999273 0.752255 -0.056666
C23   C     C_R   0.654492 0.001566 0.421126 0.919772
C24   C     C_R   0.346333 0.998311 0.579326 0.917203
C25   C     C_R   0.087408 0.999656 0.289221 0.009185
C26   C     C_R   0.913321 0.001957 0.707937 -0.024665
C27   C     C_R   0.253440 0.004697 0.376749 -0.269603
C28   C     C_R   0.743862 0.997710 0.623338 -0.259147
C29   C     C_R   0.892315 0.000817 0.288953 0.175965
C30   C     C_R   0.109055 0.001281 0.712278 0.170604
C31   C     C_R   0.737487 0.001147 0.377073 0.009670
C32   C     C_R   0.264868 0.998133 0.624208 -0.002426
C33   C     C_R   0.986949 0.093331 0.202851 -0.133177
C34   C     C_R   0.007075 0.897669 0.792082 -0.154027
C35   C     C_R   0.001932 0.265127 0.122890 -0.170528
C36   C     C_R   0.002709 0.724326 0.871604 -0.201148
C37   C     C_R   0.982733 0.896129 0.208774 0.082447
C38   C     C_R   0.006837 0.096550 0.794177 0.130721
C39   C     C_R   0.987276 0.737191 0.122517 0.006292
C40   C     C_R   0.008397 0.255412 0.881190 0.011014
C41   C     C_R   0.992325 0.659119 0.076266 0.856500
C42   C     C_R   0.007150 0.338602 0.924950 0.907832
C43   C     C_R   0.000019 0.351609 0.080563 0.899327
C44   C     C_R   0.000914 0.644589 0.917574 0.922925
C45   C     C_R   0.160021 0.088091 0.294516 -0.154072
C46   C     C_R   0.912996 0.925597 0.662024 -0.177441
C47   C     C_R   0.248354 0.086996 0.334041 0.444449
C48   C     C_R   0.833228 0.925801 0.618499 0.468443
C49   C     C_R   0.826190 0.908525 0.298768 -0.130775
C50   C     C_R   0.119352 0.088680 0.673492 -0.190019
C51   C     C_R   0.748750 0.909598 0.341887 -0.116163
C52   C     C_R   0.197902 0.088184 0.631010 -0.165898
C53   C     C_R   0.078827 0.101730 0.163540 -0.087326
C54   C     C_R   0.914247 0.822222 0.793478 -0.118776
C55   C     C_R   0.083958 0.185932 0.123087 -0.100380
C56   C     C_R   0.918489 0.731268 0.829851 -0.113108
C57   C     C_R   0.897697 0.887923 0.166331 -0.127552
C58   C     C_R   0.086582 0.180728 0.794853 -0.056117
H1    H     H_    0.833986 0.834402 0.274069 0.146010
H2    H     H_    0.063766 0.156830 0.675440 0.148417
H3    H     H_    0.833297 0.946945 0.163405 0.205283
H4    H     H_    0.153398 0.185692 0.764882 0.168449
H5    H     H_    0.136077 0.819370 0.238951 0.179140
H6    H     H_    0.863508 0.035060 0.839315 0.204013
H7    H     H_    0.034984 0.852495 0.330652 0.183947
H8    H     H_    0.828320 0.142373 0.741937 0.186896
H9    H     H_    0.937084 0.160235 0.322392 0.127661
H10   H     H_    0.165645 0.836330 0.728359 0.139747
H11   H     H_    0.697469 0.838577 0.347526 0.165067
H12   H     H_    0.203875 0.156952 0.602349 0.167678
H13   H     H_    0.835569 0.807608 0.090355 0.168730
H14   H     H_    0.150282 0.321391 0.838231 0.155408
H15   H     H_    0.135575 0.680922 0.165856 0.161474
H16   H     H_    0.863938 0.173888 0.913584 0.168921
H17   H     H_    0.851125 0.320251 0.157783 0.192560
H18   H     H_    0.150649 0.791776 0.907339 0.230790
H19   H     H_    0.799581 0.161447 0.398208 0.158765
H20   H     H_    0.304098 0.837448 0.654531 0.165953
H21   H     H_    0.151047 0.157205 0.266600 0.192865
H22   H     H_    0.975983 0.864271 0.660606 0.196418
O1    O     O_R   0.621380 0.090460 0.561410 -0.625664
O2    O     O_R   0.378620 0.909540 0.438590 -0.618852
O3    O     O_R   0.617150 0.909540 0.438590 -0.609136
O4    O     O_R   0.382850 0.090460 0.561410 -0.629140
O5    O     O_R   0.619720 0.093230 0.440890 -0.604021
O6    O     O_R   0.380280 0.906770 0.559110 -0.608311
O7    O     O_R   0.618800 0.906770 0.559110 -0.551602
O8    O     O_R   0.381200 0.093230 0.440890 -0.556906
O9    O     O_R   0.087590 0.627480 0.058790 -0.619474
O10   O     O_R   0.912410 0.372520 0.941210 -0.626748
O11   O     O_R   0.905660 0.383870 0.059980 -0.612522
O12   O     O_R   0.094340 0.616130 0.940020 -0.620633
O13   O     O_R   0.092570 0.390420 0.063230 -0.614066
O14   O     O_R   0.907430 0.609580 0.936770 -0.606960
O15   O     O_R   0.900680 0.620930 0.055550 -0.628507
O16   O     O_R   0.099320 0.379070 0.944450 -0.594058
Zn1   Zn    Zn3+2 0.501730 0.123520 0.501540 1.092718
Zn2   Zn    Zn3+2 0.498270 0.876480 0.498460 1.099993
Zn3   Zn    Zn3+2 0.125690 0.504390 0.002180 1.042182
Zn4   Zn    Zn3+2 0.874310 0.495610 0.997820 1.036234
S1    S     S_3+6 0.352422 0.186914 0.325296 0.073877
O17   O     O_2   0.340966 0.272715 0.371435 -0.290901
O18   O     O_2   0.464587 0.136305 0.330456 -0.248526
O19   O     O_3   0.339574 0.244352 0.259456 -0.507676
H23   H     H_    0.402534 0.295462 0.257289 0.404654
S2    S     S_3+6 0.852557 0.837018 0.558468 0.046125
O20   O     O_2   0.772640 0.744056 0.561909 -0.248401
O21   O     O_2   0.833550 0.896527 0.502547 -0.340021
O22   O     O_3   0.981881 0.788392 0.559447 -0.541717
H24   H     H_    0.983291 0.735073 0.527100 0.389161
C59   C     C_2   0.163949 0.016249 0.157127 0.961641
O23   O     O_2   0.243656 0.012516 0.190245 -0.563192
O24   O     O_R   0.157789 0.947193 0.108694 -0.782729
H25   H     H_    0.222146 0.895377 0.107037 0.355695
C60   C     C_2   0.805527 0.838143 0.764028 0.963613
O25   O     O_2   0.776704 0.778009 0.723973 -0.582931
O26   O     O_R   0.732127 0.914525 0.785752 -0.796714
H26   H     H_    0.659503 0.915293 0.763224 0.367531
S3    S     S_3+6 0.752850 0.157725 0.212899 0.033833
O27   O     O_2   0.684179 0.202950 0.163803 -0.259226
O28   O     O_2   0.711168 0.045282 0.222763 -0.262928
O29   O     O_3   0.728884 0.234039 0.272169 -0.513834
H27   H     H_    0.749200 0.308567 0.260993 0.345579
S4    S     S_3+6 0.213434 0.967279 0.850077 0.013894
O30   O     O_2   0.261640 0.024508 0.799199 -0.314716
O31   O     O_2   0.180515 0.049173 0.895094 -0.265546
O32   O     O_3   0.314756 0.891378 0.879200 -0.541892
H28   H     H_    0.369292 0.943866 0.895482 0.401776
C61   C     C_2   0.172848 0.187086 0.079078 0.989094
O33   O     O_2   0.149010 0.181707 0.027214 -0.579971
O34   O     O_R   0.283353 0.192187 0.097340 -0.737556
H29   H     H_    0.336003 0.191497 0.063546 0.360245
C62   C     C_2   0.834825 0.642490 0.824913 1.002709
O35   O     O_2   0.736791 0.661345 0.831204 -0.573332
O36   O     O_R   0.869951 0.536559 0.815106 -0.801106
H30   H     H_    0.806535 0.482775 0.813618 0.358413
C63   C     C_2   0.159114 0.843107 0.424232 0.982528
O37   O     O_2   0.171191 0.871643 0.475028 -0.599430
O38   O     O_R   0.128323 0.736537 0.410926 -0.797250
H31   H     H_    0.121531 0.690257 0.446874 0.347427
C64   C     C_2   0.644376 0.144212 0.680741 0.970916
O39   O     O_2   0.658220 0.236546 0.698965 -0.603708
O40   O     O_R   0.537355 0.103330 0.672615 -0.803291
H32   H     H_    0.478593 0.158317 0.682242 0.354809

loop_
_geom_bond_atom_site_label_1
_geom_bond_atom_site_label_2
_ccdc_geom_bond_type
C16   C28   A    
C41   O9    A    
C52   H12   S    
C58   H4    S    
S1    O17   D    
C47   S1    S    
C5    C37   A    
C17   C29   A    
C59   O23   D    
C19   C31   A    
C56   C62   S    
O36   H30   S    
C39   C41   S    
C29   C49   A    
C63   O38   S    
C23   O3    A    
O9    Zn3   S    
C42   O16   A    
O4    Zn1   S    
C61   O33   D    
C10   S4    S    
C64   O40   S    
C21   C33   S    
S2    O20   D    
C18   H10   S    
O40   H32   S    
C22   C38   S    
O16   Zn3   S    
C5    H5    S    
C24   O6    A    
C6    H6    S    
C1    O7    A    
C19   H19   S    
C32   C52   A    
C43   O13   A    
C38   C58   A    
C64   O39   D    
C48   S2    S    
C4    C40   A    
C60   O26   S    
O3    Zn2   S    
C1    C28   S    
C50   C52   A    
C6    C38   A    
C2    O8    A    
C2    C27   S    
C18   C30   A    
O11   Zn4   S    
C12   C36   A    
C35   C43   S    
O13   Zn3   S    
O8    Zn1   S    
C44   O12   A    
C36   C44   S    
O7    Zn2   S    
C53   C59   S    
C45   C47   A    
C30   C50   A    
C3    C39   A    
S1    O18   D    
C9    C33   A    
O2    Zn2   S    
C13   C25   A    
O10   Zn4   S    
O19   H23   S    
C46   C48   A    
C53   C55   A    
C33   C53   A    
C22   C34   S    
C54   C56   A    
C17   H9    S    
C35   C55   A    
C10   C34   A    
C44   O14   A    
C59   O24   S    
C5    C7    A    
O15   Zn4   S    
C13   H7    S    
C49   C51   A    
C21   C29   S    
C43   O11   A    
C42   O10   A    
C23   C31   S    
C3    H13   S    
C24   C32   S    
C36   C56   A    
O1    Zn1   S    
C15   C27   A    
O14   Zn4   S    
S3    O27   D    
C54   C60   S    
C7    H15   S    
C8    H16   S    
C14   H8    S    
C45   H21   S    
C14   C26   A    
C9    C11   A    
S3    O28   D    
C10   C12   A    
S4    O32   S    
C3    C57   A    
C34   C54   A    
S1    O19   S    
C13   C15   A    
C23   O5    A    
C62   O35   D    
C9    S3    S    
C14   C16   A    
C2    O2    A    
O34   H29   S    
C25   C45   A    
C4    H14   S    
S4    O31   D    
O24   H25   S    
C20   C32   A    
S3    O29   S    
C27   C47   A    
C21   C25   S    
C55   C61   S    
C28   C48   A    
C22   C30   S    
C31   C51   A    
C40   C42   S    
C6    C8    A    
O38   H31   S    
C57   H3    S    
O32   H28   S    
C51   H11   S    
C63   O37   D    
C49   H1    S    
C20   H20   S    
C50   H2    S    
C12   H18   S    
C16   C64   S    
C24   O4    A    
C11   H17   S    
O26   H26   S    
C46   H22   S    
C41   O15   A    
S2    O21   D    
C11   C35   A    
C17   C19   A    
C18   C20   A    
O6    Zn2   S    
O5    Zn1   S    
C26   C46   A    
C21   C37   S    
C22   C26   S    
C4    C58   A    
C62   O36   S    
C7    C39   A    
C8    C40   A    
C15   C63   S    
O29   H27   S    
O22   H24   S    
C1    O1    A    
C37   C57   A    
C60   O25   D    
O12   Zn3   S    
S4    O30   D    
C61   O34   S    
S2    O22   S    
