data_mof_unit_pretest_1570.cif
_audit_creation_date              2013-03-05T16:37:16-0500
_audit_creation_method            fapswitch 2.2
_symmetry_space_group_name_H-M    P1
_symmetry_Int_Tables_number       1
_space_group_crystal_system       triclinic
_cell_length_a                    21.749356
_cell_length_b                    21.73672
_cell_length_c                    24.700049
_cell_angle_alpha                 116.015679
_cell_angle_beta                  115.798227
_cell_angle_gamma                 89.879195
_cell_volume                      9187.30973005

loop_
_atom_site_label
_atom_site_type_symbol
_atom_site_description
_atom_site_fract_x
_atom_site_fract_y
_atom_site_fract_z
_atom_type_partial_charge
O1    O     O_R   0.049920 0.497760 0.599870 -0.559850
O2    O     O_R   0.049920 0.602100 0.599840 -0.549013
C1    C     C_R   0.066442 0.566208 0.632791 0.865428
O3    O     O_R   0.090180 0.447830 0.500020 -0.537557
O4    O     O_R   0.090180 0.552170 0.499990 -0.567998
C2    C     C_R   0.117643 0.498961 0.498250 0.832755
Cu1   Cu    Cu3+1 0.000000 0.438230 0.500020 1.093722
Cu2   Cu    Cu3+1 1.000000 0.561770 0.499980 1.071485
O5    O     O_R   0.950080 0.397900 0.400160 -0.545690
O6    O     O_R   0.950080 0.502240 0.400130 -0.589342
O7    O     O_R   0.909820 0.447830 0.500010 -0.588058
O8    O     O_R   0.909820 0.552170 0.499980 -0.563955
C3    C     C_R   0.932043 0.433860 0.367525 0.838316
C4    C     C_R   0.881602 0.500331 0.500698 0.827467
H1    H     H_    0.968506 0.253343 0.210748 0.168743
C5    C     C_R   0.041187 0.285659 0.316204 -0.189411
H2    H     H_    0.017700 0.239871 0.313556 0.202757
C6    C     C_R   0.100465 0.335056 0.377053 0.368469
C7    C     C_R   0.128968 0.395219 0.379080 -0.092139
C8    C     C_R   0.100615 0.401664 0.319289 -0.193347
H3    H     H_    0.123263 0.446716 0.320324 0.198158
C9    C     C_R   0.043965 0.350197 0.258016 0.214312
C10   C     C_R   0.013273 0.293007 0.257283 -0.210498
C11   C     C_R   0.254040 0.455697 0.442912 -0.153808
H4    H     H_    0.257163 0.418855 0.397652 0.182162
C12   C     C_R   0.314400 0.504217 0.502207 -0.099879
C13   C     C_R   0.310161 0.550773 0.562131 0.016411
C14   C     C_R   0.244527 0.549151 0.559863 0.366085
C15   C     C_R   0.184921 0.499285 0.499897 -0.143806
C16   C     C_R   0.189883 0.451039 0.441916 0.014471
C17   C     C_R   0.402249 0.577410 0.681478 0.360734
C18   C     C_R   0.464056 0.620699 0.742761 -0.183813
H5    H     H_    0.487212 0.606344 0.782942 0.202673
C19   C     C_R   0.497385 0.682407 0.753189 -0.297859
H6    H     H_    0.545133 0.714591 0.800987 0.185164
C20   C     C_R   0.469105 0.703794 0.703368 0.143968
C21   C     C_R   0.406601 0.662064 0.641218 0.388312
C22   C     C_R   0.373795 0.597424 0.629229 -0.127250
C23   C     C_R   0.103440 0.673630 0.747941 0.106530
C24   C     C_R   0.139325 0.706941 0.819982 -0.232874
H7    H     H_    0.136086 0.760250 0.848730 0.181623
C25   C     C_R   0.177890 0.672407 0.855313 0.008276
C26   C     C_R   0.181809 0.602951 0.817435 0.106467
C27   C     C_R   0.145884 0.568533 0.744732 0.092834
C28   C     C_R   0.105717 0.603431 0.709427 -0.029478
N1    N     N_R   0.233687 0.674790 0.967741 -0.177377
N2    N     N_R   0.266795 0.708970 0.036171 -0.179160
C29   C     C_R   0.281281 0.780229 0.071339 0.515630
N3    N     N_R   0.261323 0.816121 0.035708 -0.182973
N4    N     N_R   0.228342 0.781810 0.967204 -0.217960
C30   C     C_R   0.214171 0.710374 0.931716 0.451736
C31   C     C_R   0.292383 0.869055 0.184670 0.308592
C32   C     C_R   0.331489 0.906430 0.256520 -0.269321
H8    H     H_    0.310794 0.945398 0.285313 0.212125
C33   C     C_R   0.396189 0.893646 0.291812 -0.086876
C34   C     C_R   0.422746 0.842142 0.254734 0.144957
C35   C     C_R   0.384191 0.804338 0.182124 0.081167
C36   C     C_R   0.319213 0.817983 0.147084 -0.083789
H9    H     H_    0.026488 0.476136 0.752931 0.156894
C37   C     C_R   0.939279 0.416008 0.650832 -0.102109
H10   H     H_    0.952653 0.366376 0.645449 0.160887
C38   C     C_R   0.880554 0.417399 0.596804 0.175600
C39   C     C_R   0.864020 0.482968 0.604437 0.055073
C40   C     C_R   0.906127 0.545573 0.666773 0.139750
C41   C     C_R   0.964573 0.542359 0.719970 -0.182445
H11   H     H_    0.997593 0.589825 0.767864 0.152009
C42   C     C_R   0.981132 0.478000 0.711757 -0.178201
C43   C     C_R   0.740094 0.488511 0.546248 -0.191501
H12   H     H_    0.732795 0.479365 0.583072 0.163323
C44   C     C_R   0.685297 0.501621 0.498640 -0.061962
C45   C     C_R   0.695381 0.516200 0.452263 -0.006961
C46   C     C_R   0.760128 0.514201 0.452460 0.131692
C47   C     C_R   0.814270 0.499893 0.499847 -0.063981
C48   C     C_R   0.804693 0.488033 0.547645 -0.046709
C49   C     C_R   0.597328 0.500386 0.340141 0.143054
C50   C     C_R   0.561974 0.530271 0.298693 -0.083914
H13   H     H_    0.526479 0.496783 0.244302 0.173636
C51   C     C_R   0.573375 0.603219 0.326489 -0.248023
H14   H     H_    0.546489 0.625820 0.293782 0.176414
C52   C     C_R   0.618025 0.647078 0.396596 -0.213960
H15   H     H_    0.625666 0.703578 0.417611 0.190124
C53   C     C_R   0.653500 0.618501 0.439396 0.323503
C54   C     C_R   0.644455 0.544582 0.411081 -0.056023
C55   C     C_R   0.904354 0.423865 0.254988 -0.235323
H16   H     H_    0.944056 0.472183 0.282909 0.175512
C56   C     C_R   0.868580 0.388958 0.182690 0.187535
C57   C     C_R   0.818284 0.325057 0.146251 -0.034401
C58   C     C_R   0.803148 0.298624 0.182790 -0.255528
H17   H     H_    0.763308 0.250405 0.154817 0.206600
C59   C     C_R   0.838020 0.333861 0.254980 0.339638
C60   C     C_R   0.890580 0.396470 0.291598 -0.170592
N5    N     N_R   0.711164 0.254237 0.035397 -0.202189
N6    N     N_R   0.677302 0.217388 0.966934 -0.138255
C61   C     C_R   0.711615 0.208886 0.930391 0.443631
N7    N     N_R   0.781117 0.240398 0.965440 -0.232718
N8    N     N_R   0.814934 0.277806 0.033893 -0.191660
C62   C     C_R   0.780618 0.285296 0.070205 0.424761
C63   C     C_R   0.704551 0.179276 0.817888 -0.210911
H18   H     H_    0.755300 0.215043 0.845345 0.188828
C64   C     C_R   0.669992 0.145218 0.746115 -0.180131
H19   H     H_    0.694974 0.155020 0.720202 0.175353
C65   C     C_R   0.603152 0.100572 0.708262 -0.089922
C66   C     C_R   0.572220 0.088621 0.743143 -0.226193
H20   H     H_    0.521502 0.052224 0.714042 0.199119
C67   C     C_R   0.607403 0.120497 0.815280 0.332983
C68   C     C_R   0.673988 0.168277 0.853783 -0.091623
O9    O     O_R   0.471120 0.561280 0.442210 -0.610167
O10   O     O_R   0.528910 0.619050 0.557800 -0.573028
C69   C     C_R   0.497849 0.618831 0.499665 0.839913
O11   O     O_R   0.380930 0.471140 0.442200 -0.593829
O12   O     O_R   0.438710 0.528900 0.557790 -0.580554
C70   C     C_R   0.381033 0.502051 0.500602 0.864321
Cu3   Cu    Cu3+1 0.465780 0.465820 0.431560 0.990328
Cu4   Cu    Cu3+1 0.534220 0.534230 0.568440 1.040075
O13   O     O_R   0.471090 0.380990 0.442200 -0.568581
O14   O     O_R   0.528880 0.438760 0.557790 -0.561570
O15   O     O_R   0.561290 0.471140 0.442210 -0.610062
O16   O     O_R   0.619070 0.528910 0.557800 -0.565828
C71   C     C_R   0.501017 0.381060 0.499953 0.856187
C72   C     C_R   0.618826 0.501399 0.499631 0.822440
O17   O     O_R   0.552160 0.089990 0.499980 -0.592722
O18   O     O_R   0.447770 0.089950 0.499980 -0.564348
C73   C     C_R   0.500822 0.119590 0.502003 0.795530
O19   O     O_R   0.502270 0.949920 0.400150 -0.567029
O20   O     O_R   0.397880 0.949890 0.400140 -0.555069
C74   C     C_R   0.434016 0.933110 0.367609 0.889713
Cu5   Cu    Cu3+1 0.561810 0.999860 0.500000 1.019610
Cu6   Cu    Cu3+1 0.438190 0.999810 0.500000 1.082747
O21   O     O_R   0.552230 0.909720 0.500030 -0.585125
O22   O     O_R   0.447840 0.909680 0.500020 -0.541906
O23   O     O_R   0.602120 0.049780 0.599860 -0.581942
O24   O     O_R   0.497730 0.049740 0.599850 -0.586942
C75   C     C_R   0.500611 0.881569 0.500817 0.862054
C76   C     C_R   0.566005 0.065333 0.632479 0.777206
C77   C     C_R   0.303853 0.536784 0.277422 0.123467
C78   C     C_R   0.366368 0.589192 0.328353 0.120607
C79   C     C_R   0.374353 0.634930 0.394074 0.084069
C80   C     C_R   0.319382 0.628161 0.407658 -0.144699
H21   H     H_    0.323633 0.664278 0.456712 0.244142
C81   C     C_R   0.257324 0.576804 0.357232 -0.259246
H22   H     H_    0.215581 0.573144 0.369208 0.194544
C82   C     C_R   0.248705 0.530807 0.291790 0.374106
C83   C     C_R   0.440684 0.757840 0.447959 0.288279
C84   C     C_R   0.500228 0.813885 0.499089 -0.169379
C85   C     C_R   0.557489 0.805519 0.549656 0.032481
C86   C     C_R   0.554446 0.741356 0.548943 -0.154820
H23   H     H_    0.598488 0.735045 0.587960 0.194698
C87   C     C_R   0.496056 0.685247 0.498503 -0.102638
C88   C     C_R   0.438129 0.693128 0.447639 -0.073541
C89   C     C_R   0.674226 0.883961 0.598219 0.115954
C90   C     C_R   0.734035 0.937367 0.655071 0.290704
C91   C     C_R   0.739556 0.969172 0.721351 0.067174
C92   C     C_R   0.684966 0.946891 0.729686 0.150928
C93   C     C_R   0.625269 0.895557 0.672827 -0.237016
H24   H     H_    0.583870 0.878851 0.680134 0.204204
C94   C     C_R   0.619256 0.863988 0.607167 0.004746
C95   C     C_R   0.533939 0.220234 0.299060 0.185936
C96   C     C_R   0.508714 0.219523 0.342174 -0.137709
H25   H     H_    0.461120 0.181457 0.320444 0.170826
C97   C     C_R   0.545036 0.266608 0.413154 0.080970
C98   C     C_R   0.606633 0.315498 0.440740 -0.166835
H26   H     H_    0.635718 0.351697 0.495511 0.124956
C99   C     C_R   0.632262 0.316352 0.398011 -0.198946
H27   H     H_    0.680209 0.353888 0.420187 0.143155
C100  C     C_R   0.596926 0.268193 0.327140 0.165997
C101  C     C_R   0.521838 0.197195 0.461251 -0.210949
H28   H     H_    0.537968 0.155372 0.429484 0.163294
C102  C     C_R   0.501323 0.187370 0.503641 -0.090171
C103  C     C_R   0.479738 0.241030 0.544871 -0.018506
C104  C     C_R   0.478466 0.304348 0.542366 0.309625
C105  C     C_R   0.500358 0.314100 0.500065 -0.188709
C106  C     C_R   0.521565 0.259900 0.458755 -0.016282
C107  C     C_R   0.389321 0.218041 0.576720 0.353320
C108  C     C_R   0.375050 0.218110 0.627031 -0.250554
H29   H     H_    0.320993 0.206213 0.615287 0.224984
C109  C     C_R   0.429255 0.232869 0.692110 0.301266
C110  C     C_R   0.499846 0.248325 0.707075 0.119294
C111  C     C_R   0.514298 0.246782 0.656699 -0.196826
H30   H     H_    0.568505 0.259813 0.669059 0.172906
C112  C     C_R   0.460110 0.232564 0.592100 -0.016880
N9    N     N_3   0.503025 0.769284 0.716989 -0.492958
H31   H     H_    0.554305 0.766928 0.725684 0.222637
H32   H     H_    0.505937 0.809301 0.762175 0.249055
N10   N     N_R   0.375925 0.686165 0.591521 0.111301
O25   O     O_R   0.308307 0.679022 0.559632 -0.348199
O26   O     O_R   0.415677 0.722288 0.583489 -0.367894
N11   N     N_3   0.063885 0.710952 0.713985 -0.510503
H33   H     H_    0.010717 0.688765 0.691869 0.202043
H34   H     H_    0.072746 0.763743 0.749445 0.243972
N12   N     N_3   0.223785 0.568025 0.852885 -0.547660
H35   H     H_    0.191847 0.521759 0.838356 0.227070
H36   H     H_    0.263064 0.555355 0.839089 0.251241
N13   N     N_3   0.151554 0.498491 0.706535 -0.506642
H37   H     H_    0.132549 0.464959 0.718649 0.213481
H38   H     H_    0.204299 0.498657 0.720203 0.277221
N14   N     N_R   0.224790 0.882118 0.151116 0.146486
O27   O     O_R   0.213404 0.944506 0.178089 -0.302797
O28   O     O_R   0.171959 0.830224 0.099022 -0.314632
N15   N     N_3   0.487744 0.827194 0.291150 -0.547654
H39   H     H_    0.478404 0.774366 0.278776 0.231242
H40   H     H_    0.522974 0.835698 0.275500 0.218934
N16   N     N_3   0.411232 0.752937 0.143310 -0.560184
H41   H     H_    0.418331 0.713896 0.157864 0.236059
H42   H     H_    0.459824 0.777496 0.154743 0.226668
N17   N     N_3   0.839438 0.351586 0.535406 -0.568704
H43   H     H_    0.795335 0.358106 0.499891 0.227433
H44   H     H_    0.870516 0.331986 0.512075 0.249819
N18   N     N_3   0.888458 0.611944 0.675867 -0.532374
H45   H     H_    0.894658 0.622766 0.641043 0.221716
H46   H     H_    0.923528 0.652539 0.725101 0.223166
N19   N     N_3   0.772414 0.528394 0.405863 -0.551273
H47   H     H_    0.766745 0.579184 0.414823 0.252565
H48   H     H_    0.735568 0.492300 0.355299 0.224745
N20   N     N_3   0.586834 0.425347 0.308376 -0.567927
H49   H     H_    0.634989 0.412533 0.315298 0.227604
H50   H     H_    0.568927 0.407328 0.332958 0.255516
N21   N     N_R   0.131573 0.322232 0.434806 0.151305
O29   O     O_R   0.093926 0.282226 0.441345 -0.312877
O30   O     O_R   0.198715 0.344545 0.477420 -0.237649
N22   N     N_R   0.703010 0.665046 0.510223 0.111788
O31   O     O_R   0.751414 0.714571 0.526325 -0.352394
O32   O     O_R   0.700235 0.658097 0.558846 -0.366132
N23   N     N_3   0.882704 0.418446 0.146197 -0.526804
H51   H     H_    0.837991 0.434546 0.122538 0.226870
H52   H     H_    0.923713 0.463613 0.180458 0.251478
N24   N     N_R   0.817009 0.307141 0.289803 0.129079
O33   O     O_R   0.796506 0.239602 0.263855 -0.347480
O34   O     O_R   0.807340 0.349772 0.340760 -0.396409
N25   N     N_R   0.576386 0.100529 0.847661 0.142661
O35   O     O_R   0.612014 0.076274 0.888792 -0.322184
O36   O     O_R   0.509103 0.092819 0.825573 -0.270405
N26   N     N_R   0.183130 0.480080 0.239965 0.128094
O37   O     O_R   0.181045 0.419281 0.193397 -0.322663
O38   O     O_R   0.124875 0.494169 0.239760 -0.365990
N27   N     N_3   0.295276 0.491285 0.210308 -0.490949
H53   H     H_    0.300976 0.522439 0.189639 0.252145
H54   H     H_    0.335437 0.464171 0.215638 0.239988
N28   N     N_3   0.421232 0.595163 0.312499 -0.607625
H55   H     H_    0.431245 0.645583 0.318926 0.247637
H56   H     H_    0.466189 0.589625 0.348108 0.248542
N29   N     N_R   0.383800 0.766010 0.395015 0.122207
O39   O     O_R   0.320631 0.757542 0.386960 -0.303163
O40   O     O_R   0.395273 0.782419 0.354986 -0.392781
N30   N     N_3   0.670215 0.847809 0.531851 -0.548549
H57   H     H_    0.714596 0.827230 0.537166 0.286223
H58   H     H_    0.672118 0.884373 0.515548 0.266149
N31   N     N_R   0.789673 0.957202 0.645406 0.104573
O41   O     O_R   0.779752 0.989381 0.609643 -0.354671
O42   O     O_R   0.848784 0.939011 0.668527 -0.303823
N32   N     N_3   0.018413 0.356781 0.197057 -0.513011
H59   H     H_    0.058082 0.351774 0.183354 0.283132
H60   H     H_    0.975512 0.315028 0.156168 0.235320
N33   N     N_3   0.799725 0.023405 0.780810 -0.550750
H61   H     H_    0.783011 0.070108 0.796950 0.222504
H62   H     H_    0.837969 0.033241 0.769069 0.281952
N34   N     N_3   0.690302 0.974379 0.796307 -0.525587
H63   H     H_    0.697662 0.028957 0.818080 0.242584
H64   H     H_    0.734931 0.963518 0.827217 0.259691
N35   N     N_3   0.624435 0.267400 0.283518 -0.567777
H65   H     H_    0.639409 0.219801 0.265964 0.251213
H66   H     H_    0.670358 0.306942 0.312094 0.256659
N36   N     N_3   0.495231 0.171319 0.226942 -0.562747
H67   H     H_    0.483033 0.199796 0.200253 0.258717
H68   H     H_    0.527488 0.139188 0.213197 0.236010
N37   N     N_R   0.451156 0.357178 0.579647 0.136778
O43   O     O_R   0.398073 0.377729 0.546799 -0.290009
O44   O     O_R   0.478766 0.384499 0.646040 -0.321074
N38   N     N_R   0.331691 0.204191 0.511380 0.157264
O45   O     O_R   0.270821 0.214546 0.506077 -0.250068
O46   O     O_R   0.337786 0.176674 0.455886 -0.324300
N39   N     N_R   0.411449 0.233921 0.742271 0.142011
O47   O     O_R   0.351452 0.246003 0.738472 -0.292273
O48   O     O_R   0.451515 0.216623 0.788011 -0.316704
N40   N     N_3   0.557849 0.270650 0.774141 -0.550778
H69   H     H_    0.560356 0.229192 0.784972 0.264276
H70   H     H_    0.549567 0.312964 0.810232 0.268228
N41   N     N_R   0.239180 0.595041 0.620045 0.111692
O49   O     O_R   0.261607 0.662882 0.649953 -0.296430
O50   O     O_R   0.216595 0.568583 0.647934 -0.356988
N42   N     N_R   0.369318 0.514657 0.674427 0.166572
O51   O     O_R   0.382726 0.509723 0.728942 -0.313206
O52   O     O_R   0.328751 0.460765 0.614437 -0.243150

loop_
_geom_bond_atom_site_label_1
_geom_bond_atom_site_label_2
_geom_bond_distance
_ccdc_geom_bond_type
C96   C97   1.403264 A    
C57   C58   1.402610 A    
Cu2   O6    1.952302 S    
C49   C50   1.399101 A    
C101  C106  1.391032 A    
C95   C96   1.399377 A    
Cu4   O14   1.970969 S    
C78   N28   1.430378 S    
C89   C90   1.413528 A    
N27   H54   1.045655 S    
C103  C104  1.404251 A    
C51   H14   1.082451 S    
N7    N8    1.332271 A    
C31   N14   1.439752 S    
C64   H19   1.083106 S    
C105  C106  1.412327 A    
O23   C76   1.300445 A    
N22   O32   1.300418 A    
C111  H30   1.084271 S    
C35   C36   1.411770 A    
C77   C78   1.410523 A    
N9    H31   1.045728 S    
N30   H57   1.043296 S    
Cu1   O7    1.971896 S    
C40   N18   1.438043 S    
N35   H65   1.045229 S    
C12   C13   1.423994 A    
N25   O35   1.301331 A    
O20   C74   1.299129 A    
N16   H42   1.044999 S    
C37   C38   1.401683 A    
C14   C15   1.405552 A    
C99   C100  1.405579 A    
C21   C22   1.423488 A    
C50   C51   1.394844 A    
N29   O39   1.300784 A    
O1    Cu1   1.952304 S    
C27   N13   1.436553 S    
O4    C2    1.293105 A    
C52   H15   1.082547 S    
O7    C4    1.291668 A    
N20   H50   1.043467 S    
C33   C34   1.408543 A    
C46   N19   1.439020 S    
C104  C105  1.411044 A    
C13   C22   1.491848 S    
C43   C48   1.390455 A    
C83   C84   1.410548 A    
Cu5   O23   1.950345 S    
N26   O37   1.301154 A    
C6    C7    1.419862 A    
N10   O25   1.301041 A    
Cu1   O5    1.951254 S    
N40   H69   1.041728 S    
C47   C48   1.408892 A    
O10   Cu4   1.969621 S    
N3    N4    1.331381 A    
O5    C3    1.300335 A    
C108  H29   1.082566 S    
O9    Cu3   1.970751 S    
O11   C70   1.295876 A    
H9    C42   1.082505 S    
Cu3   Cu4   2.660131 S    
C85   C94   1.483338 S    
C66   C67   1.404613 A    
C77   C82   1.411758 A    
C61   C68   1.489748 S    
N19   H47   1.044905 S    
C37   C42   1.393903 A    
C44   C72   1.456583 S    
C43   H12   1.084632 S    
C41   C42   1.392989 A    
N34   H64   1.045424 S    
C35   N16   1.435854 S    
N5    C62   1.357021 A    
O20   Cu6   1.950346 S    
N27   H53   1.045616 S    
C83   N29   1.437646 S    
C109  C110  1.416317 A    
C44   C45   1.413575 A    
C55   C60   1.403888 A    
O10   C69   1.291504 A    
N37   O43   1.300466 A    
C103  C112  1.482920 S    
C45   C54   1.486288 S    
Cu2   O8    1.972863 S    
C25   C30   1.485093 S    
C23   C28   1.415292 A    
C34   N15   1.435534 S    
C23   N11   1.437934 S    
C58   H17   1.083605 S    
N31   O42   1.300855 A    
C95   N36   1.431548 S    
N15   H39   1.045141 S    
C92   C93   1.395515 A    
C107  C108  1.405253 A    
N41   O49   1.300776 A    
C3    C60   1.478119 S    
C104  N37   1.437014 S    
C101  C102  1.394332 A    
O9    C69   1.282363 A    
C79   C88   1.488824 S    
N42   O52   1.300020 A    
C61   N7    1.359700 A    
C17   C22   1.426173 A    
O3    Cu1   1.972864 S    
H1    C10   1.082867 S    
Cu6   O24   1.953307 S    
N26   O38   1.301256 A    
N22   O31   1.300055 A    
C98   C99   1.397914 A    
C110  N40   1.431623 S    
C85   C86   1.388401 A    
C86   C87   1.396025 A    
C50   H13   1.082816 S    
C32   C33   1.400151 A    
N34   H63   1.043277 S    
C81   H22   1.082947 S    
N28   H56   1.043061 S    
N11   H34   1.045641 S    
N16   H41   1.044987 S    
C39   C40   1.414613 A    
C4    C47   1.455388 S    
C14   N41   1.437854 S    
C11   H4    1.084531 S    
C26   N12   1.435587 S    
N23   H51   1.045459 S    
N14   O28   1.301411 A    
N28   H55   1.045003 S    
N9    H32   1.045636 S    
C95   C100  1.410400 A    
C23   C24   1.401100 A    
N33   H62   1.042493 S    
N20   H49   1.043293 S    
C5    H2    1.082479 S    
N36   H68   1.045224 S    
C107  C112  1.414980 A    
N13   H38   1.044910 S    
N32   H59   1.045110 S    
N17   H43   1.042009 S    
C21   N10   1.440885 S    
N1    C30   1.357870 A    
C1    C28   1.489760 S    
O24   C76   1.300107 A    
C100  N35   1.436659 S    
C37   H10   1.082909 S    
N29   O40   1.300603 A    
C67   N25   1.434768 S    
C96   H25   1.083837 S    
C26   C27   1.413371 A    
Cu5   O21   1.971189 S    
N12   H35   1.045021 S    
C15   C16   1.406755 A    
N33   H61   1.044610 S    
C19   H6    1.083072 S    
C34   C35   1.412798 A    
N11   H33   1.043841 S    
C82   N26   1.438004 S    
N2    C29   1.355189 A    
C33   C74   1.473508 S    
C83   C88   1.404266 A    
C90   C91   1.417354 A    
N8    C62   1.357201 A    
C8    H3    1.082312 S    
C38   C39   1.420340 A    
C64   C65   1.398646 A    
N4    C30   1.359176 A    
C97   C106  1.481691 S    
N24   O33   1.301315 A    
N6    C61   1.358372 A    
C55   H16   1.083707 S    
C29   C36   1.472034 S    
C17   N42   1.446049 S    
N37   O44   1.301008 A    
O11   Cu3   1.970443 S    
N18   H45   1.044991 S    
C93   H24   1.084213 S    
Cu4   O16   1.970445 S    
C31   C36   1.414039 A    
C110  C111  1.397111 A    
O19   Cu5   1.953312 S    
Cu3   O15   1.973921 S    
C73   C102  1.455969 S    
O3    C2    1.289226 A    
C102  C103  1.410576 A    
N21   O29   1.301536 A    
C92   N34   1.431735 S    
C58   C59   1.403067 A    
N13   H37   1.044946 S    
C5    C10   1.395213 A    
O13   C71   1.283929 A    
C53   C54   1.416071 A    
N41   O50   1.299926 A    
C101  H28   1.085219 S    
C80   C81   1.393793 A    
O21   C75   1.291333 A    
C89   N30   1.434633 S    
O15   C72   1.284690 A    
C69   C87   1.456592 S    
N21   O30   1.301100 A    
C56   N23   1.437490 S    
C8    C9    1.399150 A    
C108  C109  1.405849 A    
C32   H8    1.083720 S    
Cu5   Cu6   2.688656 S    
C12   C70   1.467007 S    
C66   H20   1.083536 S    
C31   C32   1.399027 A    
C56   C57   1.410247 A    
O19   C74   1.299753 A    
C86   H23   1.084917 S    
C67   C68   1.421780 A    
N39   O48   1.300570 A    
N30   H58   1.044498 S    
N1    N2    1.329905 A    
C20   C21   1.412317 A    
C75   C84   1.452954 S    
N12   H36   1.044910 S    
C38   N17   1.438010 S    
O12   C70   1.283398 A    
N19   H48   1.043798 S    
N38   O46   1.301081 A    
C93   C94   1.399175 A    
C59   N24   1.437894 S    
C17   C18   1.403024 A    
O2    Cu2   1.951256 S    
C27   C28   1.418989 A    
C11   C12   1.399307 A    
C77   N27   1.433306 S    
C55   C56   1.405189 A    
N14   O27   1.301477 A    
N35   H66   1.045159 S    
O6    C3    1.299658 A    
Cu6   O22   1.970092 S    
C6    N21   1.441640 S    
O4    Cu2   1.971892 S    
C111  C112  1.400926 A    
N31   O41   1.300616 A    
N23   H52   1.045672 S    
O17   Cu5   1.970094 S    
C9    N32   1.434137 S    
N36   H67   1.045556 S    
C81   C82   1.402483 A    
C39   C48   1.484659 S    
C89   C94   1.408213 A    
C79   C80   1.398868 A    
C49   N20   1.432192 S    
C63   C64   1.395364 A    
C63   C68   1.408789 A    
O14   C71   1.288027 A    
C84   C85   1.410118 A    
C18   H5    1.082564 S    
C7    C8    1.403362 A    
O2    C1    1.304416 A    
O8    C4    1.294831 A    
N42   O51   1.301710 A    
N25   O36   1.301184 A    
N18   H46   1.045675 S    
C98   H26   1.083010 S    
C97   C98   1.401666 A    
C90   N31   1.432176 S    
C7    C16   1.483689 S    
C49   C54   1.417044 A    
C59   C60   1.415541 A    
C91   N33   1.440140 S    
C46   C47   1.404094 A    
C29   N3    1.356490 A    
C40   C41   1.404849 A    
C24   C25   1.401241 A    
N5    N6    1.331870 A    
C11   C16   1.387975 A    
C52   C53   1.401024 A    
N10   O26   1.300870 A    
O12   Cu4   1.973923 S    
C51   C52   1.393752 A    
C87   C88   1.416062 A    
C41   H11   1.082897 S    
O18   Cu6   1.971072 S    
C65   C66   1.401407 A    
O16   C72   1.289038 A    
O17   C73   1.296334 A    
C99   H27   1.080557 S    
Cu1   Cu2   2.685788 S    
C80   H21   1.077627 S    
C65   C76   1.473696 S    
O22   C75   1.295757 A    
C45   C46   1.406737 A    
C2    C15   1.445967 S    
C53   N22   1.433831 S    
C91   C92   1.410416 A    
C19   C20   1.396640 A    
C5    C6    1.406251 A    
C63   H18   1.082680 S    
C25   C26   1.411275 A    
C71   C105  1.456831 S    
C13   C14   1.403943 A    
N15   H40   1.044887 S    
C43   C44   1.398953 A    
C9    C10   1.401619 A    
C78   C79   1.411864 A    
C24   H7    1.083193 S    
C20   N9    1.432536 S    
O1    C1    1.300236 A    
O18   C73   1.293710 A    
C57   C62   1.478443 S    
N17   H44   1.045438 S    
N32   H60   1.045731 S    
C107  N38   1.442559 S    
N24   O34   1.301344 A    
N39   O47   1.301596 A    
C109  N39   1.441620 S    
C18   C19   1.389057 A    
N38   O45   1.301577 A    
Cu3   O13   1.969838 S    
N40   H70   1.045422 S    
