data_mof_unit_pretest_441.cif
_audit_creation_date              2013-03-05T15:58:45-0500
_audit_creation_method            fapswitch 2.2
_symmetry_space_group_name_H-M    P1
_symmetry_Int_Tables_number       1
_space_group_crystal_system       triclinic
_cell_length_a                    6.988491
_cell_length_b                    15.034444
_cell_length_c                    15.53689
_cell_angle_alpha                 90.267735
_cell_angle_beta                  91.436695
_cell_angle_gamma                 89.988989
_cell_volume                      1631.90015126

loop_
_atom_site_label
_atom_site_type_symbol
_atom_site_description
_atom_site_fract_x
_atom_site_fract_y
_atom_site_fract_z
_atom_type_partial_charge
O1    O     O_R   0.494320 0.415010 0.412140 -0.539443
O2    O     O_R   0.824010 0.404260 0.587250 -0.592354
O3    O     O_R   0.994320 0.584990 0.587860 -0.594067
C1    C     C_R   0.656131 0.380758 0.614472 1.047209
O4    O     O_R   0.824040 0.403870 0.412760 -0.618278
O5    O     O_R   0.994350 0.584590 0.412130 -0.592582
C2    C     C_R   0.653038 0.376480 0.387805 0.912136
O6    O     O_R   0.494300 0.415410 0.587870 -0.566827
O7    O     O_3   0.660800 0.559290 0.500000 -0.292232
V1    V     V_3+5 0.935650 0.489000 0.500000 1.205444
O8    O     O_R   0.324060 0.595740 0.412750 -0.600968
C3    C     C_R   0.153132 0.624402 0.389035 0.831893
O9    O     O_R   0.324040 0.596130 0.587240 -0.594553
C4    C     C_R   0.156502 0.615504 0.618612 0.933823
V2    V     V_3+5 0.435660 0.511000 0.500000 1.224158
O10   O     O_3   0.160640 0.440710 0.500000 -0.223415
C5    C     C_3   0.965047 0.700635 0.744153 -0.100446
C6    C     C_3   0.087632 0.702891 0.828786 -0.054538
H1    H     H_    0.048684 0.669643 0.889525 0.159788
H2    H     H_    0.824955 0.666618 0.735298 0.169234
C7    C     C_3   0.120192 0.803651 0.816971 -0.103809
C8    C     C_3   0.996775 0.801558 0.733167 -0.146091
C9    C     C_3   0.178407 0.782372 0.680810 -0.167007
C10   C     C_3   0.301747 0.783903 0.765176 -0.099374
C11   C     C_3   0.268834 0.682756 0.776056 -0.067299
C12   C     C_3   0.146302 0.682169 0.692082 -0.120709
H3    H     H_    0.877658 0.846768 0.714692 0.182445
H4    H     H_    0.216239 0.815652 0.619910 0.125889
H5    H     H_    0.443111 0.816933 0.773683 0.147740
H6    H     H_    0.381611 0.633708 0.793701 0.192006
C13   C     C_3   0.282687 0.845618 0.263832 -0.331080
H7    H     H_    0.424161 0.854967 0.234261 0.188861
H8    H     H_    0.247721 0.910260 0.294875 0.131581
C14   C     C_3   0.296758 0.771725 0.334263 -0.309748
H9    H     H_    0.280072 0.802232 0.399016 0.130174
H10   H     H_    0.441883 0.741341 0.333333 0.173028
H11   H     H_    0.312674 0.624215 0.225469 0.195258
C15   C     C_3   0.163401 0.729877 0.155371 0.282500
C16   C     C_3   0.933197 0.817035 0.244074 -0.413058
C17   C     C_3   0.124897 0.822618 0.194495 -0.039691
H12   H     H_    0.813203 0.799888 0.198918 0.223504
H13   H     H_    0.899086 0.883059 0.272519 0.152966
C18   C     C_3   0.141710 0.698420 0.318942 0.075041
C19   C     C_3   0.173272 0.659647 0.227220 -0.486998
C20   C     C_3   0.943989 0.745883 0.316664 -0.338088
H14   H     H_    0.918877 0.778149 0.379974 0.150462
H15   H     H_    0.827592 0.696342 0.305484 0.179352
H16   H     H_    0.038390 0.713695 0.111842 0.070722
H17   H     H_    0.054390 0.614401 0.211272 0.157719
C21   C     C_3   0.442536 0.265844 0.684094 0.147083
H18   H     H_    0.339660 0.316017 0.707498 0.104926
C22   C     C_3   0.435683 0.186646 0.748777 0.257646
H19   H     H_    0.310970 0.195168 0.791612 0.034919
H20   H     H_    0.552691 0.297464 0.886719 0.166983
C23   C     C_3   0.696195 0.349543 0.773212 0.015788
C24   C     C_3   0.800010 0.234926 0.670331 -0.467645
C25   C     C_3   0.646665 0.309146 0.683366 -0.309411
H21   H     H_    0.944762 0.265411 0.674511 0.171121
H22   H     H_    0.789693 0.208699 0.603888 0.259265
C26   C     C_3   0.624051 0.183752 0.805920 -0.332668
C27   C     C_3   0.672543 0.278172 0.845459 0.186787
C28   C     C_3   0.790551 0.161221 0.742116 0.320802
H23   H     H_    0.927104 0.163684 0.780171 0.075341
H24   H     H_    0.850078 0.368230 0.771569 0.148094
C29   C     C_3   0.508889 0.331291 0.242297 0.374544
H25   H     H_    0.572824 0.395236 0.220959 0.067216
C30   C     C_3   0.495021 0.259274 0.170284 0.129647
H26   H     H_    0.345958 0.232409 0.169432 0.114557
H27   H     H_    0.418745 0.220416 0.379972 0.219460
H28   H     H_    0.402245 0.115725 0.270435 0.158424
C31   C     C_3   0.562971 0.211147 0.352677 -0.208470
C32   C     C_3   0.837039 0.281950 0.280570 -0.453581
C33   C     C_3   0.639225 0.301244 0.318752 -0.096244
H29   H     H_    0.946828 0.265901 0.331250 0.228396
H30   H     H_    0.873204 0.342647 0.247606 0.181854
C34   C     C_3   0.624355 0.178555 0.192263 -0.089516
C35   C     C_3   0.552316 0.139606 0.278776 -0.481225
C36   C     C_3   0.831826 0.209647 0.210135 -0.335935
H31   H     H_    0.893953 0.235716 0.150066 0.165531
H32   H     H_    0.922325 0.152520 0.231480 0.171352
H33   H     H_    0.660184 0.187000 0.405283 0.186109
H34   H     H_    0.640450 0.080859 0.297611 0.169417
O11   O     O_R   0.771990 0.083520 0.910980 -0.563852
O12   O     O_R   0.442180 0.095020 0.086060 -0.586471
O13   O     O_R   0.271950 0.914280 0.086680 -0.574508
C37   C     C_R   0.612172 0.111228 0.119376 0.939420
O14   O     O_R   0.442270 0.094630 0.911580 -0.592838
O15   O     O_R   0.272040 0.913890 0.910940 -0.582090
C38   C     C_R   0.610359 0.115234 0.880319 1.132836
O16   O     O_R   0.771900 0.083910 0.086710 -0.613627
O17   O     O_3   0.605520 0.939610 0.998840 -0.257600
V3    V     V_3+5 0.330640 0.009880 0.998810 1.225609
O18   O     O_R   0.942330 0.902710 0.911540 -0.572035
C39   C     C_R   0.110788 0.876749 0.885767 0.977162
O19   O     O_R   0.942240 0.903100 0.086030 -0.601688
C40   C     C_R   0.111754 0.889742 0.121386 0.853327
V4    V     V_3+5 0.830640 0.987830 0.998780 1.228428
O20   O     O_3   0.105630 0.058150 0.998800 -0.275764
N1    N     N_R   0.335585 0.727141 0.102896 0.244863
O21   O     O_R   0.506054 0.730286 0.138331 -0.438642
O22   O     O_R   0.318566 0.714190 0.020216 -0.424569
N2    N     N_R   0.375649 0.240423 0.596518 0.233872
O23   O     O_R   0.472535 0.185655 0.549445 -0.426866
O24   O     O_R   0.214141 0.271201 0.565822 -0.427246
O25   O     O_3   0.425790 0.105497 0.702517 -0.561573
C41   C     C_3   0.240986 0.080295 0.676347 0.441739
H35   H     H_    0.247385 0.054747 0.609263 0.163197
H36   H     H_    0.136541 0.135315 0.675700 0.056273
C42   C     C_3   0.181540 0.005537 0.732991 -0.925644
H37   H     H_    0.128606 0.032438 0.794570 0.249461
H38   H     H_    0.070109 0.966944 0.698403 0.252870
H39   H     H_    0.306020 0.961646 0.746023 0.270580
N3    N     N_R   0.590766 0.431933 0.791224 0.224845
O26   O     O_R   0.409390 0.431031 0.807636 -0.459974
O27   O     O_R   0.682592 0.507153 0.795643 -0.451243
N4    N     N_R   0.775222 0.070463 0.704962 0.253937
O28   O     O_R   0.747828 0.002396 0.754560 -0.454920
O29   O     O_R   0.784300 0.056180 0.622421 -0.395096
O30   O     O_3   0.846341 0.270404 0.894700 -0.641902
C43   C     C_3   0.884706 0.344936 0.948297 0.289174
H40   H     H_    0.895308 0.320951 0.015609 0.152662
H41   H     H_    0.774625 0.398324 0.944026 0.179115
C44   C     C_3   0.077455 0.385194 0.927038 -0.767352
H42   H     H_    0.062770 0.428438 0.869639 0.255670
H43   H     H_    0.131348 0.426530 0.981928 0.231322
H44   H     H_    0.182632 0.331829 0.914032 0.294755
O31   O     O_3   0.324303 0.344899 0.271276 -0.640899
C45   C     C_3   0.217894 0.395795 0.211451 0.173307
H45   H     H_    0.123458 0.352195 0.171632 0.121349
H46   H     H_    0.302131 0.436034 0.165515 0.151027
C46   C     C_3   0.109206 0.458406 0.265170 -0.873120
H47   H     H_    0.070622 0.426789 0.325546 0.315855
H48   H     H_    0.215005 0.507115 0.285746 0.238305
H49   H     H_    0.979207 0.482833 0.230495 0.201011
N5    N     N_R   0.523479 0.295888 0.084217 0.190241
O32   O     O_R   0.425629 0.260928 0.020437 -0.462821
O33   O     O_R   0.589955 0.375953 0.074732 -0.500713

loop_
_geom_bond_atom_site_label_1
_geom_bond_atom_site_label_2
_geom_bond_distance
_ccdc_geom_bond_type
C19   H17   1.096667 S    
O18   C39   1.311732 A    
C34   C37   1.516158 S    
C27   O30   1.424205 S    
C6    C7    1.544395 S    
O2    C1    1.306372 A    
O19   C40   1.309115 A    
C1    O6    1.303702 A    
C46   H49   1.107987 S    
C45   H45   1.106286 S    
V4    O20   2.193547 S    
V3    O20   1.731733 S    
N5    O32   1.298889 A    
C2    C33   1.556707 S    
C26   C38   1.556669 S    
C13   C17   1.559872 S    
C28   N4    1.481945 S    
C5    C12   1.544435 S    
C29   O31   1.391682 S    
C7    C8    1.543864 S    
O12   C37   1.306425 A    
C14   H9    1.112497 S    
C3    C18   1.561301 S    
C42   H38   1.099161 S    
O5    C3    1.319306 A    
O13   C40   1.308621 A    
C36   H32   1.113364 S    
C44   H43   1.111038 S    
C41   H35   1.111053 S    
V2    O10   2.193520 S    
C5    H2    1.109852 S    
C29   C33   1.547692 S    
N4    O28   1.300987 A    
C26   C28   1.583013 S    
C6    H1    1.109887 S    
C9    C12   1.534633 S    
H27   C31   1.111753 S    
C10   H5    1.110442 S    
C32   C36   1.538646 S    
C22   C26   1.569961 S    
O8    V2    2.007929 S    
O15   V3    2.016939 S    
N4    O29   1.302404 A    
C29   C30   1.554612 S    
C1    C25   1.524358 S    
C21   C22   1.563204 S    
C9    C10   1.550711 S    
C13   H8    1.112778 S    
O1    V2    2.030664 S    
O7    V1    2.192125 S    
O16   V4    2.032478 S    
C15   H16   1.117468 S    
C43   C44   1.521315 S    
C16   C20   1.558518 S    
O9    C4    1.311655 A    
H28   C35   1.112885 S    
C6    C11   1.554341 S    
C17   C40   1.523990 S    
C32   H30   1.081618 S    
C8    C9    1.550999 S    
O13   V3    2.035810 S    
C43   H41   1.112735 S    
C21   H18   1.108364 S    
C16   H13   1.112907 S    
C34   C35   1.563476 S    
C20   H15   1.112898 S    
O11   C38   1.305797 A    
O15   C39   1.307973 A    
C30   H26   1.117106 S    
C44   H42   1.108752 S    
C10   C11   1.548705 S    
C16   H12   1.109402 S    
C37   O16   1.303300 A    
C42   H39   1.106986 S    
O17   V3    2.192155 S    
O4    C2    1.312818 A    
C36   H31   1.112183 S    
C32   C33   1.544840 S    
C44   H44   1.109290 S    
C23   N3    1.470457 S    
C11   C12   1.542542 S    
C20   H14   1.112579 S    
C4    C12   1.518550 S    
C26   C27   1.577645 S    
C30   N5    1.466626 S    
C18   C19   1.557958 S    
C15   C19   1.540424 S    
C28   H23   1.110476 S    
N1    O21   1.300559 A    
O30   C43   1.414631 S    
C23   H24   1.112502 S    
C5    C6    1.551522 S    
C13   C14   1.564355 S    
C9    H4    1.110214 S    
O17   V4    1.732397 S    
N2    O24   1.300153 A    
C18   C20   1.554712 S    
O3    C4    1.301675 A    
C32   H29   1.112799 S    
N1    O22   1.300874 A    
C22   O25   1.413923 S    
C21   N2    1.476233 S    
O6    V2    2.021686 S    
C8    H3    1.107691 S    
O9    V2    2.029833 S    
O11   V4    2.022043 S    
C24   C28   1.578445 S    
C24   C25   1.562976 S    
C46   H47   1.093391 S    
O2    V1    2.034457 S    
C45   C46   1.477782 S    
O18   V4    2.029933 S    
C31   C35   1.570017 S    
C22   H19   1.116777 S    
C31   C33   1.554886 S    
N3    O26   1.299275 A    
C11   H6    1.109478 S    
N5    O33   1.300699 A    
O1    C2    1.314370 A    
C21   C25   1.568523 S    
C13   H7    1.109859 S    
C14   C18   1.558992 S    
C34   C36   1.541657 S    
C15   N1    1.470783 S    
C46   H48   1.082276 S    
C45   H46   1.116761 S    
O5    V1    2.035719 S    
O8    C3    1.314371 A    
O19   V4    2.007831 S    
H20   C27   1.105312 S    
O25   C41   1.396175 S    
C5    C8    1.544346 S    
C24   H22   1.104012 S    
H11   C19   1.111119 S    
C23   C25   1.550874 S    
O7    V2    1.732942 S    
O4    V1    2.003709 S    
O3    V1    2.016925 S    
V1    O10   1.731737 S    
C42   H37   1.108988 S    
C15   C17   1.544722 S    
C41   H36   1.103000 S    
C35   H34   1.112785 S    
C23   C27   1.568222 S    
C24   H21   1.110947 S    
C14   H10   1.112654 S    
N2    O23   1.300136 A    
C16   C17   1.564476 S    
C29   H25   1.115520 S    
C7    C39   1.532026 S    
C7    C10   1.547391 S    
O14   C38   1.319811 A    
C43   H40   1.108543 S    
C30   C34   1.547332 S    
O12   V3    2.003724 S    
N3    O27   1.301073 A    
O14   V3    2.034314 S    
O31   C45   1.405078 S    
C31   H33   1.111863 S    
C41   C42   1.496028 S    
