data_mof_unit_pretest_1207.cif
_audit_creation_date              2012-12-10T17:02:51-0500
_audit_creation_method            fapswitch 2.2
_symmetry_space_group_name_H-M    P1
_symmetry_Int_Tables_number       1
_space_group_crystal_system       triclinic
_cell_length_a                    18.836384
_cell_length_b                    19.053559
_cell_length_c                    18.486935
_cell_angle_alpha                 108.698804
_cell_angle_beta                  108.714579
_cell_angle_gamma                 109.669031
_cell_volume                      5189.44678159

loop_
_atom_site_label
_atom_site_type_symbol
_atom_type_description
_atom_site_fract_x
_atom_site_fract_y
_atom_site_fract_z
_atom_type_partial_charge
C1    C     C_R   0.381067 0.382533 0.500041 0.776229
C2    C     C_R   0.327653 0.308346 0.573999 0.037866
C3    C     C_3   0.827379 0.515537 0.509911 -0.904183
C4    C     C_3   0.506334 0.824965 0.466735 -0.893516
C5    C     C_3   0.959533 0.761551 0.481144 -0.733147
C6    C     C_3   0.989843 0.669149 0.577637 -0.883671
C7    C     C_3   0.685505 0.514219 0.373775 -0.768161
C8    C     C_3   0.097717 0.529707 0.804182 -0.595348
C9    C     C_3   0.934854 0.424568 0.589113 -0.943167
C10   C     C_3   0.950073 0.024924 0.713714 -0.826498
C11   C     C_3   0.237574 0.738710 0.189716 -0.552284
C12   C     C_3   0.390930 0.928533 0.376190 -0.727696
C13   C     C_R   0.183135 0.185948 0.495671 -0.178706
C14   C     C_3   0.980193 0.666885 0.795243 -0.701654
C15   C     C_R   0.616611 0.497757 0.619496 0.817716
C16   C     C_R   0.173876 0.185688 0.414393 -0.005727
C17   C     C_R   0.235274 0.258565 0.420603 0.024855
C18   C     C_R   0.312597 0.316851 0.498998 -0.124476
C19   C     C_R   0.108939 0.117349 0.326976 0.168693
C20   C     C_R   0.107029 0.126270 0.252778 0.280388
C21   C     C_R   0.158991 0.205532 0.264630 -0.200127
C22   C     C_R   0.221240 0.270502 0.346874 -0.217340
C23   C     C_3   0.810832 0.505804 0.812602 -0.021626
C24   C     C_R   0.230368 0.484735 0.393062 -0.196224
C25   C     C_R   0.174419 0.502583 0.418187 -0.187517
C26   C     C_R   0.120430 0.524349 0.370858 0.203548
C27   C     C_R   0.616995 0.616911 0.496508 0.813794
C28   C     C_R   0.114576 0.516944 0.289879 0.222192
C29   C     C_R   0.176536 0.503480 0.265242 -0.020539
C30   C     C_R   0.239497 0.494792 0.323471 0.031940
C31   C     C_R   0.180407 0.499444 0.187322 -0.190369
C32   C     C_R   0.248318 0.492488 0.172951 0.060716
C33   C     C_R   0.317710 0.499599 0.239624 0.072778
C34   C     C_3   0.847162 0.583590 0.796013 0.078445
C35   C     C_R   0.311422 0.497338 0.312888 -0.163707
C36   C     C_R   0.249324 0.478984 0.093077 -0.153166
C37   C     C_R   0.320922 0.482832 0.084034 -0.137767
C38   C     C_R   0.393181 0.500218 0.153777 -0.143671
C39   C     C_R   0.381107 0.499959 0.380447 0.757765
C40   C     C_R   0.392022 0.508616 0.230907 -0.153699
C41   C     C_R   0.594708 0.751844 0.473328 -0.159222
C42   C     C_R   0.588771 0.824270 0.479397 0.233770
C43   C     C_R   0.660043 0.895231 0.497788 -0.141075
C44   C     C_R   0.735016 0.892336 0.506139 -0.204564
C45   C     C_3   0.738703 0.506858 0.837809 0.061138
C46   C     C_R   0.741447 0.817890 0.496451 0.074613
C47   C     C_R   0.671926 0.749288 0.486034 0.026594
C48   C     C_R   0.816010 0.811795 0.499742 -0.143588
C49   C     C_R   0.823065 0.738452 0.498493 -0.024971
C50   C     C_R   0.749922 0.669011 0.482359 -0.041589
C51   C     C_3   0.694604 0.417031 0.653174 -0.012356
C52   C     C_R   0.679246 0.678297 0.485777 -0.168223
C53   C     C_R   0.898749 0.728956 0.513498 0.119562
C54   C     C_R   0.904392 0.665954 0.536104 0.178452
C55   C     C_R   0.827546 0.593346 0.506364 0.160710
C56   C     C_R   0.410737 0.355400 0.646650 -0.217007
C57   C     C_R   0.750238 0.590853 0.462808 0.166812
C58   C     C_R   0.995590 0.383148 0.874967 0.828024
C59   C     C_R   0.878577 0.503658 0.880804 0.825920
C60   C     C_R   0.998962 0.618211 0.118905 0.859298
C61   C     C_R   0.115574 0.502280 0.119961 0.842102
C62   C     C_R   0.000246 0.881957 0.381800 0.787389
C63   C     C_3   0.768159 0.422068 0.726727 -0.462566
C64   C     C_R   0.118209 0.116757 0.496737 0.836824
C65   C     C_R   0.998435 0.117528 0.618398 0.799344
C66   C     C_R   0.882015 0.880382 0.499959 0.788192
C67   C     C_R   0.424467 0.352654 0.723644 -0.194310
C68   C     C_R   0.986314 0.384039 0.707057 0.209636
C69   C     C_R   0.964559 0.371221 0.621565 0.209629
C70   C     C_R   0.974123 0.310359 0.567106 -0.179001
C71   C     C_R   0.996238 0.257409 0.593247 -0.209279
C72   C     C_R   0.996907 0.254197 0.669349 0.031024
C73   C     C_R   0.995615 0.321031 0.730346 -0.005714
C74   C     C_R   0.999009 0.185922 0.684687 -0.165491
C75   C     C_3   0.772436 0.579255 0.723056 0.009991
C76   C     C_R   0.005587 0.186381 0.763994 0.060598
C77   C     C_R   0.019697 0.260468 0.830439 0.028631
C78   C     C_R   0.354617 0.311557 0.733710 0.241655
C79   C     C_R   0.004067 0.321468 0.810673 -0.169075
C80   C     C_R   0.999777 0.117080 0.781876 0.197377
C81   C     C_R   0.030720 0.131781 0.868080 -0.146522
C82   C     C_R   0.057809 0.209841 0.935233 -0.183080
C83   C     C_R   0.049263 0.272335 0.916548 -0.140614
C84   C     C_R   0.168234 0.774482 0.276341 0.166322
C85   C     C_R   0.241699 0.852111 0.346538 0.284707
C86   C     C_R   0.232089 0.919835 0.388764 -0.200729
C87   C     C_3   0.666597 0.504572 0.765230 -0.426725
C88   C     C_R   0.151472 0.909089 0.370984 -0.238154
C89   C     C_R   0.270461 0.267535 0.662370 0.187809
C90   C     C_R   0.077216 0.828315 0.313927 0.032173
C91   C     C_R   0.082250 0.760790 0.258416 -0.010433
C92   C     C_R   0.999352 0.815196 0.314579 -0.154546
C93   C     C_R   0.923264 0.736657 0.257893 0.064824
C94   C     C_R   0.922959 0.671135 0.194064 0.074866
C95   C     C_R   0.001883 0.683891 0.191472 -0.203953
C96   C     C_R   0.846641 0.722112 0.263971 -0.173109
C97   C     C_R   0.772343 0.644035 0.211005 -0.131050
C98   C     C_R   0.770285 0.580350 0.146823 -0.185428
C99   C     C_3   0.685551 0.498919 0.688748 0.024198
C100  C     C_R   0.258641 0.252783 0.577024 0.016387
C101  C     C_R   0.842437 0.594700 0.135361 -0.145070
C102  C     C_3   0.712669 0.575664 0.956479 -0.722296
C103  C     C_3   0.814894 0.725219 0.741788 -0.669905
C104  C     C_3   0.370576 0.318122 0.821652 -0.897970
C105  C     C_3   0.198339 0.255754 0.683909 -0.803440
C106  C     C_3   0.957433 0.009855 0.256538 -0.542296
C107  C     C_3   0.042999 0.063389 0.090638 -0.729322
C108  C     C_3   0.611280 0.332115 0.612640 -0.857166
C109  C     C_3   0.067757 0.552944 0.407013 -0.894450
C110  C     C_3   0.960264 0.461029 0.206320 -0.573166
Cu1   Cu    Cu3+1 0.500360 0.438220 0.438540 0.911534
Cu2   Cu    Cu3+1 0.499640 0.561780 0.561460 0.945615
Cu3   Cu    Cu3+1 0.935530 0.438290 0.997340 0.909952
Cu4   Cu    Cu3+1 0.059130 0.561800 0.997250 0.913764
Cu5   Cu    Cu3+1 0.937870 0.000030 0.437890 0.902138
Cu6   Cu    Cu3+1 0.062130 0.000000 0.562130 0.908814
H1    H     H_    0.712425 0.415512 0.600966 0.162290
H2    H     H_    0.195069 0.464548 0.036101 0.142823
H3    H     H_    0.006650 0.712792 0.864558 0.232223
H4    H     H_    0.954804 0.691621 0.752324 0.225789
H5    H     H_    0.320719 0.473570 0.023026 0.130324
H6    H     H_    0.450290 0.522690 0.283256 0.141018
H7    H     H_    0.743947 0.367031 0.738440 0.197062
H8    H     H_    0.537499 0.697041 0.456776 0.146446
H9    H     H_    0.657572 0.952905 0.504778 0.135136
H10   H     H_    0.787444 0.950235 0.521461 0.159542
H11   H     H_    0.080891 0.220326 0.001506 0.142984
H12   H     H_    0.816063 0.416376 0.706074 0.144486
H13   H     H_    0.966417 0.304816 0.504508 0.147231
H14   H     H_    0.876703 0.642689 0.858005 0.141819
H15   H     H_    0.010498 0.218345 0.550094 0.177132
H16   H     H_    0.030079 0.081004 0.882893 0.136764
H17   H     H_    0.067349 0.330617 0.970802 0.136103
H18   H     H_    0.711137 0.520426 0.103013 0.129344
H19   H     H_    0.287866 0.980639 0.439117 0.167498
H20   H     H_    0.148968 0.964662 0.407049 0.158790
H21   H     H_    0.783600 0.571070 0.665896 0.141486
H22   H     H_    0.842628 0.769794 0.310671 0.149022
H23   H     H_    0.715497 0.633746 0.218358 0.135312
H24   H     H_    0.829683 0.544490 0.077413 0.188275
H25   H     H_    0.155718 0.217021 0.210353 0.157858
H26   H     H_    0.658885 0.561212 0.790460 0.195200
H27   H     H_    0.604452 0.449629 0.742713 0.144625
H28   H     H_    0.709594 0.447627 0.841874 0.168460
H29   H     H_    0.803588 0.638015 0.927464 0.243605
H30   H     H_    0.657011 0.578023 0.914857 0.220761
H31   H     H_    0.745655 0.631672 0.021821 0.249881
H32   H     H_    0.688721 0.516450 0.961288 0.225913
H33   H     H_    0.767242 0.677856 0.813230 0.247283
H34   H     H_    0.788596 0.769658 0.747990 0.233146
H35   H     H_    0.809349 0.700475 0.675879 0.224654
H36   H     H_    0.465991 0.393517 0.643784 0.138455
H37   H     H_    0.883336 0.761077 0.792595 0.213302
H38   H     H_    0.440367 0.351164 0.868180 0.222789
H39   H     H_    0.342384 0.354366 0.850256 0.234500
H40   H     H_    0.341288 0.253466 0.814610 0.237248
H41   H     H_    0.191874 0.212356 0.712245 0.263293
H42   H     H_    0.212526 0.317914 0.732583 0.213701
H43   H     H_    0.137761 0.233160 0.627027 0.202446
H44   H     H_    0.064300 0.991042 0.297062 0.224190
H45   H     H_    0.919794 0.994914 0.289901 0.249004
H46   H     H_    0.929764 0.951643 0.194263 0.192742
H47   H     H_    0.489339 0.387773 0.777467 0.137966
H48   H     H_    0.948782 0.059683 0.242129 0.208530
H49   H     H_    0.052133 0.998628 0.162702 0.253585
H50   H     H_    0.993621 0.001640 0.031338 0.227842
H51   H     H_    0.104880 0.082788 0.089092 0.223922
H52   H     H_    0.021198 0.110610 0.089493 0.235798
H53   H     H_    0.555454 0.326028 0.561421 0.252109
H54   H     H_    0.621262 0.278285 0.581967 0.232342
H55   H     H_    0.594204 0.324446 0.662808 0.230673
H56   H     H_    0.095865 0.574728 0.478083 0.226079
H57   H     H_    0.066292 0.607374 0.397938 0.235965
H58   H     H_    0.261831 0.329167 0.351206 0.154672
H59   H     H_    0.001365 0.499765 0.375101 0.234440
H60   H     H_    0.057568 0.586010 0.259435 0.229516
H61   H     H_    0.922219 0.429520 0.134574 0.251984
H62   H     H_    0.927703 0.491442 0.234552 0.196075
H63   H     H_    0.959024 0.410002 0.223652 0.199305
H64   H     H_    0.868236 0.533495 0.577940 0.233374
H65   H     H_    0.762168 0.465760 0.488754 0.233906
H66   H     H_    0.852628 0.488818 0.468013 0.248128
H67   H     H_    0.512225 0.887461 0.475682 0.239347
H68   H     H_    0.454144 0.775170 0.399944 0.229293
H69   H     H_    0.449874 0.505844 0.147699 0.128336
H70   H     H_    0.488959 0.811784 0.514770 0.242505
H71   H     H_    0.930219 0.778337 0.432833 0.209552
H72   H     H_    0.022612 0.815163 0.536098 0.253152
H73   H     H_    0.970685 0.710716 0.445259 0.212991
H74   H     H_    0.996931 0.658019 0.634224 0.231259
H75   H     H_    0.993707 0.619792 0.529530 0.243752
H76   H     H_    0.045072 0.732079 0.602663 0.234229
H77   H     H_    0.638041 0.527288 0.334612 0.222606
H78   H     H_    0.719121 0.498330 0.336759 0.210285
H79   H     H_    0.651042 0.457880 0.379442 0.238364
H80   H     H_    0.268688 0.465906 0.431616 0.163682
H81   H     H_    0.966132 0.484510 0.753199 0.270030
H82   H     H_    0.112558 0.589336 0.857545 0.219392
H83   H     H_    0.106789 0.543066 0.752696 0.192886
H84   H     H_    0.143691 0.508847 0.830952 0.223540
H85   H     H_    0.920050 0.404826 0.520260 0.240498
H86   H     H_    0.874977 0.416207 0.592424 0.223199
H87   H     H_    0.984357 0.492663 0.628533 0.243722
H88   H     H_    0.907382 0.014702 0.650042 0.205754
H89   H     H_    0.994986 0.000292 0.709323 0.256673
H90   H     H_    0.906786 0.986824 0.731793 0.213716
H91   H     H_    0.174302 0.500557 0.476075 0.152282
H92   H     H_    0.197443 0.677009 0.257047 0.221321
H93   H     H_    0.203244 0.697689 0.118332 0.250404
H94   H     H_    0.297045 0.734822 0.217382 0.188808
H95   H     H_    0.255363 0.804405 0.200319 0.204867
H96   H     H_    0.331751 0.808085 0.368069 0.260148
H97   H     H_    0.417011 0.900647 0.335956 0.223238
H98   H     H_    0.444157 0.974013 0.443622 0.236263
H99   H     H_    0.364693 0.963788 0.348623 0.229041
H100  H     H_    0.890313 0.540297 0.708302 0.229934
H101  H     H_    0.033430 0.659599 0.786667 0.220629
N1    N     N_2   0.772170 0.579221 0.922010 -0.439466
N2    N     N_2   0.766743 0.657057 0.754192 -0.409432
N3    N     N_2   0.047596 0.038044 0.311100 -0.416058
N4    N     N_2   0.052009 0.053973 0.167292 -0.425659
N5    N     N_2   0.047556 0.524745 0.236149 -0.407027
N6    N     N_2   0.010117 0.465079 0.770265 -0.398463
N7    N     N_2   0.183322 0.711790 0.227634 -0.408048
N8    N     N_2   0.325995 0.861761 0.377391 -0.428347
N9    N     N_2   0.913392 0.584957 0.771216 -0.416819
O1    O     O_R   0.410140 0.357660 0.448100 -0.583973
O2    O     O_R   0.052970 0.909860 0.462770 -0.588019
O3    O     O_R   0.037700 0.090200 0.447550 -0.566106
O4    O     O_R   0.409530 0.462000 0.551910 -0.592048
O5    O     O_R   0.142640 0.090170 0.552470 -0.581861
O6    O     O_R   0.947030 0.090160 0.537260 -0.599033
O7    O     O_R   0.051970 0.090130 0.642170 -0.583721
O8    O     O_R   0.857360 0.909860 0.447560 -0.597294
O9    O     O_R   0.962300 0.909830 0.552480 -0.587028
O10   O     O_R   0.590960 0.447830 0.538760 -0.608019
O11   O     O_R   0.590350 0.552170 0.642570 -0.565029
O12   O     O_R   0.049980 0.462000 0.907580 -0.561879
O13   O     O_R   0.590470 0.538000 0.448090 -0.590149
O14   O     O_R   0.589860 0.642340 0.551900 -0.574480
O15   O     O_R   0.409650 0.447830 0.357430 -0.592963
O16   O     O_R   0.409040 0.552170 0.461240 -0.587797
O17   O     O_R   0.945600 0.357690 0.907660 -0.588565
O18   O     O_R   0.854480 0.447890 0.906670 -0.607650
O19   O     O_R   0.958860 0.552200 0.906600 -0.557430
O20   O     O_R   0.944670 0.538090 0.087010 -0.613653
O21   O     O_R   0.049050 0.642400 0.086940 -0.559482
O22   O     O_R   0.035800 0.447890 0.088000 -0.564977
O23   O     O_R   0.140170 0.552200 0.087920 -0.603173
O24   O     O_R   0.948030 0.909890 0.357850 -0.596082

loop_
_geom_bond_atom_site_label_1
_geom_bond_atom_site_label_2
_ccdc_geom_bond_type
C106  N3    S    
C60   O20   A    
C93   C94   A    
C23   C45   S    
C108  H54   S    
C2    C18   A    
C41   C42   A    
C31   C61   S    
Cu3   O20   S    
C8    H82   S    
C19   C20   A    
C12   H98   S    
C43   C44   A    
C43   H9    S    
C13   C16   A    
C81   C82   A    
C12   N8    S    
H49   N4    S    
Cu5   O24   S    
C105  H43   S    
C53   C54   A    
C61   O22   A    
C23   C59   S    
C44   H10   S    
C1    C18   S    
C37   C38   A    
C74   C76   A    
C30   C35   A    
Cu6   O2    S    
C104  H38   S    
C32   C36   A    
C41   H8    S    
C65   O7    A    
C36   C37   A    
C34   N9    S    
C10   H89   S    
C9    C69   S    
C14   N9    S    
C11   H94   S    
C96   H22   S    
C64   O3    A    
C58   O12   A    
C86   C88   A    
Cu4   O19   S    
C46   C48   A    
C110  H62   S    
C24   C30   A    
Cu5   Cu6   S    
Cu2   O4    S    
C17   C18   A    
H33   N2    S    
C106  H45   S    
C4    H70   S    
C87   H26   S    
C9    H87   S    
C103  H34   S    
C102  H32   S    
C46   C47   A    
C3    C55   S    
C1    O4    A    
C103  H37   S    
C105  H41   S    
H29   N1    S    
Cu4   O21   S    
C94   C101  A    
C51   C108  S    
Cu2   O14   S    
C62   C92   S    
C15   O10   A    
C45   H28   S    
C50   C52   A    
C20   N4    S    
C14   H101  S    
C70   C71   A    
C84   C91   A    
C106  H48   S    
C7    H77   S    
C36   H2    S    
C63   H12   S    
C62   O2    A    
C109  H56   S    
C103  H35   S    
C34   C75   S    
Cu4   O12   S    
C39   O16   A    
C11   H95   S    
Cu3   O18   S    
Cu2   O16   S    
C107  H52   S    
C107  H50   S    
C2    C100  A    
Cu1   O15   S    
C21   C22   A    
C45   N1    S    
C58   O17   A    
C67   C78   A    
C12   H97   S    
C6    C54   S    
C22   H58   S    
C101  H24   S    
C44   C46   A    
C27   O14   A    
C97   C98   A    
C87   C99   S    
C76   C77   A    
C77   C79   A    
C78   C89   A    
C51   C99   S    
C107  H51   S    
C21   H25   S    
C33   C40   A    
Cu5   O3    S    
C89   C100  A    
C27   O13   A    
Cu1   Cu2   S    
C9    H85   S    
C41   C47   A    
C51   C63   S    
C24   C25   A    
C88   H20   S    
C72   C73   A    
C72   C74   A    
C39   O15   A    
C84   N7    S    
C15   C99   S    
C10   C80   S    
C16   C17   A    
C81   H16   S    
Cu1   O1    S    
C110  H61   S    
Cu3   O17   S    
C68   C73   A    
C85   C86   A    
Cu4   O23   S    
C78   C104  S    
C82   C83   A    
C70   H13   S    
Cu1   O13   S    
C65   C74   S    
C59   O18   A    
C6    H75   S    
C35   C39   S    
C3    H64   S    
C29   C30   A    
C102  H31   S    
C6    H76   S    
C86   H19   S    
C90   C92   A    
C105  H42   S    
C75   N2    S    
C23   C34   S    
C96   C97   A    
C6    H74   S    
C75   C99   S    
Cu1   O10   S    
C73   C79   A    
C94   C95   A    
C59   O19   A    
Cu3   O22   S    
C84   C85   A    
C7    H78   S    
C3    H65   S    
C26   C109  S    
Cu5   O6    S    
C8    N6    S    
H60   N5    S    
C58   C79   S    
C60   O21   A    
C37   H5    S    
H96   N8    S    
C14   H3    S    
C28   N5    S    
C48   C49   A    
C66   O8    A    
Cu2   O11   S    
C93   C96   A    
C14   H4    S    
C55   C57   A    
Cu6   O5    S    
C75   H21   S    
C51   H1    S    
C8    H84   S    
C68   N6    S    
C85   N8    S    
C42   C43   A    
C5    H71   S    
C7    H79   S    
C56   C67   A    
C27   C52   S    
Cu3   Cu4   S    
C5    C53   S    
C98   H18   S    
C54   C55   A    
C28   C29   A    
C65   O6    A    
C45   C87   S    
C50   C57   A    
C68   C69   A    
C31   C32   A    
C76   C80   A    
C77   C83   A    
C88   C90   A    
C80   C81   A    
H81   N6    S    
C11   N7    S    
C64   O5    A    
C63   H7    S    
C109  H59   S    
C47   C52   A    
H92   N7    S    
C38   H69   S    
C40   H6    S    
C15   O11   A    
C26   C28   A    
C17   C22   A    
C12   H99   S    
C98   C101  A    
C66   O9    A    
C87   H27   S    
C32   C33   A    
C13   C100  A    
C25   C26   A    
C5    H73   S    
C71   C72   A    
C29   C31   A    
C25   H91   S    
C11   H93   S    
C38   C40   A    
C1    O1    A    
C90   C91   A    
H44   N3    S    
C13   C64   S    
C4    C42   S    
C110  H63   S    
C16   C19   A    
C49   C53   A    
Cu6   O9    S    
C23   C63   S    
C92   C93   A    
C33   C35   A    
C7    C57   S    
C3    H66   S    
C109  H57   S    
C106  H46   S    
C4    H67   S    
C10   H90   S    
C69   C70   A    
Cu6   O7    S    
H100  N9    S    
C82   H11   S    
C83   H17   S    
C9    H86   S    
C102  N1    S    
C91   C95   A    
C104  H40   S    
C60   C95   S    
C67   H47   S    
C104  H39   S    
C62   O24   A    
C20   C21   A    
C34   H14   S    
C71   H15   S    
C61   O23   A    
C49   C50   A    
C108  H55   S    
C89   C105  S    
C24   H80   S    
C8    H83   S    
C2    C56   A    
C19   N3    S    
C5    H72   S    
C48   C66   S    
C56   H36   S    
C108  H53   S    
C10   H88   S    
C97   H23   S    
Cu5   O8    S    
C102  H30   S    
C4    H68   S    
C103  N2    S    
C107  N4    S    
C110  N5    S    
