data_mof_unit_pretest_736.cif
_audit_creation_date              2012-12-10T18:05:57-0500
_audit_creation_method            fapswitch 2.2
_symmetry_space_group_name_H-M    P1
_symmetry_Int_Tables_number       1
_space_group_crystal_system       triclinic
_cell_length_a                    12.625608
_cell_length_b                    13.076771
_cell_length_c                    14.973222
_cell_angle_alpha                 90.50209
_cell_angle_beta                  104.405813
_cell_angle_gamma                 81.238963
_cell_volume                      2365.35011293

loop_
_atom_site_label
_atom_site_type_symbol
_atom_type_description
_atom_site_fract_x
_atom_site_fract_y
_atom_site_fract_z
_atom_type_partial_charge
C1    C     C_R   0.436832 0.692156 0.485907 0.849583
C2    C     C_R   0.538949 0.577505 0.822483 -0.278135
C3    C     C_R   0.510601 0.492221 0.770756 -0.191176
C4    C     C_R   0.503085 0.498111 0.673413 0.974573
C5    C     C_R   0.486090 0.404525 0.811065 0.397904
C6    C     C_R   0.703843 0.058306 0.443122 -0.179660
C7    C     C_R   0.601580 0.198388 0.507319 -0.034463
C8    C     C_R   0.300055 0.844520 0.510635 -0.038930
C9    C     C_R   0.306660 0.934066 0.564331 0.499011
C10   C     C_R   0.391369 0.991629 0.565097 -0.279199
C11   C     C_R   0.467465 0.965422 0.510324 0.000836
C12   C     C_R   0.462748 0.419356 0.085433 0.119963
C13   C     C_R   0.468677 0.870089 0.466429 0.050625
C14   C     C_R   0.544657 0.029597 0.500177 0.087963
C15   C     C_R   0.627451 0.994371 0.453005 0.119409
C16   C     C_R   0.562261 0.308432 0.508917 0.982098
C17   C     C_R   0.627908 0.899115 0.410835 -0.200438
C18   C     C_R   0.546514 0.839975 0.413907 -0.095004
C19   C     C_R   0.534695 0.131767 0.527726 -0.149125
C20   C     C_R   0.690558 0.160805 0.469923 -0.213766
C21   C     C_R   0.394763 0.804083 0.478519 -0.204337
C22   C     C_R   0.062159 0.395052 0.344277 -0.072646
C23   C     C_R   0.570824 0.666719 0.061024 0.362450
C24   C     C_R   0.797780 0.634223 0.604705 -0.012459
C25   C     C_R   0.902226 0.665367 0.627370 0.058625
C26   C     C_R   0.986795 0.610764 0.592370 -0.231636
C27   C     C_R   0.965171 0.528733 0.532272 0.027628
C28   C     C_R   0.497925 0.500671 0.326822 0.872628
C29   C     C_R   0.856692 0.501965 0.511141 0.231819
C30   C     C_R   0.042883 0.478281 0.485533 -0.015497
C31   C     C_R   0.003198 0.416178 0.410823 0.096909
C32   C     C_R   0.901438 0.382049 0.399753 -0.240167
C33   C     C_R   0.830004 0.423678 0.450356 -0.187830
C34   C     C_R   0.571489 0.663121 0.967872 -0.274692
C35   C     C_R   0.155538 0.491141 0.504872 -0.130455
C36   C     C_R   0.177298 0.395241 0.371779 0.533382
C37   C     C_R   0.463332 0.419708 0.177714 -0.156940
C38   C     C_R   0.494855 0.502573 0.230556 -0.089707
C39   C     C_R   0.530881 0.584471 0.193511 -0.192199
C40   C     C_R   0.534053 0.585304 0.100913 -0.019813
C41   C     C_R   0.499527 0.501182 0.046666 0.032775
C42   C     C_3   0.194950 0.794621 0.485237 -0.355122
C43   C     C_3   0.092544 0.869864 0.433469 -0.329562
C44   C     C_3   0.993367 0.813563 0.397598 -0.853667
C45   C     C_R   0.538757 0.579427 0.914964 0.064180
C46   C     C_3   0.998040 0.386500 0.243068 -0.347539
C47   C     C_3   0.913905 0.484905 0.207982 -0.373073
C48   C     C_3   0.850276 0.475552 0.107954 -0.791746
C49   C     C_3   0.921474 0.758338 0.686128 -0.411620
C50   C     C_3   0.856838 0.858263 0.633974 -0.364686
C51   C     C_3   0.875393 0.953000 0.692572 -0.724756
C52   C     C_R   0.503318 0.497493 0.954170 0.004683
C53   C     C_R   0.472625 0.411272 0.901246 -0.010190
C54   C     C_R   0.428176 0.335373 0.939792 -0.091011
C55   C     C_R   0.425359 0.338335 0.031590 -0.198992
H1    H     H_    0.442578 0.353955 0.208972 0.200760
H2    H     H_    0.731913 0.674473 0.632172 0.144805
H3    H     H_    0.066256 0.636987 0.608546 0.145692
H4    H     H_    0.751231 0.398610 0.435239 0.202936
H5    H     H_    0.598696 0.725276 0.936355 0.202090
H6    H     H_    0.560428 0.642726 0.790118 0.165457
H7    H     H_    0.392346 0.274799 0.899240 0.223141
H8    H     H_    0.392994 0.277595 0.060354 0.178479
H9    H     H_    0.743605 0.212165 0.454387 0.155033
H10   H     H_    0.011166 0.755068 0.346898 0.272127
H11   H     H_    0.973635 0.774288 0.455494 0.261721
H12   H     H_    0.688098 0.872448 0.371890 0.195331
H13   H     H_    0.919953 0.870147 0.363067 0.265259
H14   H     H_    0.068240 0.931184 0.478894 0.288336
H15   H     H_    0.111358 0.907300 0.374032 0.237625
H16   H     H_    0.202868 0.731941 0.436349 0.227369
H17   H     H_    0.180226 0.759363 0.547229 0.228539
H18   H     H_    0.241886 0.045731 0.771412 0.394876
H19   H     H_    0.401769 0.217946 0.302193 0.368181
H20   H     H_    0.908191 0.461392 0.062607 0.268650
H21   H     H_    0.801003 0.411187 0.102111 0.260139
H22   H     H_    0.792940 0.548629 0.084171 0.270304
H23   H     H_    0.768735 0.031320 0.408959 0.155589
H24   H     H_    0.852701 0.500390 0.250178 0.254030
H25   H     H_    0.958578 0.552549 0.212722 0.247188
H26   H     H_    0.051682 0.377590 0.194760 0.282347
H27   H     H_    0.956127 0.317076 0.235095 0.211693
H28   H     H_    0.847248 0.946075 0.756577 0.256009
H29   H     H_    0.964414 0.961226 0.711119 0.298563
H30   H     H_    0.827265 0.023628 0.652960 0.260243
H31   H     H_    0.883701 0.868031 0.569697 0.242574
H32   H     H_    0.766759 0.854016 0.614723 0.220872
H33   H     H_    0.894958 0.748306 0.750559 0.206176
H34   H     H_    0.467012 0.165115 0.555813 0.201029
H35   H     H_    0.011095 0.764713 0.706302 0.244382
H36   H     H_    0.452252 0.851765 0.116856 0.361442
H37   H     H_    0.518074 0.120520 0.788470 0.395910
H38   H     H_    0.396324 0.056518 0.610015 0.213609
H39   H     H_    0.545013 0.769740 0.375043 0.173514
H40   H     H_    0.873992 0.326162 0.348912 0.160634
H41   H     H_    0.556324 0.646363 0.238154 0.213506
H42   H     H_    0.191874 0.536010 0.561916 0.159490
N1    N     N_R   0.222190 0.444670 0.452360 -0.161065
N2    N     N_R   0.776970 0.554790 0.547140 -0.142159
O1    O     O_R   0.366740 0.627160 0.477250 -0.641119
O2    O     O_2   0.161993 0.889367 0.660927 -0.357101
O3    O     O_3   0.295983 0.014813 0.737074 -0.537655
O4    O     O_2   0.196968 0.238583 0.258156 -0.341699
O5    O     O_2   0.246917 0.401976 0.218253 -0.342375
O6    O     O_3   0.386319 0.277673 0.340671 -0.561056
O7    O     O_2   0.716581 0.733484 0.202620 -0.311161
O8    O     O_2   0.650739 0.848104 0.065404 -0.268876
O9    O     O_3   0.517208 0.834909 0.170167 -0.555365
O10   O     O_2   0.379902 0.279965 0.688175 -0.303554
O11   O     O_2   0.578011 0.276933 0.701045 -0.356703
O12   O     O_R   0.544830 0.662520 0.507680 -0.626591
O13   O     O_3   0.523857 0.181647 0.827946 -0.547144
O14   O     O_R   0.410940 0.482340 0.616930 -0.593333
O15   O     O_R   0.589030 0.517700 0.647360 -0.610545
O16   O     O_R   0.455170 0.337480 0.492320 -0.523522
O17   O     O_R   0.633260 0.372840 0.522750 -0.646004
O18   O     O_R   0.410970 0.482300 0.352640 -0.532345
O19   O     O_R   0.589060 0.517660 0.383070 -0.657350
O20   O     O_2   0.134025 0.064594 0.592708 -0.311212
S1    S     S_3+6 0.218989 0.974869 0.638311 -0.009014
S2    S     S_3+6 0.253878 0.328390 0.296724 0.009367
S3    S     S_3+6 0.617917 0.773044 0.125184 0.001439
S4    S     S_3+6 0.490592 0.284184 0.753715 -0.006258
Zn1   Zn    Zn3+2 0.381090 0.476390 0.479680 1.042946
Zn2   Zn    Zn3+2 0.618910 0.523610 0.520320 0.947002

loop_
_geom_bond_atom_site_label_1
_geom_bond_atom_site_label_2
_ccdc_geom_bond_type
C1    C21   S    
C27   C29   A    
C24   N2    A    
C48   H21   S    
C44   H11   S    
C49   H33   S    
C47   H24   S    
C49   H35   S    
C51   H30   S    
N2    Zn2   S    
C53   C54   A    
N1    Zn1   S    
C26   C27   A    
C37   C38   A    
C13   C18   A    
C4    O15   A    
O18   Zn1   S    
C8    C42   S    
C28   O18   A    
C30   C31   A    
C11   C14   A    
C6    H23   S    
C23   C40   A    
C29   C33   A    
C46   C47   S    
C12   C37   A    
C6    C15   A    
C46   H27   S    
C37   H1    S    
C47   C48   S    
C8    C9    A    
C55   H8    S    
O12   Zn2   S    
O19   Zn2   S    
C35   N1    A    
C9    C10   A    
C41   C52   A    
C2    H6    S    
C33   H4    S    
C27   C30   A    
C34   H5    S    
C48   H20   S    
C44   H10   S    
C47   H25   S    
C16   O17   A    
C1    O1    A    
C8    C21   A    
C23   S3    S    
C2    C45   A    
C17   H12   S    
C22   C31   A    
C29   N2    A    
O6    S2    S    
C4    O14   A    
C24   C25   A    
O13   S4    S    
C39   C40   A    
O15   Zn2   S    
C14   C19   A    
H37   O13   S    
O5    S2    D    
C54   H7    S    
C45   C52   A    
C50   C51   S    
C25   C26   A    
O1    Zn1   S    
C48   H22   S    
C20   H9    S    
C43   C44   S    
C12   C41   A    
C19   H34   S    
O11   S4    D    
C46   H26   S    
C31   C32   A    
C28   C38   S    
C23   C34   A    
O7    S3    D    
C42   H17   S    
C17   C18   A    
C13   C21   A    
C34   C45   A    
C26   H3    S    
C50   H32   S    
C30   C35   A    
C7    C16   S    
C22   C46   S    
C49   C50   S    
C43   H15   S    
C7    C19   A    
O17   Zn2   S    
C18   H39   S    
C44   H13   S    
C42   C43   S    
C3    C4    S    
O4    S2    D    
C16   O16   A    
C51   H28   S    
O3    S1    S    
C52   C53   A    
C24   H2    S    
C5    C53   A    
C15   C17   A    
C54   C55   A    
C40   C41   A    
O16   Zn1   S    
O2    S1    D    
H36   O9    S    
O10   S4    D    
O9    S3    S    
C3    C5    A    
O20   S1    D    
C22   C36   A    
C5    S4    S    
C10   H38   S    
C32   C33   A    
C2    C3    A    
C28   O19   A    
C1    O12   A    
H19   O6    S    
C11   C13   A    
C38   C39   A    
O14   Zn1   S    
C6    C20   A    
C42   H16   S    
C36   S2    S    
C25   C49   S    
C39   H41   S    
C12   C55   A    
C10   C11   A    
C50   H31   S    
C32   H40   S    
C43   H14   S    
C7    C20   A    
C9    S1    S    
C14   C15   A    
C36   N1    A    
O8    S3    D    
C35   H42   S    
C51   H29   S    
H18   O3    S    
