data_mof_unit_pretest_207.cif
_audit_creation_date              2012-12-10T17:58:58-0500
_audit_creation_method            fapswitch 2.2
_symmetry_space_group_name_H-M    P1
_symmetry_Int_Tables_number       1
_space_group_crystal_system       triclinic
_cell_length_a                    9.579804
_cell_length_b                    10.789574
_cell_length_c                    13.857527
_cell_angle_alpha                 90.762939
_cell_angle_beta                  83.946966
_cell_angle_gamma                 89.318341
_cell_volume                      1424.10234645

loop_
_atom_site_label
_atom_site_type_symbol
_atom_type_description
_atom_site_fract_x
_atom_site_fract_y
_atom_site_fract_z
_atom_type_partial_charge
C1    C     C_R   0.499527 0.737686 0.500070 0.787277
C2    C     C_R   0.500473 0.262314 0.499928 0.787284
C3    C     C_R   0.500700 0.128413 0.499835 -0.002120
C4    C     C_R   0.499303 0.871587 0.500159 -0.002084
C5    C     C_R   0.476409 0.500218 0.683062 0.824485
C6    C     C_R   0.523591 0.499782 0.316938 0.824480
C7    C     C_R   0.913559 0.575403 0.561743 -0.079889
C8    C     C_R   0.086440 0.424594 0.438260 -0.079899
C9    C     C_R   0.061374 0.576006 0.562416 0.090537
C10   C     C_R   0.938627 0.424007 0.437576 0.090526
C11   C     C_1   0.538766 0.499047 0.213386 -0.175710
C12   C     C_1   0.461233 0.500958 0.786614 -0.175786
C13   C     C_2   0.558358 0.496978 0.022270 -0.163775
C14   C     C_2   0.441638 0.503032 0.977730 -0.163770
C15   C     C_1   0.450821 0.501859 0.873770 -0.011639
C16   C     C_1   0.549176 0.498148 0.126230 -0.011631
C17   C     C_R   0.605335 0.935250 0.541560 -0.192757
C18   C     C_R   0.394669 0.064750 0.458433 -0.192813
C19   C     C_R   0.605603 0.063550 0.541797 -0.198198
C20   C     C_R   0.394402 0.936450 0.458194 -0.198136
Cu1   Cu    Cu3+1 0.359340 0.499980 0.500000 0.945561
Cu2   Cu    Cu3+1 0.640660 0.500020 0.500000 0.945565
H1    H     H_    0.847812 0.635837 0.610866 0.134027
H2    H     H_    0.152187 0.364170 0.389129 0.134026
H3    H     H_    0.338793 0.509004 0.019034 0.149642
H4    H     H_    0.661203 0.491005 0.980966 0.149638
H5    H     H_    0.686671 0.885915 0.574749 0.141769
H6    H     H_    0.313332 0.114085 0.425245 0.141767
H7    H     H_    0.686282 0.111963 0.575824 0.139244
H8    H     H_    0.313723 0.888036 0.424169 0.139250
N1    N     N_R   0.147930 0.499970 0.499980 -0.176951
N2    N     N_R   0.852070 0.500030 0.500020 -0.176951
O1    O     O_R   0.381260 0.680340 0.500000 -0.576329
O2    O     O_R   0.618740 0.319660 0.500000 -0.576367
O3    O     O_R   0.618830 0.680370 0.500010 -0.590974
O4    O     O_R   0.381170 0.319630 0.499990 -0.590960
O5    O     O_R   0.364420 0.499960 0.637840 -0.568695
O6    O     O_R   0.635580 0.500040 0.362160 -0.568649
O7    O     O_R   0.601990 0.499990 0.637850 -0.580114
O8    O     O_R   0.398010 0.500010 0.362150 -0.580135
C21   C     C_R   0.116249 0.662288 0.631961 0.149776
C22   C     C_R   0.126860 0.625744 0.727822 -0.130190
C23   C     C_R   0.168909 0.710585 0.795906 -0.150183
C24   C     C_R   0.195970 0.833270 0.769570 -0.123257
C25   C     C_R   0.178345 0.871819 0.675691 -0.142484
C26   C     C_R   0.136133 0.787134 0.607586 -0.139331
H9    H     H_    0.104001 0.531385 0.749405 0.123641
H10   H     H_    0.179823 0.681357 0.869178 0.131782
H11   H     H_    0.228489 0.898865 0.822296 0.128564
H12   H     H_    0.196302 0.967469 0.655903 0.141602
H13   H     H_    0.118980 0.818527 0.535861 0.114706
C27   C     C_R   0.883760 0.337834 0.367953 0.149756
C28   C     C_R   0.873296 0.374496 0.272102 -0.130234
C29   C     C_R   0.831254 0.289766 0.203936 -0.150090
C30   C     C_R   0.804031 0.167077 0.230187 -0.123286
C31   C     C_R   0.821499 0.128411 0.324062 -0.142581
C32   C     C_R   0.863727 0.212980 0.392244 -0.139209
H14   H     H_    0.896266 0.468863 0.250591 0.123596
H15   H     H_    0.820464 0.319086 0.130668 0.131751
H16   H     H_    0.771507 0.101571 0.177399 0.128567
H17   H     H_    0.803412 0.032756 0.343786 0.141609
H18   H     H_    0.880771 0.181492 0.463965 0.114745

loop_
_geom_bond_atom_site_label_1
_geom_bond_atom_site_label_2
_ccdc_geom_bond_type
C24   H11   S    
C23   C24   A    
C6    O6    A    
C3    C19   A    
C22   C23   A    
C5    O5    A    
C21   C22   A    
C17   H5    S    
C9    C21   S    
C29   H15   S    
C12   C15   T    
C19   H7    S    
C28   H14   S    
C1    C4    S    
C10   C27   S    
C2    O2    A    
C30   C31   A    
C2    C3    S    
C1    O1    A    
C32   H18   S    
C31   H17   S    
Cu1   O4    S    
C20   H8    S    
C30   H16   S    
C31   C32   A    
Cu2   O3    S    
Cu1   N1    S    
C21   C26   A    
Cu2   N2    S    
C25   H12   S    
C3    C18   A    
C10   N2    A    
C7    H1    S    
Cu2   O7    S    
Cu1   Cu2   S    
Cu1   O5    S    
C17   C19   A    
C18   C20   A    
C22   H9    S    
C5    O7    A    
C14   H3    S    
Cu2   O2    S    
C6    O8    A    
C13   H4    S    
C11   C16   T    
Cu1   O1    S    
C27   C32   A    
C4    C17   A    
C4    C20   A    
C25   C26   A    
C18   H6    S    
C24   C25   A    
C1    O3    A    
C5    C12   S    
C8    C10   A    
C23   H10   S    
C13   C16   S    
C2    O4    A    
C6    C11   S    
C7    C9    A    
C9    N1    A    
C29   C30   A    
C7    N2    A    
C13   C14   D    
C8    H2    S    
C14   C15   S    
C8    N1    A    
C26   H13   S    
C28   C29   A    
C27   C28   A    
Cu2   O6    S    
Cu1   O8    S    
