data_mof_unit_pretest_455.cif
_audit_creation_date              2012-12-11T14:56:48-0500
_audit_creation_method            fapswitch 2.2
_symmetry_space_group_name_H-M    P1
_symmetry_Int_Tables_number       1
_space_group_crystal_system       triclinic
_cell_length_a                    10.544419
_cell_length_b                    10.649942
_cell_length_c                    17.119756
_cell_angle_alpha                 80.738957
_cell_angle_beta                  89.747837
_cell_angle_gamma                 119.033951
_cell_volume                      1651.39785656

loop_
_atom_site_label
_atom_site_type_symbol
_atom_type_description
_atom_site_fract_x
_atom_site_fract_y
_atom_site_fract_z
_atom_type_partial_charge
C1    C     C_R   0.223001 0.854773 0.128783 0.556836
C2    C     C_1   0.650198 0.343071 0.707216 -0.032789
C3    C     C_R   0.642973 0.717175 0.804244 0.076708
C4    C     C_R   0.637313 0.282140 0.085340 0.552105
C5    C     C_R   0.632758 0.700387 0.725759 -0.117312
C6    C     C_R   0.671071 0.821571 0.665154 0.019892
C7    C     C_R   0.729695 0.961713 0.682016 -0.156941
C8    C     C_R   0.737397 0.978871 0.760517 -0.165233
C9    C     C_R   0.688097 0.855700 0.821723 0.073113
C10   C     C_R   0.280649 0.001308 0.752992 -0.122382
C11   C     C_R   0.231885 0.981008 0.678919 0.013825
C12   C     C_R   0.813409 0.466759 0.250728 -0.146539
C13   C     C_R   0.180878 0.840796 0.656758 0.001161
C14   C     C_R   0.191744 0.730894 0.708320 -0.148668
C15   C     C_R   0.235872 0.752552 0.783744 -0.127440
C16   C     C_R   0.640510 0.858592 0.125366 0.556096
C17   C     C_R   0.270962 0.885201 0.807451 -0.003487
C18   C     C_R   0.686551 0.809429 0.357203 0.541099
C19   C     C_R   0.721108 0.449838 0.383507 0.533464
C20   C     C_R   0.104374 0.810188 0.359355 0.545804
C21   C     C_R   0.677712 0.800473 0.585211 0.537391
C22   C     C_R   0.678429 0.381816 0.624289 0.581634
C23   C     C_R   0.795927 0.436822 0.174795 -0.126571
C24   C     C_R   0.101408 0.805281 0.586080 0.537285
C25   C     C_R   0.292076 0.904638 0.889260 0.560977
C26   C     C_R   0.636353 0.282248 0.860507 0.525567
C27   C     C_R   0.646635 0.867183 0.899231 0.570622
C28   C     C_R   0.533267 0.305602 0.205855 -0.099210
C29   C     C_R   0.548868 0.329193 0.283497 -0.000836
C30   C     C_R   0.691811 0.410689 0.305917 -0.003357
C31   C     C_2   0.219640 0.104981 0.633310 0.238167
C32   C     C_2   0.415508 0.254268 0.340327 0.257927
C33   C     C_R   0.656030 0.351735 0.153330 0.003903
C34   C     C_1   0.669019 0.848899 0.205437 -0.019002
C35   C     C_1   0.680072 0.838721 0.274890 -0.021475
C36   C     C_1   0.181387 0.826559 0.211275 -0.043269
C37   C     C_1   0.152165 0.819799 0.279979 -0.034805
C38   C     C_1   0.642594 0.320465 0.777737 -0.069917
Cr1   Cr    Cr6+3 0.402240 0.783890 0.019450 1.044325
Cr2   Cr    Cr6+3 0.382360 0.097900 0.991800 1.027877
Cr3   Cr    Cr6+3 0.715380 0.118170 0.988700 1.032481
Cr4   Cr    Cr6+3 0.936650 0.882420 0.465510 1.060286
Cr5   Cr    Cr6+3 0.605770 0.565620 0.493360 1.083335
Cr6   Cr    Cr6+3 0.921340 0.550490 0.496380 1.032654
H1    H     H_    0.425139 0.236956 0.189217 0.178922
H2    H     H_    0.114608 0.091459 0.617902 0.142566
H3    H     H_    0.419985 0.216343 0.402405 0.147205
H4    H     H_    0.678192 0.556487 0.858716 0.228652
H5    H     H_    0.500262 0.511162 0.859923 0.240314
H6    H     H_    0.156385 0.624978 0.692649 0.143456
H7    H     H_    0.234355 0.662889 0.824666 0.149753
H8    H     H_    0.922563 0.530593 0.267275 0.133096
H9    H     H_    0.891575 0.473402 0.134330 0.145924
H10   H     H_    0.597283 0.592941 0.712151 0.138562
H11   H     H_    0.766294 0.056304 0.634823 0.137041
H12   H     H_    0.772199 0.086726 0.773273 0.148180
H13   H     H_    0.313945 0.105332 0.771054 0.153024
N1    N     N_3   0.604829 0.593891 0.866391 -0.598500
O1    O     O_R   0.521780 0.757110 0.108900 -0.497457
O2    O     O_R   0.805020 0.410040 0.421340 -0.504389
O3    O     O_R   0.049240 0.685450 0.403290 -0.517705
O4    O     O_R   0.275160 0.783810 0.101120 -0.490675
O5    O     O_R   0.077520 0.903010 0.551800 -0.533644
O6    O     O_R   0.802980 0.872780 0.546830 -0.506280
O7    O     O_R   0.578090 0.681300 0.569920 -0.506926
O8    O     O_R   0.608530 0.436370 0.586530 -0.441919
O9    O     O_R   0.798770 0.401880 0.597100 -0.523449
O10   O     O_R   0.043450 0.677890 0.566230 -0.498294
O11   O     O_3   0.821250 0.666180 0.485090 -0.289831
O12   O     O_R   0.513330 0.228330 0.898660 -0.522451
O13   O     O_R   0.237900 0.972600 0.090980 -0.500595
O14   O     O_R   0.511190 0.220540 0.061620 -0.505007
O15   O     O_R   0.736920 0.257720 0.063840 -0.506567
O16   O     O_R   0.710450 0.984050 0.081720 -0.490880
O17   O     O_R   0.524090 0.765520 0.933110 -0.493981
O18   O     O_R   0.277300 0.791600 0.938160 -0.503657
O19   O     O_R   0.240210 0.981010 0.915190 -0.508724
O20   O     O_2   0.326305 0.226293 0.616657 -0.509002
O21   O     O_2   0.297674 0.231176 0.317764 -0.488592
O22   O     O_R   0.739230 0.266130 0.888050 -0.509010
O23   O     O_R   0.712580 0.991850 0.918770 -0.519654
O24   O     O_3   0.499990 0.999980 0.999980 -0.286189
O25   O     O_R   0.083770 0.911170 0.376030 -0.459976
O26   O     O_R   0.808770 0.880340 0.383890 -0.489105
O27   O     O_R   0.584340 0.689460 0.394160 -0.504545
O28   O     O_R   0.614320 0.443940 0.423590 -0.504989

loop_
_geom_bond_atom_site_label_1
_geom_bond_atom_site_label_2
_ccdc_geom_bond_type
Cr2   O13   S    
C7    H11   S    
C19   O28   A    
C1    O4    A    
C8    H12   S    
Cr3   O22   S    
C7    C8    A    
C12   C23   A    
C1    O13   A    
Cr2   O12   S    
C16   O16   A    
C36   C37   T    
C29   C32   S    
C5    C6    A    
C10   C17   A    
C34   C35   T    
C20   O3    A    
C22   O8    A    
C21   O6    A    
C16   C34   S    
Cr3   O16   S    
C8    C9    A    
C23   C33   A    
C31   H2    S    
C2    C22   S    
C18   O26   A    
Cr1   O17   S    
C18   C35   S    
C12   C30   A    
Cr1   O1    S    
Cr5   O11   S    
C13   C14   A    
C27   O17   A    
C12   H8    S    
C23   H9    S    
C28   H1    S    
C18   O27   A    
Cr6   O9    S    
Cr5   O27   S    
Cr2   O24   S    
C5    H10   S    
C27   O23   A    
C10   H13   S    
Cr4   O26   S    
C26   C38   S    
C6    C21   S    
Cr3   O15   S    
Cr4   O11   S    
C26   O22   A    
H5    N1    S    
C13   C24   S    
C16   O1    A    
C29   C30   A    
C3    C9    A    
C2    C38   T    
Cr5   O7    S    
Cr3   O23   S    
Cr6   O11   S    
Cr1   O18   S    
C4    O15   A    
C28   C33   A    
C24   O5    A    
C15   H7    S    
C26   O12   A    
C32   H3    S    
C25   O19   A    
Cr6   O10   S    
Cr4   O6    S    
C4    O14   A    
C9    C27   S    
C31   O20   D    
C15   C17   A    
Cr1   O4    S    
C4    C33   S    
C28   C29   A    
Cr2   O14   S    
C21   O7    A    
C14   C15   A    
Cr5   O28   S    
Cr4   O25   S    
Cr1   O24   S    
C3    C5    A    
H4    N1    S    
C6    C7    A    
Cr6   O3    S    
C25   O18   A    
C17   C25   S    
C32   O21   D    
C20   C37   S    
C11   C13   A    
C14   H6    S    
Cr6   O2    S    
Cr5   O8    S    
Cr3   O24   S    
C22   O9    A    
C10   C11   A    
C24   O10   A    
C11   C31   S    
C3    N1    S    
C20   O25   A    
Cr2   O19   S    
C19   O2    A    
C19   C30   S    
Cr4   O5    S    
C1    C36   S    
