data_mof_unit_pretest_74.cif
_audit_creation_date              2013-03-05T15:47:08-0500
_audit_creation_method            fapswitch 2.2
_symmetry_space_group_name_H-M    P1
_symmetry_Int_Tables_number       1
_space_group_crystal_system       triclinic
_cell_length_a                    10.320482
_cell_length_b                    10.70099
_cell_length_c                    13.793419
_cell_angle_alpha                 96.595155
_cell_angle_beta                  100.137946
_cell_angle_gamma                 94.627725
_cell_volume                      1481.67842692

loop_
_atom_site_label
_atom_site_type_symbol
_atom_site_description
_atom_site_fract_x
_atom_site_fract_y
_atom_site_fract_z
_atom_type_partial_charge
O1    O     O_R   0.935190 0.693030 0.507870 -0.615049
O2    O     O_R   0.064810 0.306970 0.492130 -0.614377
O3    O     O_R   0.142080 0.658430 0.482770 -0.596354
O4    O     O_R   0.857920 0.341570 0.517230 -0.594565
C1    C     C_R   0.046777 0.732260 0.487049 0.928079
C2    C     C_R   0.948077 0.266107 0.503123 0.931833
O5    O     O_R   0.969700 0.527180 0.651960 -0.599235
O6    O     O_R   0.030300 0.472820 0.348040 -0.601161
O7    O     O_R   0.176600 0.492580 0.626860 -0.627865
O8    O     O_R   0.823400 0.507420 0.373140 -0.632021
C3    C     C_R   0.093730 0.516775 0.685937 0.873866
C4    C     C_R   0.906338 0.483443 0.313957 0.850258
Zn1   Zn    Zn3+2 0.861850 0.523100 0.516760 0.920318
Zn2   Zn    Zn3+2 0.138150 0.476900 0.483240 0.921356
C5    C     C_R   0.146643 0.536881 0.793571 -0.099445
C6    C     C_R   0.853738 0.463662 0.206110 -0.098723
C7    C     C_R   0.148047 0.620078 0.964922 -0.185339
C8    C     C_R   0.856243 0.385844 0.034244 -0.184206
C9    C     C_R   0.084733 0.602440 0.865074 0.186706
C10   C     C_R   0.919597 0.404972 0.134005 0.195372
C11   C     C_R   0.270754 0.495536 0.823760 -0.304351
C12   C     C_R   0.727094 0.499631 0.175965 -0.315593
C13   C     C_R   0.341800 0.527722 0.920307 0.091586
C14   C     C_R   0.657662 0.468227 0.078761 0.094276
C15   C     C_R   0.274006 0.580697 0.992780 0.075834
C16   C     C_R   0.727823 0.419363 0.006387 0.075659
C17   C     C_R   0.474189 0.498024 0.948069 0.008888
C18   C     C_R   0.524625 0.495815 0.050472 0.011194
C19   C     C_R   0.440177 0.522560 0.120403 0.193953
C20   C     C_R   0.558776 0.471963 0.878001 0.190758
C21   C     C_R   0.325973 0.580823 0.092606 -0.239718
C22   C     C_R   0.675738 0.418221 0.906499 -0.238324
H1    H     H_    0.268100 0.610222 0.148054 0.152297
H2    H     H_    0.735353 0.391869 0.851428 0.151030
H3    H     H_    0.685170 0.558064 0.228716 0.190419
H4    H     H_    0.309395 0.432877 0.771649 0.185391
H5    H     H_    0.098198 0.662620 0.021435 0.142910
H6    H     H_    0.908397 0.347664 0.977604 0.142488
C23   C     C_2   0.057361 0.864184 0.465325 -0.011203
C24   C     C_2   0.921959 0.128961 0.498286 0.015095
C25   C     C_2   0.947699 0.914842 0.421083 0.230912
C26   C     C_2   0.948875 0.052552 0.419677 0.218722
N1    N     N_2   0.322180 0.446120 0.460900 -0.220883
N2    N     N_2   0.677820 0.553880 0.539100 -0.221721
C27   C     C_2   0.430868 0.521966 0.496836 -0.034438
C28   C     C_2   0.569425 0.478466 0.501279 -0.038790
H7    H     H_    0.669638 0.642374 0.573396 0.188770
H8    H     H_    0.331028 0.356048 0.429881 0.180012
C29   C     C_3   0.057255 0.366796 0.159673 -0.891649
H9    H     H_    0.059596 0.295330 0.211828 0.250962
H10   H     H_    0.093393 0.325343 0.093037 0.235198
H11   H     H_    0.125557 0.451498 0.193977 0.248707
C30   C     C_3   0.952269 0.651655 0.838272 -0.879590
H12   H     H_    0.956774 0.719142 0.783231 0.246609
H13   H     H_    0.876307 0.571361 0.807096 0.247917
H14   H     H_    0.921118 0.701933 0.904044 0.231742
C31   C     C_3   0.447932 0.461525 0.213803 -0.946340
H15   H     H_    0.494562 0.372696 0.203451 0.246392
H16   H     H_    0.499567 0.527178 0.279721 0.234603
H17   H     H_    0.348102 0.432197 0.227666 0.247277
C32   C     C_3   0.548236 0.530663 0.783417 -0.935879
H18   H     H_    0.490923 0.465823 0.719138 0.233313
H19   H     H_    0.506174 0.621820 0.795159 0.247263
H20   H     H_    0.646976 0.554928 0.765203 0.243043
C33   C     C_3   0.977008 0.102688 0.326572 -0.945303
H21   H     H_    0.978185 0.023978 0.266838 0.247673
H22   H     H_    0.899162 0.162602 0.298794 0.227138
H23   H     H_    0.075603 0.158097 0.341886 0.255044
C34   C     C_3   0.822528 0.835490 0.366106 -0.913890
H24   H     H_    0.756452 0.893483 0.321623 0.234872
H25   H     H_    0.847525 0.758072 0.314047 0.230237
H26   H     H_    0.765518 0.796034 0.418455 0.259962
C35   C     C_3   0.887849 0.077801 0.589100 -0.963785
H27   H     H_    0.865818 0.154612 0.643273 0.242440
H28   H     H_    0.800223 0.007511 0.568119 0.258732
H29   H     H_    0.972161 0.031806 0.626214 0.248222
C36   C     C_3   0.188156 0.943226 0.496406 -0.981760
H30   H     H_    0.264976 0.887008 0.529866 0.277029
H31   H     H_    0.218338 0.977807 0.430020 0.261328
H32   H     H_    0.181212 0.024887 0.551980 0.253615
C37   C     C_R   0.576578 0.342757 0.471235 0.227702
C38   C     C_R   0.522214 0.256665 0.525986 -0.191550
C39   C     C_R   0.479262 0.133392 0.482318 -0.175086
C40   C     C_R   0.500147 0.091176 0.387126 -0.119656
C41   C     C_R   0.566913 0.172629 0.336426 -0.186536
C42   C     C_R   0.602786 0.298527 0.377707 -0.123932
H33   H     H_    0.498920 0.288461 0.597705 0.128364
H34   H     H_    0.425874 0.072770 0.521841 0.170185
H35   H     H_    0.464621 0.995657 0.352703 0.137206
H36   H     H_    0.584576 0.140258 0.263064 0.137352
H37   H     H_    0.642943 0.361699 0.333645 0.162982
C43   C     C_R   0.425511 0.658084 0.527103 0.236771
C44   C     C_R   0.406139 0.701124 0.622860 -0.141621
C45   C     C_R   0.459497 0.821632 0.669546 -0.206085
C46   C     C_R   0.534109 0.899303 0.620930 -0.126646
C47   C     C_R   0.546042 0.859971 0.523035 -0.200521
C48   C     C_R   0.486173 0.742975 0.474369 -0.209418
H38   H     H_    0.359109 0.639345 0.664684 0.170306
H39   H     H_    0.448087 0.852239 0.744860 0.146412
H40   H     H_    0.581374 0.990236 0.658473 0.145158
H41   H     H_    0.605511 0.917803 0.485333 0.160782
H42   H     H_    0.504348 0.711911 0.400894 0.132091

loop_
_geom_bond_atom_site_label_1
_geom_bond_atom_site_label_2
_geom_bond_distance
_ccdc_geom_bond_type
C15   C21   1.386767 A    
C16   C22   1.386273 A    
C44   C45   1.396674 A    
C32   H20   1.109697 S    
C35   H27   1.111095 S    
C30   H13   1.107044 S    
C46   C47   1.397126 A    
C8    C16   1.400692 A    
C33   H21   1.110949 S    
C37   C38   1.399796 A    
C23   C25   1.370775 D    
C11   H4    1.076389 S    
C41   C42   1.394785 A    
C5    C9    1.417165 A    
C12   H3    1.075914 S    
O1    C1    1.284943 A    
C23   C36   1.500031 S    
C18   C19   1.429941 A    
C14   C16   1.410668 A    
C42   H37   1.065806 S    
C36   H32   1.109930 S    
C38   H33   1.082488 S    
C24   C35   1.508115 S    
C34   H25   1.109768 S    
C25   C26   1.475090 S    
O4    Zn1   1.940479 S    
C32   H19   1.105896 S    
C27   C43   1.476635 S    
C3    C5    1.473410 S    
C4    C6    1.475547 S    
C29   H10   1.111036 S    
C26   C33   1.511886 S    
O6    Zn2   1.990297 S    
C21   H1    1.084667 S    
C13   C17   1.424172 A    
N1    H8    1.026479 S    
C8    C10   1.399958 A    
C37   C42   1.401675 A    
N2    H7    1.025544 S    
O6    C4    1.301793 A    
C9    C30   1.505320 S    
C24   C26   1.363982 D    
C39   H34   1.072809 S    
C47   H41   1.074772 S    
C17   C20   1.431192 A    
C35   H28   1.102469 S    
O2    C2    1.288460 A    
N2    C28   1.314170 D    
C43   C48   1.402346 A    
C36   H31   1.109998 S    
C40   C41   1.391521 A    
O4    C2    1.305609 A    
C46   H40   1.082459 S    
C31   H17   1.107935 S    
C33   H22   1.111089 S    
C36   H30   1.102462 S    
C22   H2    1.085547 S    
C34   H26   1.106947 S    
O5    C3    1.301676 A    
O7    Zn2   1.935509 S    
C10   C29   1.503473 S    
C28   C37   1.475122 S    
O7    C3    1.301968 A    
C39   C40   1.397736 A    
C5    C11   1.398506 A    
C6    C10   1.417389 A    
C33   H23   1.108959 S    
C47   C48   1.391379 A    
C45   C46   1.392839 A    
C7    H5    1.084901 S    
N1    C27   1.314395 D    
O3    Zn2   1.940479 S    
O8    C4    1.303158 A    
C19   C31   1.502707 S    
C38   C39   1.388727 A    
C11   C13   1.392792 A    
C35   H29   1.109790 S    
C12   C14   1.394104 A    
O1    Zn1   1.938142 S    
C40   H35   1.082321 S    
C25   C34   1.514966 S    
C30   H14   1.111014 S    
C6    C12   1.398561 A    
C14   C18   1.424013 A    
C29   H11   1.106035 S    
O3    C1    1.315375 A    
O8    Zn1   1.935507 S    
C41   H36   1.082499 S    
C30   H12   1.110420 S    
C7    C15   1.401743 A    
C1    C23   1.475963 S    
C8    H6    1.084988 S    
C19   C21   1.392594 A    
C20   C22   1.392570 A    
C31   H15   1.105622 S    
C45   H39   1.082342 S    
C44   H38   1.067636 S    
C43   C44   1.401695 A    
C7    C9    1.401057 A    
C2    C24   1.462290 S    
C13   C15   1.410762 A    
C32   H18   1.106908 S    
O2    Zn2   1.938142 S    
C34   H24   1.111339 S    
C31   H16   1.107498 S    
C27   C28   1.532436 S    
O5    Zn1   1.990297 S    
C29   H9    1.107335 S    
C20   C32   1.502596 S    
C17   C18   1.420369 A    
C48   H42   1.082774 S    
Zn1   N2    2.023453 S    
Zn2   N1    2.023452 S    
