data_mof_unit_pretest_1813.cif
_audit_creation_date              2012-12-10T16:44:52-0500
_audit_creation_method            fapswitch 2.2
_symmetry_space_group_name_H-M    P1
_symmetry_Int_Tables_number       1
_space_group_crystal_system       triclinic
_cell_length_a                    18.427312
_cell_length_b                    18.497062
_cell_length_c                    18.454938
_cell_angle_alpha                 119.852629
_cell_angle_beta                  119.698893
_cell_angle_gamma                 90.409368
_cell_volume                      4462.12571922

loop_
_atom_site_label
_atom_site_type_symbol
_atom_type_description
_atom_site_fract_x
_atom_site_fract_y
_atom_site_fract_z
_atom_type_partial_charge
C1    C     C_R   0.138963 0.361669 0.000203 0.536246
C2    C     C_R   0.907627 0.297773 0.258416 -0.116207
C3    C     C_R   0.960917 0.351427 0.258588 -0.117922
C4    C     C_R   0.861954 0.639028 0.000705 0.519044
C5    C     C_R   0.927318 0.353915 0.173913 -0.090582
C6    C     C_2   0.731723 0.786641 0.948301 0.214363
C7    C     C_2   0.690848 0.802355 0.995850 -0.024359
C8    C     C_2   0.780618 0.723057 0.942490 -0.162639
C9    C     C_2   0.811581 0.699212 0.007078 -0.123880
C10   C     C_2   0.723821 0.280842 0.443817 -0.158448
C11   C     C_2   0.691180 0.192243 0.387702 -0.093210
C12   C     C_R   0.572689 0.146048 0.826117 -0.088481
C13   C     C_2   0.777530 0.337043 0.556185 -0.157543
C14   C     C_2   0.808917 0.304542 0.612290 -0.093601
C15   C     C_2   0.338106 0.280555 0.057838 -0.161861
C16   C     C_R   0.138551 0.637156 0.277015 0.497708
C17   C     C_2   0.304545 0.192118 0.992972 -0.124408
C18   C     C_2   0.283435 0.338389 0.052167 0.213962
C19   C     C_2   0.194946 0.306491 0.004192 -0.024564
C20   C     C_2   0.217998 0.775316 0.937602 -0.157935
C21   C     C_2   0.306035 0.810919 0.006247 -0.088151
C22   C     C_2   0.162135 0.723530 0.941812 -0.157936
C23   C     C_R   0.661447 0.197005 0.912973 0.012719
C24   C     C_2   0.195578 0.689027 0.995272 -0.086549
C25   C     C_2   0.222414 0.767231 0.555993 -0.095405
C26   C     C_2   0.306890 0.819325 0.612220 0.251815
C27   C     C_2   0.163713 0.718614 0.444342 -0.127950
C28   C     C_R   0.861810 0.361436 0.723008 0.509982
C29   C     C_2   0.195065 0.684643 0.387171 -0.051712
C30   C     C_R   0.638259 0.138381 0.276987 0.509912
C31   C     C_R   0.361552 0.863233 0.722823 0.494416
C32   C     C_R   0.638859 0.861494 0.999863 0.537576
C33   C     C_R   0.361284 0.138278 0.999263 0.518742
C34   C     C_R   0.715724 0.251606 0.913121 0.012466
C35   C     C_R   0.360377 0.861015 0.000619 0.515320
C36   C     C_R   0.639935 0.139775 0.999943 0.481332
C37   C     C_R   0.139689 0.638919 0.999376 0.517279
C38   C     C_R   0.860100 0.360177 0.000058 0.481244
C39   C     C_R   0.679565 0.253629 0.826429 -0.088819
C40   C     C_R   0.592342 0.202225 0.741627 -0.115317
C41   C     C_R   0.539059 0.148570 0.741464 -0.113633
C42   C     C_R   0.696095 0.195764 0.999866 0.011447
C43   C     C_R   0.784294 0.248342 0.086885 0.013280
C44   C     C_R   0.838573 0.302944 0.087037 0.012166
C45   C     C_R   0.803935 0.304182 0.000137 0.010001
C46   C     C_R   0.820430 0.246332 0.173583 -0.086957
H1    H     H_    0.028822 0.390898 0.324368 0.114017
H2    H     H_    0.340474 0.806050 0.070291 0.110555
H3    H     H_    0.091458 0.712623 0.898184 0.159312
H4    H     H_    0.264809 0.694703 0.035333 0.113278
H5    H     H_    0.194170 0.760682 0.592872 0.106531
H6    H     H_    0.093177 0.707599 0.408893 0.144260
H7    H     H_    0.471133 0.109134 0.675712 0.123418
H8    H     H_    0.528031 0.104271 0.822716 0.120730
H9    H     H_    0.782227 0.204649 0.176694 0.124091
H10   H     H_    0.934118 0.295522 0.324051 0.116057
H11   H     H_    0.971978 0.395688 0.177316 0.121377
H12   H     H_    0.793596 0.697095 0.884381 0.148716
H13   H     H_    0.692197 0.769138 0.030768 0.053138
H14   H     H_    0.710084 0.314447 0.406506 0.158089
H15   H     H_    0.409143 0.312677 0.116110 0.150513
H16   H     H_    0.388272 0.437989 0.127861 0.321771
H17   H     H_    0.161288 0.238248 0.968859 0.053521
H18   H     H_    0.400167 0.881155 0.620750 0.340880
H19   H     H_    0.264141 0.689017 0.421223 0.178727
H20   H     H_    0.565826 0.204503 0.676005 0.117125
H21   H     H_    0.761565 0.811196 0.873457 0.321503
H22   H     H_    0.803593 0.726211 0.068892 0.105767
H23   H     H_    0.701270 0.156320 0.421613 0.109668
H24   H     H_    0.792335 0.408000 0.593505 0.157780
H25   H     H_    0.797825 0.234664 0.578370 0.109673
H26   H     H_    0.234798 0.157320 0.931043 0.105223
H27   H     H_    0.717766 0.295297 0.823304 0.123380
H28   H     H_    0.185157 0.785315 0.877222 0.158608
O1    O     O_3   0.000000 0.500000 0.000000 -0.452439
O2    O     O_R   0.325040 0.054120 0.939900 -0.536794
O3    O     O_R   0.444330 0.884140 0.060080 -0.538390
O4    O     O_R   0.054210 0.325030 0.939940 -0.556761
O5    O     O_R   0.615830 0.175840 0.060080 -0.547292
O6    O     O_R   0.324160 0.884140 0.939910 -0.542381
O7    O     O_R   0.615850 0.055700 0.939930 -0.534881
O8    O     O_R   0.614980 0.885710 0.939940 -0.463899
O9    O     O_R   0.445830 0.174930 0.060060 -0.538464
O10   O     O_R   0.614300 0.054120 0.229160 -0.538357
O11   O     O_R   0.325070 0.885060 0.770830 -0.560750
O12   O     O_R   0.054160 0.614240 0.229150 -0.546265
O13   O     O_R   0.885070 0.614240 0.060060 -0.534624
O14   O     O_R   0.174980 0.614900 0.229170 -0.530987
O15   O     O_R   0.885740 0.445830 0.770840 -0.542131
O16   O     O_R   0.175880 0.615810 0.060090 -0.527455
O17   O     O_R   0.884210 0.324110 0.939920 -0.541775
O18   O     O_R   0.055710 0.615810 0.939920 -0.545021
O19   O     O_R   0.884190 0.444260 0.060070 -0.545419
O20   O     O_3   0.324150 0.426666 0.098512 -0.654399
O21   O     O_3   0.339900 0.836276 0.567109 -0.717863
O22   O     O_3   0.726562 0.829014 0.902541 -0.652557
O23   O     O_R   0.885120 0.325030 0.770840 -0.540426
O24   O     O_R   0.175010 0.445830 0.060100 -0.467854
O25   O     O_R   0.885710 0.614900 0.939900 -0.541540
O26   O     O_3   0.500040 0.999960 0.000000 -0.451041
O27   O     O_R   0.614930 0.174930 0.229160 -0.543364
O28   O     O_R   0.445880 0.885710 0.770850 -0.544215
O29   O     O_R   0.614330 0.885060 0.060100 -0.558072
Zn1   Zn    Zn3+2 0.956610 0.542450 0.085830 0.933925
Zn2   Zn    Zn3+2 0.129220 0.543380 0.085850 0.984564
Zn3   Zn    Zn3+2 0.957530 0.543380 0.914160 0.933872
Zn4   Zn    Zn3+2 0.956640 0.370790 0.914170 0.934716
Zn5   Zn    Zn3+2 0.543440 0.957510 0.914170 0.971598
Zn6   Zn    Zn3+2 0.542510 0.956570 0.085840 0.942031
Zn7   Zn    Zn3+2 0.370820 0.956570 0.914150 0.933829
Zn8   Zn    Zn3+2 0.543410 0.129170 0.085830 0.930225

loop_
_geom_bond_atom_site_label_1
_geom_bond_atom_site_label_2
_ccdc_geom_bond_type
C28   O23   A    
C15   C18   S    
O1    Zn4   S    
C31   O11   A    
C27   C29   D    
C14   H25   S    
C36   C42   S    
O12   Zn1   S    
C4    O13   A    
C2    C46   A    
O26   Zn7   S    
C12   C23   A    
O24   Zn2   S    
C37   O16   A    
C13   H24   S    
C36   O5    A    
C35   O6    A    
C38   O19   A    
C18   C19   D    
C38   C45   S    
C8    H12   S    
C11   C30   S    
C19   H17   S    
C8    C9    D    
O15   Zn3   S    
O28   Zn5   S    
C28   O15   A    
O8    Zn5   S    
C21   H2    S    
O7    Zn5   S    
O26   Zn6   S    
C40   H20   S    
C13   C14   D    
C16   O12   A    
C1    O4    A    
C17   C33   S    
O19   Zn1   S    
C7    H13   S    
C24   H4    S    
O26   Zn5   S    
C1    C19   S    
C34   C39   A    
C31   O28   A    
O17   Zn4   S    
H18   O21   S    
C17   H26   S    
O11   Zn7   S    
C39   C40   A    
C6    C8    S    
C16   C29   S    
C38   O17   A    
C35   O3    A    
O4    Zn4   S    
C46   H9    S    
C10   H14   S    
C43   C44   A    
C25   H5    S    
C12   C41   A    
C33   O2    A    
C23   C42   A    
C36   O7    A    
C23   C34   A    
C24   C37   S    
C15   H15   S    
C32   O29   A    
C20   H28   S    
C34   C45   A    
O3    Zn6   S    
C33   O9    A    
C41   H7    S    
O1    Zn3   S    
C22   H3    S    
C29   H19   S    
O18   Zn3   S    
C40   C41   A    
C5    C44   A    
C20   C22   S    
O1    Zn2   S    
C6    O22   S    
H16   O20   S    
H21   O22   S    
C18   O20   S    
O9    Zn8   S    
O27   Zn8   S    
C42   C43   A    
C27   H6    S    
C26   O21   S    
C15   C17   D    
O25   Zn3   S    
C7    C32   S    
C37   O18   A    
C44   C45   A    
O16   Zn2   S    
C3    C5    A    
C10   C13   S    
C1    O24   A    
C11   H23   S    
C6    C7    D    
C21   C35   S    
C5    H11   S    
C25   C27   S    
C32   O8    A    
O10   Zn6   S    
O5    Zn8   S    
O29   Zn6   S    
C2    C3    A    
C25   C26   D    
C9    H22   S    
C2    H10   S    
O14   Zn2   S    
O1    Zn1   S    
C30   O27   A    
C3    H1    S    
C22   C24   D    
C39   H27   S    
C30   O10   A    
C43   C46   A    
C10   C11   D    
O13   Zn1   S    
O23   Zn4   S    
C26   C31   S    
C20   C21   D    
O26   Zn8   S    
O2    Zn7   S    
C4    O25   A    
O6    Zn7   S    
C16   O14   A    
C14   C28   S    
C4    C9    S    
C12   H8    S    
