data_mof_unit_pretest_400.cif
_audit_creation_date              2012-12-11T15:30:40-0500
_audit_creation_method            fapswitch 2.2
_symmetry_space_group_name_H-M    P1
_symmetry_Int_Tables_number       1
_space_group_crystal_system       triclinic
_cell_length_a                    6.949772
_cell_length_b                    20.466552
_cell_length_c                    24.410467
_cell_angle_alpha                 89.763079
_cell_angle_beta                  90.395886
_cell_angle_gamma                 89.374616
_cell_volume                      3471.77235114

loop_
_atom_site_label
_atom_site_type_symbol
_atom_type_description
_atom_site_fract_x
_atom_site_fract_y
_atom_site_fract_z
_atom_type_partial_charge
O1    O     O_R   0.507310 0.423620 0.460450 -0.536921
O2    O     O_R   0.170760 0.556060 0.437190 -0.530625
O3    O     O_R   0.004040 0.576380 0.539550 -0.535875
C1    C     C_R   0.338757 0.576210 0.421268 0.720701
O4    O     O_R   0.177350 0.422870 0.454070 -0.538579
O5    O     O_R   0.010680 0.442240 0.556560 -0.538644
C2    C     C_R   0.346411 0.398871 0.443508 0.693722
O6    O     O_R   0.500670 0.557760 0.443440 -0.533858
O7    O     O_3   0.340380 0.506510 0.533610 -0.368402
V1    V     V_3+5 0.064130 0.498790 0.493770 1.467774
O8    O     O_R   0.681170 0.443940 0.562810 -0.534379
C3    C     C_R   0.850860 0.423860 0.578662 0.718664
O9    O     O_R   0.674570 0.577130 0.545930 -0.538281
C4    C     C_R   0.842246 0.601128 0.556689 0.699438
V2    V     V_3+5 0.564560 0.501210 0.506230 1.464953
O10   O     O_3   0.838170 0.493490 0.466390 -0.363431
C5    C     C_R   0.976652 0.837874 0.911306 -0.059034
C6    C     C_R   0.842652 0.661911 0.589158 -0.057863
C7    C     C_R   0.052053 0.722552 0.905658 -0.146657
C8    C     C_R   0.039115 0.779774 0.936088 -0.164355
C9    C     C_R   0.922726 0.837817 0.855622 -0.128232
C10   C     C_R   0.920356 0.779042 0.824682 0.106939
C11   C     C_R   0.998196 0.722084 0.850122 0.129607
C12   C     C_R   0.856806 0.775601 0.768515 -0.006035
C13   C     C_R   0.905134 0.718682 0.736632 0.025171
C14   C     C_R   0.990520 0.664565 0.763803 -0.147361
C15   C     C_R   0.029091 0.665603 0.819641 -0.176162
C16   C     C_R   0.740311 0.824923 0.743244 0.245610
C17   C     C_R   0.708042 0.824266 0.686940 -0.180414
C18   C     C_R   0.768157 0.771946 0.654713 0.067710
C19   C     C_R   0.860770 0.716901 0.679031 0.087044
C20   C     C_R   0.721970 0.772517 0.598659 -0.116557
C21   C     C_R   0.757099 0.717873 0.566443 -0.141157
C22   C     C_R   0.898435 0.661804 0.644756 -0.190505
H1    H     H_    0.091141 0.622281 0.838784 0.135104
H2    H     H_    0.710916 0.718380 0.523945 0.124820
H3    H     H_    0.108287 0.678720 0.925359 0.121786
H4    H     H_    0.083691 0.779200 0.978715 0.108805
H5    H     H_    0.897079 0.884622 0.836430 0.162278
H6    H     H_    0.026765 0.619729 0.743242 0.131397
H7    H     H_    0.650591 0.814529 0.580094 0.137953
C23   C     C_3   0.722647 0.235894 0.788375 -0.413928
C24   C     C_3   0.070151 0.265048 0.798561 -0.301825
C25   C     C_3   0.052525 0.313966 0.749810 -0.271788
H8    H     H_    0.688250 0.259883 0.827979 0.197208
H9    H     H_    0.221239 0.246980 0.802116 0.192590
H10   H     H_    0.036922 0.290980 0.837405 0.161234
H11   H     H_    0.020958 0.363789 0.765600 0.201767
H12   H     H_    0.193039 0.316481 0.728365 0.181658
C26   C     C_1   0.863275 0.378410 0.624374 -0.150216
C27   C     C_3   0.930261 0.207044 0.790987 0.143823
C28   C     C_3   0.699746 0.285422 0.739947 0.152246
C29   C     C_3   0.893622 0.292589 0.708779 0.148266
C30   C     C_3   0.951911 0.224010 0.687051 -0.418143
C31   C     C_3   0.971693 0.173583 0.734947 0.171013
C32   C     C_1   0.875955 0.339973 0.662364 -0.001503
C33   C     C_1   0.948133 0.159750 0.837453 0.002861
C34   C     C_1   0.960915 0.121412 0.875506 -0.136156
H13   H     H_    0.864717 0.134241 0.728414 0.145107
H14   H     H_    0.617408 0.195772 0.783085 0.175979
H15   H     H_    0.589030 0.266656 0.711019 0.126835
H16   H     H_    0.089434 0.227550 0.664227 0.199468
C35   C     C_3   0.601313 0.706781 0.270552 0.100959
C36   C     C_3   0.254166 0.691670 0.242178 -0.265351
C37   C     C_3   0.281613 0.741156 0.194335 -0.331589
H17   H     H_    0.677005 0.729807 0.184735 0.190796
H18   H     H_    0.101377 0.692738 0.255335 0.207690
H19   H     H_    0.283382 0.641283 0.227334 0.197172
H20   H     H_    0.325100 0.714268 0.156792 0.163912
H21   H     H_    0.141848 0.766045 0.185081 0.155852
C38   C     C_1   0.475674 0.878390 0.124744 -0.179822
C39   C     C_3   0.388934 0.707795 0.291289 0.115366
C40   C     C_3   0.627146 0.755825 0.222034 -0.353886
C41   C     C_3   0.435883 0.792665 0.208981 0.167314
C42   C     C_3   0.369717 0.828407 0.261643 -0.325250
C43   C     C_3   0.344028 0.779203 0.310064 0.108671
C44   C     C_1   0.460387 0.840006 0.162742 -0.048189
C45   C     C_1   0.364049 0.660303 0.337524 0.058027
C46   C     C_1   0.348588 0.621812 0.375433 -0.113105
H22   H     H_    0.446507 0.792294 0.343397 0.135502
H23   H     H_    0.477943 0.865600 0.273391 0.162348
H24   H     H_    0.697540 0.721703 0.304790 0.153853
H25   H     H_    0.740823 0.791516 0.232883 0.158670
H26   H     H_    0.232723 0.855258 0.253059 0.198237
C47   C     C_R   0.471294 0.161746 0.088862 -0.046216
C48   C     C_R   0.353087 0.337894 0.411657 -0.044936
C49   C     C_R   0.527901 0.277785 0.094406 -0.154529
C50   C     C_R   0.520649 0.220595 0.063900 -0.167585
C51   C     C_R   0.429818 0.160301 0.145153 -0.205409
C52   C     C_R   0.439569 0.217956 0.177662 0.106600
C53   C     C_R   0.489225 0.276971 0.150769 0.130919
C54   C     C_R   0.404478 0.219164 0.235677 0.006114
C55   C     C_R   0.419419 0.279256 0.265429 0.052274
C56   C     C_R   0.468732 0.336257 0.236136 -0.155697
C57   C     C_R   0.502361 0.334938 0.180192 -0.187179
C58   C     C_R   0.355747 0.162215 0.264835 -0.203157
C59   C     C_R   0.321873 0.162855 0.320885 0.254851
C60   C     C_R   0.334656 0.221328 0.350652 0.061053
C61   C     C_R   0.384168 0.280430 0.323401 0.048257
C62   C     C_R   0.296753 0.221848 0.407299 -0.093994
C63   C     C_R   0.304325 0.279471 0.437155 -0.180306
C64   C     C_R   0.393901 0.338510 0.355410 -0.182852
H27   H     H_    0.540379 0.380057 0.159705 0.139398
H28   H     H_    0.428081 0.385349 0.338014 0.102343
H29   H     H_    0.566578 0.322821 0.073937 0.123438
H30   H     H_    0.395102 0.113282 0.162138 0.101218
H31   H     H_    0.483509 0.383259 0.255167 0.138583
H32   H     H_    0.258260 0.177929 0.429177 0.178593
O11   O     O_R   0.323590 0.942280 0.056590 -0.538826
O12   O     O_R   0.647030 0.077140 0.045940 -0.540103
O13   O     O_R   0.813570 0.057750 0.943430 -0.535076
C65   C     C_R   0.478002 0.101156 0.056514 0.689051
O14   O     O_R   0.653510 0.943950 0.062820 -0.538563
O15   O     O_R   0.820100 0.923600 0.960440 -0.531748
C66   C     C_R   0.485496 0.923865 0.078796 0.717410
O16   O     O_R   0.317060 0.076430 0.039590 -0.539904
O17   O     O_3   0.483830 0.993520 0.966410 -0.354325
V3    V     V_3+5 0.760140 0.001200 0.006230 1.459885
O18   O     O_R   0.149560 0.922820 0.954030 -0.531842
C67   C     C_R   0.981553 0.898987 0.943156 0.709545
O19   O     O_R   0.143080 0.056020 0.937150 -0.531434
C68   C     C_R   0.973376 0.076073 0.921287 0.728904
V4    V     V_3+5 0.259690 0.998730 0.993720 1.481612
O20   O     O_3   0.986120 0.006480 0.033580 -0.373713
Br1   Br    Br    0.599639 0.369142 0.766255 -0.612868
Br2   Br    Br    0.224339 0.130611 0.733454 -0.557617
H33   H     H_    0.841636 0.206762 0.657321 0.150421
H34   H     H_    0.961612 0.617093 0.660277 0.101210
Br3   Br    Br    0.689790 0.619372 0.249744 -0.602389
Br4   Br    Br    0.087520 0.788727 0.341718 -0.575252
H35   H     H_    0.270625 0.278549 0.480432 0.114840
Br5   Br    Br    0.256456 0.080632 0.354203 -0.498564
H36   H     H_    0.622428 0.863324 0.668598 0.174276
H37   H     H_    0.554886 0.222140 0.020677 0.110156
H38   H     H_    0.342080 0.115549 0.245187 0.159084
Br6   Br    Br    0.574309 0.884810 0.782071 -0.535770

loop_
_geom_bond_atom_site_label_1
_geom_bond_atom_site_label_2
_ccdc_geom_bond_type
C25   H12   S    
C13   C19   A    
C17   H36   S    
C49   C50   A    
C42   C43   S    
C55   C56   A    
O16   V4    S    
C49   C53   A    
C40   C41   S    
C4    C6    S    
O2    C1    A    
C7    C8    A    
C38   C44   T    
C1    O6    A    
C47   C65   S    
C14   H6    S    
O12   V3    S    
C59   C60   A    
C52   C53   A    
V4    O20   S    
C29   C30   S    
C14   C15   A    
O13   V3    S    
C36   H19   S    
C16   C17   A    
C31   H13   S    
C28   H15   S    
O5    C3    A    
C18   C19   A    
C42   H26   S    
C29   C32   S    
C2    C48   S    
V2    O10   S    
C54   C58   A    
C21   H2    S    
C62   C63   A    
C39   C45   S    
C7    H3    S    
C5    C67   S    
O8    V2    S    
C25   C29   S    
C41   C44   S    
C49   H29   S    
C51   H30   S    
C20   H7    S    
C27   C33   S    
C11   C15   A    
O7    V1    S    
C55   C61   A    
C39   C43   S    
C23   C27   S    
C35   Br3   S    
O1    C2    A    
C9    C10   A    
O13   C68   A    
C43   Br4   S    
C24   H9    S    
C57   H27   S    
C58   H38   S    
O12   C65   A    
C56   H31   S    
C62   H32   S    
C34   C68   S    
C41   C42   S    
C35   H24   S    
C36   H18   S    
C43   H22   S    
C12   C13   A    
C1    C46   S    
C23   H14   S    
O4    C2    A    
C47   C51   A    
C45   C46   T    
C42   H23   S    
C30   H16   S    
C15   H1    S    
C13   C14   A    
H17   C40   S    
C26   C32   T    
C37   C41   S    
C23   H8    S    
C7    C11   A    
C24   C25   S    
C17   C18   A    
C8    H4    S    
C52   C54   A    
C9    H5    S    
C31   Br2   S    
C28   Br1   S    
C58   C59   A    
C19   C22   A    
C38   C66   S    
V3    O20   S    
C64   H28   S    
C6    C22   A    
O19   C68   A    
O15   V3    S    
O3    C4    A    
O1    V2    S    
C63   H35   S    
O6    V2    S    
C60   C62   A    
O9    V2    S    
C10   C12   A    
O2    V1    S    
C65   O16   A    
C28   C29   S    
C47   C50   A    
C30   C31   S    
C16   Br6   S    
C5    C8    A    
O11   V4    S    
C12   C16   A    
C59   Br5   S    
O5    V1    S    
C3    C26   S    
O18   C67   A    
O18   V4    S    
C35   C40   S    
C30   H33   S    
C20   C21   A    
O7    V2    S    
C50   H37   S    
O4    V1    S    
O3    V1    S    
V1    O10   S    
O17   V3    S    
C36   C37   S    
C18   C20   A    
C24   C27   S    
C33   C34   T    
C37   H20   S    
C54   C55   A    
C27   C31   S    
C36   C39   S    
O17   V4    S    
C56   C57   A    
C6    C21   A    
C5    C9    A    
O19   V4    S    
O11   C66   A    
C53   C57   A    
O14   V3    S    
C25   H11   S    
C61   C64   A    
C35   C39   S    
C22   H34   S    
C60   C61   A    
C10   C11   A    
C51   C52   A    
O9    C4    A    
C48   C63   A    
C24   H10   S    
C40   H25   S    
O15   C67   A    
C37   H21   S    
O8    C3    A    
C23   C28   S    
O14   C66   A    
C48   C64   A    
