data_mof_unit_pretest_1566.cif
_audit_creation_date              2012-12-10T17:55:43-0500
_audit_creation_method            fapswitch 2.2
_symmetry_space_group_name_H-M    P1
_symmetry_Int_Tables_number       1
_space_group_crystal_system       triclinic
_cell_length_a                    18.303274
_cell_length_b                    18.370494
_cell_length_c                    26.03997
_cell_angle_alpha                 90.015652
_cell_angle_beta                  89.999307
_cell_angle_gamma                 89.999515
_cell_volume                      8755.68400768

loop_
_atom_site_label
_atom_site_type_symbol
_atom_type_description
_atom_site_fract_x
_atom_site_fract_y
_atom_site_fract_z
_atom_type_partial_charge
C1    C     C_R   0.141393 0.861012 0.250992 0.767387
C2    C     C_R   0.273177 0.824395 0.240489 -0.025706
C3    C     C_2   0.201278 0.400541 0.733135 0.427005
C4    C     C_R   0.765829 0.785732 0.798527 -0.020094
C5    C     C_R   0.726843 0.824373 0.240397 -0.025723
C6    C     C_R   0.734143 0.285707 0.298533 -0.019910
C7    C     C_R   0.773176 0.324395 0.740490 -0.025719
C8    C     C_R   0.265833 0.285728 0.298528 -0.020087
C9    C     C_R   0.226826 0.324392 0.740476 -0.025670
C10   C     C_R   0.789936 0.233937 0.296196 -0.151435
C11   C     C_R   0.824590 0.268282 0.738461 -0.147452
C12   C     C_R   0.210042 0.233958 0.296189 -0.151247
C13   C     C_R   0.139197 0.858829 0.751195 0.765251
C14   C     C_R   0.175413 0.268278 0.738448 -0.147718
C15   C     C_R   0.289970 0.733972 0.796186 -0.151467
C16   C     C_R   0.324591 0.768282 0.238461 -0.147474
C17   C     C_R   0.710039 0.733961 0.796188 -0.151236
C18   C     C_R   0.675434 0.768259 0.238372 -0.147830
C19   C     C_R   0.802990 0.195128 0.250931 -0.040100
C20   C     C_R   0.804801 0.196923 0.750867 -0.040905
C21   C     C_R   0.197010 0.195129 0.250930 -0.040191
C22   C     C_R   0.195198 0.196923 0.750866 -0.040994
C23   C     C_R   0.302990 0.695129 0.750931 -0.040084
C24   C     C_R   0.858606 0.861011 0.250992 0.767662
C25   C     C_R   0.304801 0.696923 0.250867 -0.040896
C26   C     C_R   0.697010 0.695128 0.750931 -0.040191
C27   C     C_R   0.695199 0.696922 0.250865 -0.040969
C28   C     C_R   0.933826 0.999793 0.026790 -0.172915
C29   C     C_R   0.933825 0.999748 0.973195 -0.172983
C30   C     C_R   0.066174 0.999793 0.026788 -0.172917
C31   C     C_R   0.066175 0.999748 0.973194 -0.172977
C32   C     C_R   0.433826 0.499793 0.526790 -0.172936
C33   C     C_R   0.433825 0.499748 0.473195 -0.172993
C34   C     C_R   0.566175 0.499793 0.526788 -0.172917
C35   C     C_R   0.860802 0.858829 0.751194 0.765053
C36   C     C_R   0.566175 0.499748 0.473194 -0.172971
C37   C     C_R   1.000000 0.999796 0.945874 -0.010709
C38   C     C_R   0.000000 0.999859 0.054114 -0.012535
C39   C     C_R   0.500000 0.499796 0.445874 -0.010700
C40   C     C_R   0.500000 0.499859 0.554114 -0.012525
C41   C     C_R   0.859849 0.140066 0.249992 0.790471
C42   C     C_R   0.859822 0.140034 0.749981 0.796209
C43   C     C_R   0.140151 0.140066 0.249992 0.790564
C44   C     C_R   0.140178 0.140034 0.749981 0.796104
C45   C     C_R   0.359849 0.640066 0.749992 0.790492
C46   C     C_R   0.641393 0.361011 0.750992 0.767384
C47   C     C_R   0.359822 0.640034 0.249981 0.796201
C48   C     C_R   0.640151 0.640066 0.749992 0.790569
C49   C     C_R   0.640178 0.640034 0.249981 0.796131
C50   C     C_R   0.000000 0.999964 0.110783 0.787657
C51   C     C_R   1.000000 0.999917 0.889212 0.776648
C52   C     C_R   0.500000 0.499964 0.610784 0.787657
C53   C     C_R   0.500000 0.499917 0.389212 0.776644
C54   C     C_R   0.000465 0.999953 0.388559 0.850319
C55   C     C_R   0.999534 0.999938 0.611439 0.854834
C56   C     C_R   0.500465 0.499953 0.888559 0.850319
C57   C     C_R   0.639197 0.358829 0.251194 0.765228
C58   C     C_R   0.499534 0.499938 0.111439 0.854839
C59   C     C_2   0.001636 0.059699 0.528139 -0.146748
C60   C     C_2   0.998300 0.059711 0.471881 -0.147807
C61   C     C_2   0.501637 0.559699 0.028139 -0.146740
C62   C     C_2   0.498299 0.559711 0.971881 -0.147810
C63   C     C_2   0.995965 0.998670 0.556025 -0.298801
C64   C     C_2   0.004040 0.998698 0.443970 -0.296297
C65   C     C_2   0.495963 0.498670 0.056025 -0.298803
C66   C     C_2   0.504042 0.498698 0.943970 -0.296291
C67   C     C_R   0.760697 0.207925 0.207243 -0.174446
C68   C     C_R   0.358607 0.361011 0.750992 0.767603
C69   C     C_R   0.733125 0.180603 0.765124 -0.179472
C70   C     C_R   0.239324 0.207907 0.207248 -0.174426
C71   C     C_R   0.266870 0.180607 0.765136 -0.179464
C72   C     C_R   0.260664 0.707892 0.707253 -0.174446
C73   C     C_R   0.233125 0.680603 0.265125 -0.179480
C74   C     C_R   0.739327 0.707903 0.707250 -0.174426
C75   C     C_R   0.766848 0.680628 0.265205 -0.179494
C76   C     C_R   0.206899 0.760954 0.708270 -0.166018
C77   C     C_R   0.180755 0.735052 0.265495 -0.170678
C78   C     C_R   0.793090 0.760966 0.708266 -0.166126
C79   C     C_R   0.360802 0.358829 0.251194 0.765048
C80   C     C_R   0.819217 0.735077 0.265578 -0.170633
C81   C     C_R   0.706932 0.260988 0.208259 -0.166010
C82   C     C_R   0.680755 0.235052 0.765495 -0.170671
C83   C     C_R   0.293087 0.260969 0.208264 -0.166127
C84   C     C_R   0.319240 0.235056 0.765507 -0.170580
C85   C     C_R   0.193786 0.800935 0.753253 -0.086299
C86   C     C_R   0.199669 0.806771 0.252598 -0.085078
C87   C     C_R   0.806212 0.800937 0.753252 -0.086130
C88   C     C_R   0.800327 0.806774 0.252598 -0.085126
C89   C     C_R   0.693786 0.300936 0.253251 -0.086302
C90   C     C_R   0.234180 0.785742 0.798525 -0.019934
C91   C     C_R   0.699669 0.306771 0.752598 -0.085081
C92   C     C_R   0.306212 0.300937 0.253251 -0.086131
C93   C     C_R   0.300330 0.306772 0.752598 -0.085125
C94   C     C_2   0.216554 0.819096 0.849084 0.418362
C95   C     C_2   0.298726 0.900548 0.233161 0.426950
C96   C     C_2   0.783466 0.819073 0.849087 0.418491
C97   C     C_2   0.701305 0.900506 0.232960 0.427196
C98   C     C_2   0.716472 0.319020 0.349098 0.418280
C99   C     C_2   0.798726 0.400548 0.733164 0.427003
C100  C     C_2   0.283476 0.319064 0.349090 0.418457
H1    H     H_    0.007874 0.112135 0.546939 0.188135
H2    H     H_    0.717317 0.125492 0.774915 0.163302
H3    H     H_    0.229756 0.177952 0.172037 0.162195
H4    H     H_    0.282676 0.125498 0.774936 0.163308
H5    H     H_    0.270222 0.677927 0.672046 0.162216
H6    H     H_    0.217317 0.625491 0.274915 0.163297
H7    H     H_    0.729762 0.677946 0.672040 0.162193
H8    H     H_    0.782640 0.625534 0.275061 0.163347
H9    H     H_    0.176227 0.771568 0.673477 0.165736
H10   H     H_    0.124970 0.720787 0.275128 0.163642
H11   H     H_    0.823755 0.771589 0.673471 0.165512
H12   H     H_    0.992002 0.112144 0.453105 0.188447
H13   H     H_    0.874983 0.720826 0.275276 0.163692
H14   H     H_    0.676286 0.271629 0.173460 0.165718
H15   H     H_    0.624970 0.220787 0.775127 0.163645
H16   H     H_    0.323750 0.271595 0.173469 0.165514
H17   H     H_    0.375022 0.220793 0.775149 0.163644
H18   H     H_    0.821498 0.221539 0.330325 0.192691
H19   H     H_    0.881032 0.280538 0.729239 0.195023
H20   H     H_    0.178465 0.221576 0.330316 0.193131
H21   H     H_    0.118974 0.280533 0.729216 0.195032
H22   H     H_    0.321557 0.721601 0.830310 0.192695
H23   H     H_    0.507878 0.612135 0.046939 0.188145
H24   H     H_    0.381033 0.780538 0.229239 0.195008
H25   H     H_    0.678459 0.721582 0.830314 0.193135
H26   H     H_    0.619011 0.780504 0.229084 0.195032
H27   H     H_    0.881949 0.999795 0.046791 0.169716
H28   H     H_    0.881948 0.999705 0.953192 0.171442
H29   H     H_    0.118052 0.999795 0.046788 0.169705
H30   H     H_    0.118052 0.999705 0.953190 0.171445
H31   H     H_    0.381949 0.499794 0.546791 0.169691
H32   H     H_    0.381948 0.499705 0.453192 0.171432
H33   H     H_    0.618051 0.499795 0.546788 0.169700
H34   H     H_    0.491999 0.612143 0.953105 0.188450
H35   H     H_    0.618052 0.499705 0.453190 0.171433
H36   H     H_    0.163279 0.842714 0.856296 0.078846
H37   H     H_    0.267412 0.946029 0.247926 0.078464
H38   H     H_    0.836735 0.842704 0.856291 0.078818
H39   H     H_    0.732507 0.946009 0.247809 0.078431
H40   H     H_    0.663214 0.342685 0.356284 0.078879
H41   H     H_    0.767413 0.446029 0.747928 0.078464
H42   H     H_    0.336745 0.342698 0.356291 0.078816
H43   H     H_    0.232580 0.446026 0.747904 0.078519
H44   H     H_    0.986922 0.945814 0.538876 0.152333
H45   H     H_    0.013136 0.945851 0.461098 0.152900
H46   H     H_    0.486916 0.445815 0.038876 0.152338
H47   H     H_    0.513142 0.445852 0.961098 0.152907
H48   H     H_    0.770281 0.177985 0.172028 0.162205
O1    O     O_3   0.000000 0.000000 0.250030 -0.481714
O2    O     O_R   0.585480 0.353820 0.219950 -0.633632
O3    O     O_R   0.414520 0.353820 0.780050 -0.636111
O4    O     O_R   0.414520 0.353820 0.219950 -0.633996
O5    O     O_R   0.914530 0.146170 0.280090 -0.639324
O6    O     O_R   0.914530 0.146170 0.719910 -0.640259
O7    O     O_R   0.085470 0.146170 0.280090 -0.638994
O8    O     O_R   0.085470 0.146170 0.719910 -0.640675
O9    O     O_R   0.414530 0.646170 0.780090 -0.639331
O10   O     O_R   0.414530 0.646170 0.219910 -0.640259
O11   O     O_R   0.585470 0.646170 0.780090 -0.638991
O12   O     O_3   1.000000 0.000000 0.749970 -0.481842
O13   O     O_R   0.585470 0.646170 0.219910 -0.640690
O14   O     O_R   0.146180 0.085440 0.219990 -0.646567
O15   O     O_R   0.146180 0.085440 0.780010 -0.638678
O16   O     O_R   0.853820 0.085440 0.219990 -0.646494
O17   O     O_R   0.853820 0.085440 0.780010 -0.638784
O18   O     O_R   0.646180 0.585440 0.719990 -0.646569
O19   O     O_R   0.646180 0.585440 0.280010 -0.638714
O20   O     O_R   0.353820 0.585440 0.719990 -0.646513
O21   O     O_R   0.353820 0.585440 0.280010 -0.638789
O22   O     O_R   0.853820 0.914550 0.219980 -0.651680
O23   O     O_3   0.500000 0.500000 0.750030 -0.481711
O24   O     O_R   0.853820 0.914550 0.780020 -0.655606
O25   O     O_R   0.146180 0.914550 0.219980 -0.651611
O26   O     O_R   0.146180 0.914550 0.780020 -0.655612
O27   O     O_R   0.353820 0.414550 0.719980 -0.651696
O28   O     O_R   0.353820 0.414550 0.280020 -0.655604
O29   O     O_R   0.646180 0.414550 0.719980 -0.651614
O30   O     O_R   0.646180 0.414550 0.280020 -0.655613
O31   O     O_R   0.060720 0.999990 0.135450 -0.640002
O32   O     O_R   0.060720 0.999990 0.864550 -0.646591
O33   O     O_R   0.939280 0.999990 0.135450 -0.640002
O34   O     O_3   0.500000 0.500000 0.249970 -0.481836
O35   O     O_R   0.939280 0.999990 0.864550 -0.646592
O36   O     O_R   0.560720 0.499990 0.635450 -0.640000
O37   O     O_R   0.560720 0.499990 0.364550 -0.646599
O38   O     O_R   0.439280 0.499990 0.635450 -0.640016
O39   O     O_R   0.439280 0.499990 0.364550 -0.646594
O40   O     O_R   1.000000 0.939270 0.364600 -0.643852
O41   O     O_R   1.000000 0.939270 0.635400 -0.644124
O42   O     O_R   0.500000 0.439270 0.864600 -0.643843
O43   O     O_R   0.500000 0.439270 0.135400 -0.644120
O44   O     O_R   1.000000 0.060730 0.364620 -0.639501
O45   O     O_R   0.085480 0.853820 0.280050 -0.636520
O46   O     O_R   1.000000 0.060730 0.635380 -0.635124
O47   O     O_R   0.500000 0.560730 0.864620 -0.639502
O48   O     O_R   0.500000 0.560730 0.135380 -0.635118
O49   O     O_2   0.261156 0.819160 0.883973 -0.561289
O50   O     O_2   0.356377 0.913443 0.211357 -0.544457
O51   O     O_2   0.738882 0.819107 0.883987 -0.561029
O52   O     O_2   0.643796 0.913356 0.210956 -0.544409
O53   O     O_2   0.761014 0.318988 0.384022 -0.561339
O54   O     O_2   0.856375 0.413443 0.711362 -0.544432
O55   O     O_2   0.238897 0.319090 0.383994 -0.561052
O56   O     O_R   0.085480 0.853820 0.719950 -0.633644
O57   O     O_2   0.143642 0.413429 0.711314 -0.544494
O58   O     O_R   0.914520 0.853820 0.280050 -0.636143
O59   O     O_R   0.914520 0.853820 0.719950 -0.633997
O60   O     O_R   0.585480 0.353820 0.780050 -0.636516
Zn1   Zn    Zn3+2 1.000000 0.086760 0.292960 0.980103
Zn2   Zn    Zn3+2 0.586770 0.499990 0.292890 0.970975
Zn3   Zn    Zn3+2 0.413230 0.499990 0.707110 0.976662
Zn4   Zn    Zn3+2 0.413230 0.499990 0.292890 0.970878
Zn5   Zn    Zn3+2 1.000000 0.913240 0.292940 0.972005
Zn6   Zn    Zn3+2 1.000000 0.913240 0.707060 0.975260
Zn7   Zn    Zn3+2 0.500000 0.413240 0.792940 0.972024
Zn8   Zn    Zn3+2 0.500000 0.413240 0.207060 0.975269
Zn9   Zn    Zn3+2 1.000000 0.086760 0.707040 0.989560
Zn10  Zn    Zn3+2 0.500000 0.586760 0.792960 0.980109
Zn11  Zn    Zn3+2 0.500000 0.586760 0.207040 0.989561
Zn12  Zn    Zn3+2 0.086770 0.999990 0.207110 0.976592
Zn13  Zn    Zn3+2 0.086770 0.999990 0.792890 0.971009
Zn14  Zn    Zn3+2 0.913230 0.999990 0.207110 0.976711
Zn15  Zn    Zn3+2 0.913230 0.999990 0.792890 0.970889
Zn16  Zn    Zn3+2 0.586770 0.499990 0.707110 0.976590

loop_
_geom_bond_atom_site_label_1
_geom_bond_atom_site_label_2
_ccdc_geom_bond_type
C78   C87   A    
C96   O51   D    
C59   C60   S    
C71   H4    S    
C23   C45   S    
C15   H22   S    
C64   H45   S    
C98   O53   D    
C97   O52   D    
O47   Zn10  S    
C72   C76   A    
C11   H19   S    
O23   Zn16  S    
O3    Zn7   S    
C4    C87   A    
C39   C53   S    
C69   H2    S    
C7    C11   A    
C83   C92   A    
O4    Zn8   S    
C1    O25   A    
C33   C39   A    
C57   C89   S    
C60   H12   S    
C17   C26   A    
C6    C98   S    
C55   O41   A    
C2    C95   S    
C42   O6    A    
C25   C73   A    
O1    Zn1   S    
C82   H15   S    
C49   O19   A    
C31   H30   S    
C51   O35   A    
C95   O50   D    
C96   H38   S    
C30   C31   A    
C37   C51   S    
C100  O55   D    
C43   O7    A    
O56   Zn6   S    
O34   Zn2   S    
O30   Zn2   S    
C24   O58   A    
O25   Zn12  S    
C53   O37   A    
C69   C82   A    
C74   H7    S    
O22   Zn14  S    
C5    C88   A    
C35   C87   S    
C22   C44   S    
C84   H17   S    
C55   C63   S    
C81   H14   S    
C94   H36   S    
C63   H44   S    
C19   C67   A    
C78   H11   S    
C8    C92   A    
C44   O15   A    
O27   Zn3   S    
C2    C16   A    
C75   C80   A    
C25   C47   S    
C49   O13   A    
C42   O17   A    
C26   C48   S    
C81   C89   A    
C15   C23   A    
O12   Zn13  S    
C7    C91   A    
O34   Zn11  S    
C14   H21   S    
C4    C96   S    
O38   Zn3   S    
O34   Zn8   S    
C35   O24   A    
O20   Zn3   S    
C61   C62   S    
O26   Zn13  S    
C52   O38   A    
C27   C75   A    
C23   C72   A    
O42   Zn7   S    
C47   O21   A    
C68   O27   A    
C46   O29   A    
C90   C94   S    
O46   Zn9   S    
C41   O5    A    
O15   Zn13  S    
C31   C37   A    
C13   O26   A    
C48   O11   A    
C56   O42   A    
C11   C20   A    
C95   H37   S    
C62   C66   D    
C3    O57   D    
C70   C83   A    
O7    Zn1   S    
C3    H43   S    
O18   Zn16  S    
C70   H3    S    
C76   H9    S    
C46   C91   S    
C12   H20   S    
C34   H33   S    
C40   C52   S    
O21   Zn4   S    
C12   C21   A    
O59   Zn6   S    
C82   C91   A    
O28   Zn4   S    
C98   H40   S    
O1    Zn12  S    
C59   H1    S    
C79   O28   A    
C1    O45   A    
C9    C14   A    
C10   H18   S    
C61   C65   D    
O43   Zn8   S    
C56   O47   A    
O23   Zn3   S    
C41   O16   A    
C58   C65   S    
O12   Zn9   S    
C28   C38   A    
C10   C19   A    
C8    C12   A    
O11   Zn10  S    
O12   Zn6   S    
C57   O2    A    
O12   Zn15  S    
O31   Zn12  S    
O34   Zn4   S    
C66   H47   S    
C45   O9    A    
O32   Zn13  S    
O39   Zn4   S    
O6    Zn9   S    
C3    C9    S    
C24   C88   S    
C79   C92   S    
O8    Zn9   S    
C7    C99   S    
C1    C86   S    
C4    C17   A    
C33   H32   S    
C35   O59   A    
C72   H5    S    
C5    C97   S    
C77   C86   A    
C67   C81   A    
O60   Zn7   S    
O2    Zn8   S    
O13   Zn11  S    
C99   O54   D    
C14   C22   A    
C34   C40   A    
C20   C69   A    
C85   C90   A    
C50   O33   A    
O1    Zn14  S    
C54   O44   A    
C13   C85   S    
C51   O32   A    
C30   H29   S    
C36   H35   S    
C9    C93   A    
C22   C71   A    
C67   H48   S    
O48   Zn11  S    
C24   O22   A    
O58   Zn5   S    
C71   C84   A    
C46   O60   A    
C16   C25   A    
O36   Zn16  S    
C28   C29   A    
O33   Zn14  S    
C83   H16   S    
C99   H41   S    
C36   C39   A    
C18   C27   A    
C52   O36   A    
O19   Zn2   S    
C54   O40   A    
C6    C10   A    
C20   C42   S    
O40   Zn5   S    
C28   H27   S    
O45   Zn5   S    
C38   C50   S    
C6    C89   A    
C59   C63   D    
C68   C93   S    
C13   O56   A    
C61   H23   S    
C21   C70   A    
C60   C64   D    
C94   O49   D    
C32   C33   A    
C62   H34   S    
C19   C41   S    
C50   O31   A    
C8    C100  S    
O23   Zn7   S    
C80   C88   A    
C68   O3    A    
C100  H42   S    
C18   H26   S    
C15   C90   A    
O5    Zn1   S    
C17   H25   S    
C73   H6    S    
C57   O30   A    
C54   C64   S    
C5    C18   A    
O17   Zn15  S    
C56   C66   S    
C58   O48   A    
O9    Zn10  S    
C26   C74   A    
C97   H39   S    
C2    C86   A    
C34   C36   A    
C84   C93   A    
C32   C40   A    
O29   Zn16  S    
C53   O39   A    
C77   H10   S    
C45   O20   A    
O1    Zn5   S    
O44   Zn1   S    
O23   Zn10  S    
O41   Zn6   S    
C43   O14   A    
O16   Zn14  S    
C75   H8    S    
C55   O46   A    
C48   O18   A    
C80   H13   S    
O35   Zn15  S    
C74   C78   A    
C29   H28   S    
C29   C37   A    
C58   O43   A    
O24   Zn15  S    
O14   Zn12  S    
C73   C77   A    
O37   Zn2   S    
C44   O8    A    
C30   C38   A    
C65   H46   S    
C16   H24   S    
C76   C85   A    
O10   Zn11  S    
C32   H31   S    
C21   C43   S    
C27   C49   S    
C79   O4    A    
C47   O10   A    
