data_mof_unit_pretest_1279.cif
_audit_creation_date              2012-12-10T19:00:49-0500
_audit_creation_method            fapswitch 2.2
_symmetry_space_group_name_H-M    P1
_symmetry_Int_Tables_number       1
_space_group_crystal_system       triclinic
_cell_length_a                    15.083015
_cell_length_b                    10.777121
_cell_length_c                    9.548335
_cell_angle_alpha                 89.844057
_cell_angle_beta                  89.705667
_cell_angle_gamma                 87.929796
_cell_volume                      1551.05747266

loop_
_atom_site_label
_atom_site_type_symbol
_atom_type_description
_atom_site_fract_x
_atom_site_fract_y
_atom_site_fract_z
_atom_type_partial_charge
C1    C     C_R   0.490784 0.263723 0.500443 0.860095
C2    C     C_R   0.193886 0.389661 0.499042 0.533169
C3    C     C_R   0.233661 0.503737 0.501345 -0.153027
C4    C     C_R   0.329263 0.505575 0.500349 0.876428
C5    C     C_R   0.182915 0.614765 0.505130 -0.340809
C6    C     C_R   0.484343 0.064231 0.627123 0.023634
C7    C     C_R   0.478676 0.131266 0.501985 -0.191135
C8    C     C_R   0.459017 0.068018 0.378066 -0.208483
C9    C     C_R   0.460110 0.938373 0.376955 0.577486
C10   C     C_R   0.482764 0.871687 0.499828 -0.180446
C11   C     C_R   0.487189 0.936705 0.625469 -0.113633
C12   C     C_R   0.903053 0.600409 0.505952 0.074240
C13   C     C_3   0.552418 0.927254 0.742355 0.358182
C14   C     C_3   0.548992 0.068228 0.745251 0.406198
C15   C     C_R   0.550103 0.581939 0.072929 0.214100
C16   C     C_R   0.496214 0.737936 0.499699 0.867379
C17   C     C_R   0.445241 0.426908 0.075070 -0.014821
C18   C     C_R   0.445195 0.426964 0.926268 0.020053
C19   C     C_R   0.550051 0.581645 0.925274 0.125985
C20   C     C_3   0.648267 0.591560 0.915387 -0.467477
C21   C     C_3   0.649331 0.590820 0.074663 0.606921
C22   C     C_R   0.671461 0.490574 0.499476 0.817828
C23   C     C_R   0.970930 0.264618 0.494208 -0.240636
C24   C     C_R   0.810900 0.594967 0.506219 -0.277160
C25   C     C_R   0.769067 0.481535 0.497829 -0.024406
C26   C     C_R   0.821266 0.367489 0.488356 0.115432
C27   C     C_R   0.915325 0.373513 0.494954 0.080158
C28   C     C_R   0.955596 0.490156 0.501513 0.065035
C29   C     C_3   0.785378 0.237163 0.470001 -0.443630
C30   C     C_3   0.687759 0.222780 0.452243 -0.800586
C31   C     C_3   0.684213 0.707910 0.146494 -0.406523
C32   C     C_3   0.643513 0.832109 0.095183 -0.837966
C33   C     C_3   0.073566 0.852451 0.512974 -0.419322
C34   C     C_R   0.062203 0.270726 0.496441 -0.138383
C35   C     C_3   0.104269 0.885746 0.659852 -0.782941
C36   C     C_R   0.101844 0.385195 0.499501 0.016669
C37   C     C_R   0.048948 0.496410 0.502754 -0.040069
C38   C     C_R   0.089587 0.613222 0.506344 0.095112
C39   C     C_R   0.035625 0.724024 0.509965 0.171332
C40   C     C_R   0.942995 0.715585 0.510349 -0.225128
Cu1   Cu    Cu3+1 0.500000 0.499980 0.640670 0.987552
Cu2   Cu    Cu3+1 0.500000 0.500020 0.359330 1.016794
F1    F     F_    0.442749 0.879575 0.255211 -0.664848
F2    F     F_    0.634233 0.879178 0.698164 -0.710154
F3    F     F_    0.509183 0.114701 0.866039 -0.658900
F4    F     F_    0.691097 0.483044 0.124661 -0.643204
F5    F     F_    0.245317 0.283211 0.495861 -0.689995
H1    H     H_    0.770744 0.680543 0.511750 0.164791
H2    H     H_    0.217501 0.700880 0.506988 0.168905
H3    H     H_    0.901498 0.799862 0.514067 0.152180
H4    H     H_    0.447143 0.118029 0.280998 0.203772
H5    H     H_    0.655165 0.256686 0.549012 0.234013
H6    H     H_    0.664543 0.271584 0.356239 0.304091
H7    H     H_    0.673816 0.122777 0.440716 0.236607
H8    H     H_    0.816880 0.194518 0.375221 0.227499
H9    H     H_    0.804801 0.180305 0.563084 0.213819
H10   H     H_    0.670838 0.856900 0.991213 0.270865
H11   H     H_    0.570311 0.829191 0.088959 0.297577
H12   H     H_    0.525662 0.882122 0.837583 0.133095
H13   H     H_    0.660395 0.906604 0.169568 0.264521
H14   H     H_    0.671492 0.700995 0.260724 0.229111
H15   H     H_    0.757319 0.708940 0.131934 0.220101
H16   H     H_    0.047270 0.885916 0.734013 0.255396
H17   H     H_    0.156414 0.818664 0.697526 0.255710
H18   H     H_    0.131843 0.979896 0.658391 0.252550
H19   H     H_    0.128753 0.859470 0.436331 0.213222
H20   H     H_    0.022653 0.923784 0.480165 0.194406
H21   H     H_    0.612648 0.111312 0.718427 0.107557
H22   H     H_    0.402251 0.365712 0.131397 0.151866
H23   H     H_    0.402166 0.365827 0.871007 0.172824
H24   H     H_    0.681508 0.507185 0.869730 0.234029
H25   H     H_    0.667491 0.679275 0.864701 0.214898
H26   H     H_    0.945923 0.172074 0.491998 0.138129
H27   H     H_    0.101745 0.184713 0.494939 0.196033
N1    N     N_R   0.500570 0.500930 0.147930 -0.184635
N2    N     N_R   0.500570 0.500890 0.852020 -0.187197
O1    O     O_R   0.500000 0.319640 0.618810 -0.568842
O2    O     O_R   0.500010 0.319680 0.381230 -0.588993
O3    O     O_R   0.370250 0.499950 0.618800 -0.589069
O4    O     O_R   0.370260 0.499990 0.381220 -0.578659
O5    O     O_R   0.499990 0.680320 0.618770 -0.572963
O6    O     O_R   0.500000 0.680360 0.381190 -0.548787
O7    O     O_R   0.629740 0.500010 0.618780 -0.586444
O8    O     O_R   0.629750 0.500050 0.381200 -0.538076

loop_
_geom_bond_atom_site_label_1
_geom_bond_atom_site_label_2
_ccdc_geom_bond_type
C18   H23   S    
C15   N1    A    
Cu2   O4    S    
C1    O1    A    
Cu1   Cu2   S    
C31   H14   S    
C19   C20   S    
Cu2   O6    S    
C32   H11   S    
C7    C8    A    
C15   C19   A    
C30   H7    S    
Cu2   N1    S    
C29   C30   S    
C12   C28   A    
C36   C37   A    
C4    O4    A    
Cu1   O1    S    
C38   C39   A    
C35   H18   S    
Cu1   O7    S    
C8    C9    A    
C22   C25   S    
C20   H24   S    
C35   H17   S    
C23   C27   A    
C9    C10   A    
C5    C38   A    
C1    O2    A    
C31   H15   S    
C5    H2    S    
C32   H10   S    
C23   H26   S    
C33   H19   S    
C14   F3    S    
C30   H6    S    
C9    F1    S    
C24   H1    S    
Cu2   O8    S    
C24   C25   A    
C4    O3    A    
C39   C40   A    
C29   H8    S    
C25   C26   A    
C22   O8    A    
C12   C40   A    
C37   C38   A    
C6    C14   S    
C21   C31   S    
C31   C32   S    
C23   C34   A    
Cu1   O5    S    
C16   O6    A    
C17   C18   A    
C26   C27   A    
C33   C39   S    
C8    H4    S    
C34   H27   S    
Cu2   O2    S    
C32   H13   S    
C3    C4    S    
C6    C11   A    
C33   H20   S    
C21   F4    S    
C2    C36   A    
C30   H5    S    
C17   H22   S    
C19   N2    A    
C18   N2    A    
C1    C7    S    
C3    C5    A    
Cu1   O3    S    
C6    C7    A    
C13   H12   S    
C29   H9    S    
C2    F5    S    
C12   C24   A    
C22   O7    A    
C2    C3    A    
C10   C16   S    
Cu1   N2    S    
C11   C13   S    
C28   C37   A    
C40   H3    S    
C16   O5    A    
C33   C35   S    
C34   C36   A    
C10   C11   A    
C15   C21   S    
C20   C21   S    
C26   C29   S    
C27   C28   A    
C17   N1    A    
C14   H21   S    
C20   H25   S    
C35   H16   S    
C13   C14   S    
C13   F2    S    
