data_mof_unit_pretest_862.cif
_audit_creation_date              2012-12-10T17:37:20-0500
_audit_creation_method            fapswitch 2.2
_symmetry_space_group_name_H-M    P1
_symmetry_Int_Tables_number       1
_space_group_crystal_system       triclinic
_cell_length_a                    12.313977
_cell_length_b                    13.173314
_cell_length_c                    15.837069
_cell_angle_alpha                 78.117554
_cell_angle_beta                  100.964078
_cell_angle_gamma                 116.490874
_cell_volume                      2235.7906958

loop_
_atom_site_label
_atom_site_type_symbol
_atom_type_description
_atom_site_fract_x
_atom_site_fract_y
_atom_site_fract_z
_atom_type_partial_charge
C1    C     C_R   0.854852 0.286602 0.507320 0.771254
C2    C     C_3   0.999783 0.500580 0.917212 0.181274
C3    C     C_3   0.113372 0.568958 0.032575 -0.146576
C4    C     C_3   0.001685 0.500455 0.082896 0.181737
C5    C     C_3   0.032292 0.607742 0.958432 -0.159258
C6    C     C_3   0.920619 0.539237 0.010316 -0.161385
C7    C     C_1   0.998831 0.500476 0.825296 -0.063380
C8    C     C_1   0.002192 0.500335 0.174764 -0.057661
C9    C     C_R   0.274435 0.021896 0.387862 -0.170665
C10   C     C_R   0.227864 0.834449 0.470458 -0.042533
C11   C     C_R   0.815717 0.085395 0.562445 -0.179453
C12   C     C_R   0.999396 0.499906 0.659956 0.825187
C13   C     C_R   0.737079 0.970619 0.579240 -0.139324
C14   C     C_R   0.613533 0.932944 0.549715 -0.168936
C15   C     C_R   0.566312 0.009611 0.499291 0.088683
C16   C     C_R   0.649508 0.123970 0.473788 0.083240
C17   C     C_R   0.439505 0.976277 0.472453 0.089011
C18   C     C_R   0.399258 0.053723 0.414724 0.170022
C19   C     C_R   0.484096 0.160867 0.382505 -0.223227
C20   C     C_R   0.607411 0.194714 0.410210 -0.192063
C21   C     C_R   0.351057 0.868318 0.501691 -0.220103
C22   C     C_R   0.189037 0.912321 0.415122 -0.186341
C23   C     C_R   0.145070 0.713364 0.487601 0.795654
C24   C     C_R   0.772897 0.163692 0.511840 -0.101732
C25   C     C_R   0.329258 0.306398 0.621963 -0.106269
C26   C     C_R   0.760901 0.645573 0.383905 0.047749
C27   C     C_R   0.659145 0.666759 0.350050 -0.296734
C28   C     C_R   0.548142 0.602080 0.385384 -0.005627
C29   C     C_R   0.543983 0.523835 0.463328 -0.072970
C30   C     C_R   0.649504 0.501140 0.492156 0.276375
C31   C     C_R   0.440544 0.465432 0.513085 -0.032301
C32   C     C_R   0.435211 0.371551 0.578268 0.086908
C33   C     C_R   0.538492 0.349463 0.602266 -0.230675
C34   C     C_R   0.000717 0.500229 0.340046 0.819551
C35   C     C_R   0.643636 0.415177 0.562481 -0.173857
C36   C     C_R   0.345062 0.500164 0.504668 0.072568
C37   C     C_R   0.236363 0.343234 0.606146 0.020627
C38   C     C_3   0.969198 0.393305 0.041682 -0.150049
C39   C     C_3   0.888123 0.432086 0.967561 -0.157646
C40   C     C_1   0.998624 0.500266 0.749624 -0.169265
C41   C     C_1   0.001887 0.500242 0.250398 -0.152730
C42   C     C_3   0.080871 0.461804 0.989796 -0.145430
Cu1   Cu    Cu3+1 0.098270 0.475420 0.519690 0.963400
Cu2   Cu    Cu3+1 0.901730 0.524580 0.480310 0.928319
H1    H     H_    0.795671 0.375949 0.939489 0.138171
H2    H     H_    0.375368 0.807684 0.548268 0.143491
H3    H     H_    0.909922 0.113293 0.590986 0.159553
H4    H     H_    0.558297 0.842775 0.565955 0.127055
H5    H     H_    0.771435 0.910841 0.617767 0.146898
H6    H     H_    0.668988 0.275953 0.378992 0.176997
H7    H     H_    0.153687 0.294522 0.637431 0.159986
H8    H     H_    0.542381 0.285150 0.656022 0.183740
H9    H     H_    0.348623 0.577730 0.464198 0.137226
H10   H     H_    0.843933 0.692376 0.352943 0.136898
H11   H     H_    0.943380 0.305322 0.077257 0.138399
H12   H     H_    0.665022 0.728230 0.291925 0.177161
H13   H     H_    0.718747 0.394897 0.589298 0.204096
H14   H     H_    0.854857 0.571014 0.020147 0.136627
H15   H     H_    0.058117 0.695731 0.922867 0.138761
H16   H     H_    0.205800 0.625051 0.060728 0.141919
H17   H     H_    0.146633 0.430023 0.979973 0.142188
H18   H     H_    0.093734 0.887140 0.390236 0.147904
H19   H     H_    0.455097 0.218831 0.335340 0.154588
H20   H     H_    0.243305 0.080662 0.343727 0.140782
N1    N     N_R   0.246280 0.438200 0.549540 -0.200154
N2    N     N_R   0.754330 0.561180 0.450980 -0.203327
O1    O     O_R   0.972510 0.318130 0.524770 -0.583839
O2    O     O_R   0.806530 0.359650 0.491510 -0.603766
O3    O     O_R   0.082970 0.479240 0.637550 -0.568895
O4    O     O_R   0.916990 0.520750 0.604290 -0.594440
O5    O     O_R   0.193470 0.640350 0.508490 -0.591275
O6    O     O_R   0.027490 0.681870 0.475230 -0.587305
O7    O     O_R   0.083010 0.479250 0.395710 -0.542995
O8    O     O_R   0.917030 0.520760 0.362450 -0.593571
C43   C     C_2   0.308924 0.197858 0.681374 0.807526
O9    O     O_2   0.342237 0.129714 0.665627 -0.593015
O10   O     O_R   0.245686 0.170963 0.753333 -0.777968
H21   H     H_    0.235506 0.094100 0.788142 0.334659
C44   C     C_2   0.438304 0.606494 0.330164 0.803743
O11   O     O_2   0.346972 0.517915 0.318933 -0.592631
O12   O     O_R   0.441116 0.711717 0.287844 -0.769678
H22   H     H_    0.361174 0.703564 0.251440 0.329125

loop_
_geom_bond_atom_site_label_1
_geom_bond_atom_site_label_2
_ccdc_geom_bond_type
Cu1   O7    S    
C12   O3    A    
C3    C42   S    
C9    H20   S    
C6    H14   S    
Cu2   N2    S    
C19   C20   A    
C4    C8    S    
O12   H22   S    
O10   H21   S    
C10   C22   A    
C33   H8    S    
C26   C27   A    
C30   C35   A    
C28   C29   A    
C38   C42   S    
C31   C36   A    
C5    C6    S    
C37   H7    S    
C9    C22   A    
C15   C16   A    
C11   C24   A    
C1    O2    A    
C18   C19   A    
C28   C44   S    
C43   O9    D    
C36   H9    S    
C25   C37   A    
C11   H3    S    
C2    C39   S    
C38   H11   S    
C2    C7    S    
C19   H19   S    
C37   N1    A    
C20   H6    S    
C7    C40   T    
Cu2   O4    S    
C16   C20   A    
C39   H1    S    
C3    H16   S    
C25   C32   A    
C16   C24   A    
C13   C14   A    
C34   C41   S    
C26   H10   S    
C10   C21   A    
C5    H15   S    
C26   N2    A    
C23   O5    A    
C8    C41   T    
C4    C6    S    
C44   O12   S    
C27   H12   S    
C14   H4    S    
C17   C21   A    
C25   C43   S    
C12   C40   S    
Cu1   Cu2   S    
C29   C30   A    
C22   H18   S    
C31   C32   A    
C14   C15   A    
Cu1   N1    S    
C17   C18   A    
Cu2   O8    S    
C43   O10   S    
C42   H17   S    
C30   N2    A    
C34   O8    A    
C13   H5    S    
C4    C38   S    
Cu2   O2    S    
C2    C5    S    
C3    C4    S    
C21   H2    S    
C15   C17   A    
C12   O4    A    
Cu1   O5    S    
C36   N1    A    
C23   O6    A    
C3    C5    S    
C1    O1    A    
C10   C23   S    
C35   H13   S    
C32   C33   A    
C29   C31   A    
C11   C13   A    
C38   C39   S    
C2    C42   S    
C33   C35   A    
Cu2   O6    S    
C34   O7    A    
C44   O11   D    
C9    C18   A    
C1    C24   S    
Cu1   O1    S    
C27   C28   A    
C6    C39   S    
Cu1   O3    S    
