data_mof_unit_pretest_355.cif
_audit_creation_date              2012-12-10T17:33:59-0500
_audit_creation_method            fapswitch 2.2
_symmetry_space_group_name_H-M    P1
_symmetry_Int_Tables_number       1
_space_group_crystal_system       triclinic
_cell_length_a                    10.645114
_cell_length_b                    12.012372
_cell_length_c                    12.887557
_cell_angle_alpha                 93.254621
_cell_angle_beta                  89.936303
_cell_angle_gamma                 85.964864
_cell_volume                      1641.21327977

loop_
_atom_site_label
_atom_site_type_symbol
_atom_type_description
_atom_site_fract_x
_atom_site_fract_y
_atom_site_fract_z
_atom_type_partial_charge
C1    C     C_R   0.497332 0.522074 0.700122 0.867577
C2    C     C_R   0.492104 0.448972 0.973997 0.151503
C3    C     C_R   0.544951 0.544179 0.023007 0.074975
C4    C     C_R   0.742267 0.499988 0.501619 0.844613
C5    C     C_R   0.562983 0.549203 0.130420 -0.061034
C6    C     C_R   0.471374 0.368831 0.139277 -0.330905
C7    C     C_R   0.462646 0.357829 0.032171 0.001133
C8    C     C_R   0.363543 0.960080 0.425022 -0.394842
C9    C     C_R   0.378320 0.843427 0.427619 0.154099
C10   C     C_R   0.561973 0.856227 0.530898 -0.066308
C11   C     C_R   0.550705 0.974520 0.528616 0.091087
C12   C     C_3   0.121480 0.499198 0.503512 0.127683
C13   C     C_R   0.450026 0.026284 0.474518 0.094976
C14   C     C_R   0.438192 0.143667 0.470649 -0.040203
C15   C     C_R   0.621070 0.159379 0.573230 0.055871
C16   C     C_R   0.507265 0.478105 0.299721 0.955232
C17   C     C_R   0.636591 0.042554 0.578902 -0.304574
C18   C     C_R   0.257726 0.499890 0.501487 0.845993
C19   C     C_3   0.938372 0.379735 0.520991 -0.359537
C20   C     C_3   0.081014 0.380679 0.524702 -0.371670
C21   C     C_3   0.925188 0.535567 0.398239 -0.385800
C22   C     C_3   0.921879 0.584018 0.591788 -0.144950
C23   C     C_3   0.069271 0.532797 0.396879 -0.415566
C24   C     C_3   0.878825 0.499531 0.504421 0.097963
C25   C     C_2   0.629032 0.642545 0.181870 0.452072
C26   C     C_2   0.422185 0.249796 0.986519 0.376528
C27   C     C_2   0.281969 0.780598 0.373857 0.456370
C28   C     C_2   0.870130 0.564508 0.698246 0.375646
C29   C     C_3   0.067066 0.583010 0.590943 -0.391472
C30   C     C_R   0.517138 0.464289 0.188124 -0.072344
C31   C     C_R   0.503582 0.535611 0.810765 -0.068831
C32   C     C_R   0.577883 0.632429 0.963080 -0.183370
C33   C     C_R   0.556758 0.628090 0.857587 -0.178187
C34   C     C_R   0.467797 0.448832 0.868393 -0.198504
H1    H     H_    0.912097 0.321037 0.455821 0.170060
H2    H     H_    0.715178 0.005987 0.621660 0.145280
H3    H     H_    0.638078 0.815416 0.573396 0.119940
H4    H     H_    0.122325 0.317419 0.465381 0.168811
H5    H     H_    0.892657 0.478913 0.333904 0.203689
H6    H     H_    0.107215 0.471977 0.334204 0.178100
H7    H     H_    0.884586 0.669573 0.573148 0.098724
H8    H     H_    0.094775 0.668755 0.577555 0.153190
H9    H     H_    0.098503 0.616459 0.378726 0.200624
H10   H     H_    0.601394 0.728721 0.166767 0.066924
H11   H     H_    0.358648 0.202768 0.029960 0.067838
H12   H     H_    0.886347 0.621914 0.384598 0.226492
H13   H     H_    0.688029 0.211479 0.611388 0.139532
H14   H     H_    0.184063 0.796879 0.396957 0.004352
H15   H     H_    0.115053 0.355934 0.602360 0.201472
H16   H     H_    0.792639 0.619385 0.730093 0.052524
H17   H     H_    0.108081 0.560287 0.666993 0.190817
H18   H     H_    0.440807 0.302648 0.185205 0.159507
H19   H     H_    0.620989 0.705088 0.995935 0.128657
H20   H     H_    0.585467 0.695308 0.812265 0.148612
H21   H     H_    0.420446 0.381825 0.829278 0.198534
H22   H     H_    0.361845 0.184020 0.428042 0.119266
H23   H     H_    0.903174 0.346945 0.593730 0.215723
H24   H     H_    0.285071 0.998916 0.383395 0.140950
N1    N     N_R   0.523380 0.207800 0.519350 -0.106616
N2    N     N_R   0.476620 0.792180 0.480650 -0.115411
O1    O     O_R   0.506240 0.421700 0.658830 -0.605394
O2    O     O_2   0.465353 0.208512 0.904175 -0.567899
O3    O     O_2   0.308607 0.718040 0.298108 -0.574382
O4    O     O_2   0.911857 0.486812 0.748082 -0.565383
O5    O     O_R   0.491240 0.609310 0.646410 -0.637497
O6    O     O_R   0.692710 0.406190 0.506230 -0.636101
O7    O     O_R   0.677700 0.593810 0.493810 -0.624182
O8    O     O_R   0.508760 0.390690 0.353590 -0.638684
O9    O     O_R   0.493760 0.578300 0.341170 -0.545453
O10   O     O_R   0.322300 0.406190 0.506190 -0.637632
O11   O     O_R   0.307290 0.593810 0.493770 -0.628550
O12   O     O_2   0.715623 0.623104 0.241500 -0.608475
Zn1   Zn    Zn3+2 0.510020 0.374730 0.508290 0.953345
Zn2   Zn    Zn3+2 0.489980 0.625270 0.491710 0.983471

loop_
_geom_bond_atom_site_label_1
_geom_bond_atom_site_label_2
_ccdc_geom_bond_type
C27   H14   S    
C18   O10   A    
C4    O7    A    
C10   N2    A    
C31   C33   A    
C15   N1    A    
C6    C7    A    
C16   O8    A    
C22   C29   S    
C12   C29   S    
O11   Zn2   S    
C20   H4    S    
N1    Zn1   S    
C14   H22   S    
C19   C20   S    
C21   H5    S    
C15   H13   S    
C4    C24   S    
C9    N2    A    
C8    H24   S    
C32   C33   A    
C2    C34   A    
O10   Zn1   S    
C19   C24   S    
C26   O2    D    
C31   C34   A    
C34   H21   S    
O9    Zn2   S    
C25   O12   D    
C22   C28   S    
C13   C14   A    
C19   H23   S    
C4    O6    A    
C14   N1    A    
C11   C13   A    
C12   C23   S    
C12   C20   S    
C20   H15   S    
C7    C26   S    
C27   O3    D    
C10   H3    S    
C5    C25   S    
C28   O4    D    
C25   H10   S    
N2    Zn2   S    
C17   H2    S    
C2    C3    A    
C21   C23   S    
O1    Zn1   S    
C3    C32   A    
C29   H8    S    
C22   C24   S    
C22   H7    S    
C10   C11   A    
C16   O9    A    
C16   C30   S    
C23   H6    S    
C8    C13   A    
C32   H19   S    
C1    C31   S    
C23   H9    S    
C9    C27   S    
C15   C17   A    
C21   H12   S    
C29   H17   S    
C21   C24   S    
C12   C18   S    
C33   H20   S    
O7    Zn2   S    
C11   C17   A    
C19   H1    S    
C18   O11   A    
C26   H11   S    
C6    H18   S    
O8    Zn1   S    
O6    Zn1   S    
C28   H16   S    
C1    O5    A    
C6    C30   A    
O5    Zn2   S    
C2    C7    A    
C5    C30   A    
C8    C9    A    
C3    C5    A    
C1    O1    A    
