data_mof_unit_pretest_1705.cif
_audit_creation_date              2012-12-11T14:52:39-0500
_audit_creation_method            fapswitch 2.2
_symmetry_space_group_name_H-M    P1
_symmetry_Int_Tables_number       1
_space_group_crystal_system       triclinic
_cell_length_a                    20.635903
_cell_length_b                    7.255747
_cell_length_c                    20.349533
_cell_angle_alpha                 89.994478
_cell_angle_beta                  101.576206
_cell_angle_gamma                 89.995377
_cell_volume                      2984.9347202

loop_
_atom_site_label
_atom_site_type_symbol
_atom_type_description
_atom_site_fract_x
_atom_site_fract_y
_atom_site_fract_z
_atom_type_partial_charge
O1    O     O_R   0.673670 0.377510 0.185950 -0.513593
O2    O     O_R   0.326330 0.622490 0.814050 -0.513593
O3    O     O_R   0.826330 0.877510 0.314050 -0.514051
O4    O     O_R   0.173670 0.122490 0.685950 -0.514051
O5    O     O_R   0.806260 0.705340 0.185590 -0.542392
O6    O     O_R   0.193740 0.294660 0.814410 -0.542391
O7    O     O_R   0.693740 0.205340 0.314410 -0.542402
O8    O     O_R   0.306260 0.794660 0.685590 -0.542403
C1    C     C_R   0.825575 0.538601 0.170852 0.714755
C2    C     C_R   0.174425 0.461399 0.829148 0.714756
C3    C     C_R   0.674425 0.038599 0.329148 0.715110
C4    C     C_R   0.325575 0.961401 0.670852 0.715109
O9    O     O_R   0.672940 0.707120 0.178050 -0.514899
O10   O     O_R   0.327060 0.292880 0.821950 -0.514899
O11   O     O_R   0.827060 0.207120 0.321950 -0.515233
O12   O     O_R   0.172940 0.792880 0.678050 -0.515233
O13   O     O_R   0.692060 0.879040 0.306460 -0.525302
O14   O     O_R   0.307940 0.120960 0.693540 -0.525302
O15   O     O_R   0.807940 0.379040 0.193540 -0.525368
O16   O     O_R   0.192060 0.620960 0.806460 -0.525368
C5    C     C_R   0.648714 0.539794 0.161050 0.795893
C6    C     C_R   0.351286 0.460206 0.838950 0.795893
C7    C     C_R   0.851282 0.039763 0.338951 0.794876
C8    C     C_R   0.148718 0.960237 0.661049 0.794876
O17   O     O_3   0.756430 0.544390 0.292140 -0.372070
O18   O     O_3   0.243570 0.455610 0.707860 -0.372070
O19   O     O_3   0.743570 0.044390 0.207860 -0.371482
O20   O     O_3   0.256430 0.955610 0.792140 -0.371482
V1    V     V_3+5 0.748810 0.818610 0.242180 1.683015
V2    V     V_3+5 0.251190 0.181390 0.757820 1.683015
V3    V     V_3+5 0.751190 0.318610 0.257820 1.682566
V4    V     V_3+5 0.248810 0.681390 0.742180 1.682566
C9    C     C_R   0.087524 0.959791 0.607504 -0.296021
C10   C     C_R   0.912476 0.040209 0.392496 -0.296021
C11   C     C_R   0.412469 0.459648 0.892516 -0.296100
C12   C     C_R   0.587531 0.540352 0.107484 -0.296100
C13   C     C_R   0.013271 0.199613 0.447593 -0.105679
C14   C     C_R   0.986729 0.800387 0.552407 -0.105679
C15   C     C_R   0.486933 0.700345 0.052147 -0.106939
C16   C     C_R   0.513067 0.299655 0.947853 -0.106939
C17   C     C_R   0.959011 0.183774 0.394316 0.569087
C18   C     C_R   0.040989 0.816226 0.605684 0.569087
C19   C     C_R   0.541149 0.684443 0.105465 0.570068
C20   C     C_R   0.458851 0.315557 0.894535 0.570068
C21   C     C_R   0.922525 0.909971 0.444953 0.595137
C22   C     C_R   0.077475 0.090029 0.555047 0.595137
C23   C     C_R   0.577351 0.409651 0.055189 0.594586
C24   C     C_R   0.422649 0.590349 0.944811 0.594587
C25   C     C_R   0.977188 0.926676 0.499215 -0.148488
C26   C     C_R   0.022812 0.073324 0.500785 -0.148487
C27   C     C_R   0.522729 0.426414 0.000887 -0.148502
C28   C     C_R   0.477271 0.573586 0.999113 -0.148502
H1    H     H_    0.047637 0.312263 0.447170 0.223437
H2    H     H_    0.952363 0.687737 0.552830 0.223437
H3    H     H_    0.452697 0.813415 0.052413 0.223068
H4    H     H_    0.547303 0.186585 0.947587 0.223068
C29   C     C_3   0.558458 0.059412 0.533978 0.482368
C30   C     C_3   0.441542 0.940588 0.466022 0.482368
C31   C     C_3   0.951263 0.616684 0.974752 0.502338
C32   C     C_3   0.048737 0.383315 0.025248 0.502338
C33   C     C_3   0.522794 0.882676 0.549865 0.503931
C34   C     C_3   0.477206 0.117324 0.450135 0.503931
C35   C     C_3   0.968874 0.439755 0.939917 0.484650
C36   C     C_3   0.031126 0.560245 0.060083 0.484650
C37   C     C_1   0.371054 0.970288 0.625105 -0.083674
C38   C     C_1   0.628946 0.029712 0.374895 -0.083674
C39   C     C_1   0.128943 0.470283 0.874893 -0.083523
C40   C     C_1   0.871057 0.529717 0.125107 -0.083523
C41   C     C_3   0.492615 0.166516 0.525503 0.506028
C42   C     C_3   0.507385 0.833484 0.474497 0.506028
C43   C     C_3   0.025430 0.666698 0.993437 0.505221
C44   C     C_3   0.974570 0.333302 0.006563 0.505221
C45   C     C_3   0.456892 0.989752 0.541438 -0.492475
C46   C     C_3   0.543108 0.010248 0.458562 -0.492475
C47   C     C_3   0.043104 0.489741 0.958559 -0.492528
C48   C     C_3   0.956896 0.510259 0.041441 -0.492528
C49   C     C_1   0.409568 0.978711 0.587250 0.326632
C50   C     C_1   0.590432 0.021288 0.412750 0.326632
C51   C     C_1   0.090428 0.478704 0.912745 0.326678
C52   C     C_1   0.909572 0.521296 0.087254 0.326678
F1    F     F_    0.122141 0.227866 0.555338 -0.650077
F2    F     F_    0.877859 0.772134 0.444662 -0.650077
F3    F     F_    0.378149 0.728734 0.944334 -0.649676
F4    F     F_    0.621851 0.271266 0.055666 -0.649676
F5    F     F_    0.047826 0.690046 0.655907 -0.633898
F6    F     F_    0.952174 0.309954 0.344093 -0.633898
F7    F     F_    0.451909 0.188892 0.844474 -0.633934
F8    F     F_    0.548091 0.811108 0.155526 -0.633934
F9    F     F_    0.546945 0.760748 0.601148 -0.499763
F10   F     F_    0.453055 0.239252 0.398852 -0.499763
F11   F     F_    0.936052 0.377180 0.877981 -0.513340
F12   F     F_    0.063948 0.622820 0.122019 -0.513340
F13   F     F_    0.618668 0.121056 0.569752 -0.514990
F14   F     F_    0.381332 0.878944 0.430248 -0.514990
F15   F     F_    0.901170 0.737852 0.948053 -0.500512
F16   F     F_    0.098830 0.262147 0.051947 -0.500512
F17   F     F_    0.514573 0.660287 0.448544 -0.506108
F18   F     F_    0.485427 0.339713 0.551456 -0.506108
F19   F     F_    0.948672 0.159957 0.012879 -0.506428
F20   F     F_    0.051328 0.840042 0.987121 -0.506428

loop_
_geom_bond_atom_site_label_1
_geom_bond_atom_site_label_2
_ccdc_geom_bond_type
C33   C42   S    
C40   C52   T    
C30   C34   S    
O1    C5    A    
O19   V1    S    
O13   V1    S    
O3    C7    A    
C21   F2    S    
C44   C48   S    
O15   V3    S    
C5    C12   S    
C2    C39   S    
O7    C3    A    
C6    C11   S    
C19   F8    S    
O9    V1    S    
C14   C18   A    
O4    C8    A    
C32   C44   S    
O1    V3    S    
C12   C23   A    
O2    V4    S    
C36   C43   S    
O3    V1    S    
C42   C46   S    
C1    O15   A    
C15   H3    S    
C2    O16   A    
C16   H4    S    
O2    C6    A    
C41   C45   S    
O14   V2    S    
C20   F7    S    
C16   C20   A    
C3    C38   S    
C13   H1    S    
C41   F18   S    
O11   C7    A    
C15   C28   A    
O12   C8    A    
C29   F13   S    
C9    C22   A    
C10   C17   A    
C31   F15   S    
O10   V2    S    
C11   C24   A    
C33   F9    S    
O5    V1    S    
C38   C50   T    
O7    V3    S    
C27   C28   A    
O8    V4    S    
C37   C49   T    
C18   F5    S    
O18   V4    S    
C30   C42   S    
C23   C27   A    
C33   C45   S    
C34   C41   S    
C29   C46   S    
O5    C1    A    
C17   F6    S    
C22   F1    S    
C4    C37   S    
C14   H2    S    
C21   C25   A    
O8    C4    A    
C7    C10   S    
C36   C48   S    
O9    C5    A    
C10   C21   A    
C23   F4    S    
O11   V3    S    
C11   C20   A    
C32   F16   S    
O6    V2    S    
C9    C18   A    
C4    O14   A    
C14   C25   A    
O16   V4    S    
C3    O13   A    
C45   C49   S    
O17   V3    S    
C48   C52   S    
O6    C2    A    
C15   C19   A    
C42   F17   S    
C29   C33   S    
O12   V4    S    
C16   C27   A    
C43   F20   S    
C22   C26   A    
C32   C47   S    
C31   C35   S    
C8    C9    S    
C24   F3    S    
C32   C36   S    
O10   C6    A    
O20   V2    S    
C30   F14   S    
C1    C40   S    
C43   C47   S    
C13   C26   A    
C35   C47   S    
C34   F10   S    
C13   C17   A    
C24   C28   A    
C35   C44   S    
C25   C26   A    
C46   C50   S    
C35   F11   S    
C36   F12   S    
C34   C46   S    
C12   C19   A    
C29   C41   S    
C47   C51   S    
C31   C48   S    
C39   C51   T    
O4    V2    S    
C30   C45   S    
C31   C43   S    
C44   F19   S    
