data_mof_unit_pretest_548.cif
_audit_creation_date              2012-12-11T15:31:37-0500
_audit_creation_method            fapswitch 2.2
_symmetry_space_group_name_H-M    P1
_symmetry_Int_Tables_number       1
_space_group_crystal_system       triclinic
_cell_length_a                    6.939602
_cell_length_b                    14.764788
_cell_length_c                    21.314624
_cell_angle_alpha                 74.620421
_cell_angle_beta                  90.374384
_cell_angle_gamma                 90.428081
_cell_volume                      2105.64479124

loop_
_atom_site_label
_atom_site_type_symbol
_atom_type_description
_atom_site_fract_x
_atom_site_fract_y
_atom_site_fract_z
_atom_type_partial_charge
O1    O     O_R   0.648150 0.130050 0.214300 -0.540156
O2    O     O_R   0.351850 0.869950 0.785700 -0.536142
O3    O     O_R   0.320490 0.006660 0.340150 -0.543110
O4    O     O_R   0.679510 0.993340 0.659850 -0.543451
O5    O     O_R   0.146100 0.869940 0.285700 -0.540424
O6    O     O_R   0.853900 0.130060 0.714300 -0.539851
C1    C     C_R   0.489367 0.001555 0.367163 0.676361
C2    C     C_R   0.510627 0.998396 0.632846 0.675123
O7    O     O_R   0.318690 0.137980 0.218120 -0.541167
O8    O     O_R   0.681310 0.862020 0.781880 -0.540962
O9    O     O_R   0.144280 0.002190 0.162800 -0.542665
O10   O     O_R   0.855720 0.997810 0.837200 -0.541627
C3    C     C_R   0.488227 0.175829 0.205235 0.705474
C4    C     C_R   0.511473 0.824145 0.793942 0.705454
O11   O     O_R   0.649960 0.997790 0.337200 -0.542738
O12   O     O_R   0.350040 0.002210 0.662800 -0.541900
O13   O     O_3   0.479300 0.955290 0.231990 -0.367470
O14   O     O_3   0.520700 0.044710 0.768010 -0.368272
V1    V     V_3+5 0.206040 0.008290 0.253340 1.422502
V2    V     V_3+5 0.793960 0.991710 0.746660 1.424129
O15   O     O_R   0.814320 0.993320 0.159850 -0.538533
O16   O     O_R   0.185680 0.006680 0.840150 -0.540833
C5    C     C_R   0.982516 0.998282 0.132843 0.692503
C6    C     C_R   0.017482 0.001633 0.867179 0.683344
O17   O     O_R   0.816120 0.862000 0.281880 -0.539570
O18   O     O_R   0.183880 0.138000 0.718120 -0.539311
C7    C     C_R   0.985384 0.824306 0.294133 0.704639
C8    C     C_R   0.014800 0.175812 0.706701 0.698392
V3    V     V_3+5 0.705540 0.991700 0.246660 1.435666
V4    V     V_3+5 0.294460 0.008300 0.753340 1.434459
O19   O     O_3   0.982150 0.044700 0.268010 -0.371546
O20   O     O_3   0.017850 0.955300 0.731990 -0.369053
C9    C     C_R   0.001565 0.722870 0.321625 -0.047062
C10   C     C_R   0.002022 0.277502 0.679919 -0.063496
C11   C     C_R   0.149746 0.577652 0.316606 -0.099422
C12   C     C_R   0.884729 0.427241 0.688447 -0.074559
C13   C     C_R   0.098722 0.669854 0.286621 -0.158512
C14   C     C_R   0.920938 0.332623 0.716775 -0.145335
C15   C     C_R   0.955812 0.683392 0.387090 -0.218376
C16   C     C_R   0.047467 0.317121 0.614584 -0.215198
C17   C     C_R   0.012599 0.590605 0.419548 0.079459
C18   C     C_R   0.007591 0.412657 0.583989 0.086232
C19   C     C_R   0.108196 0.537779 0.382416 0.149624
C20   C     C_R   0.923429 0.467114 0.622296 0.131093
C21   C     C_R   0.983275 0.549557 0.487642 0.057773
C22   C     C_R   0.042204 0.454780 0.516424 0.061926
C23   C     C_R   0.134898 0.405412 0.476843 -0.196635
C24   C     C_R   0.900857 0.600578 0.528171 -0.188138
C25   C     C_R   0.167058 0.446311 0.411372 -0.160787
C26   C     C_R   0.873764 0.560279 0.594139 -0.157145
H1    H     H_    0.240849 0.405979 0.383171 0.134007
H2    H     H_    0.809788 0.602192 0.623247 0.127664
H3    H     H_    0.103051 0.269826 0.588449 0.097235
H4    H     H_    0.884319 0.728621 0.411651 0.097543
H5    H     H_    0.881636 0.301813 0.767044 0.126665
H6    H     H_    0.140021 0.700906 0.236531 0.124844
H7    H     H_    0.227530 0.538072 0.288905 0.147347
H8    H     H_    0.820816 0.468739 0.717797 0.161497
H9    H     H_    0.189190 0.335210 0.495116 0.121066
H10   H     H_    0.856829 0.672659 0.510720 0.118202
C27   C     C_3   0.920619 0.920784 0.991526 -0.112365
C28   C     C_3   0.079321 0.078982 0.008538 -0.121499
C29   C     C_3   0.096329 0.925253 0.035917 -0.126683
C30   C     C_3   0.903614 0.074511 0.964153 -0.140603
H11   H     H_    0.175616 0.863677 0.065924 0.124273
H12   H     H_    0.824197 0.136045 0.934169 0.119934
H13   H     H_    0.855038 0.855549 0.984106 0.125646
H14   H     H_    0.144791 0.144167 0.016069 0.126575
C31   C     C_3   0.990727 0.998741 0.062236 -0.025451
C32   C     C_3   0.009231 0.001041 0.937819 -0.029927
C33   C     C_3   0.814823 0.994269 0.018657 -0.103064
C34   C     C_3   0.185133 0.005500 0.981409 -0.114569
H15   H     H_    0.661999 0.989495 0.034351 0.117089
H16   H     H_    0.337958 0.010258 0.965720 0.116291
C35   C     C_3   0.681274 0.994452 0.479590 -0.119408
C36   C     C_3   0.318711 0.005431 0.520432 -0.119310
C37   C     C_3   0.603055 0.073487 0.507725 -0.137241
C38   C     C_3   0.396928 0.926397 0.492295 -0.136630
H17   H     H_    0.687968 0.134200 0.514578 0.106331
H18   H     H_    0.312009 0.865683 0.485444 0.106694
H19   H     H_    0.830855 0.989987 0.462526 0.109265
H20   H     H_    0.169128 0.009892 0.537496 0.109603
C39   C     C_3   0.502382 0.998934 0.562259 -0.006471
C40   C     C_3   0.497603 0.000956 0.437761 -0.006911
C41   C     C_3   0.580661 0.919909 0.534938 -0.141100
C42   C     C_3   0.419322 0.079975 0.465087 -0.141719
H21   H     H_    0.646814 0.853794 0.564188 0.103605
H22   H     H_    0.353162 0.146090 0.435843 0.105341
C43   C     C_R   0.503698 0.277981 0.178347 -0.068288
C44   C     C_R   0.494731 0.722494 0.822057 -0.058729
C45   C     C_R   0.658694 0.424551 0.181432 0.017099
C46   C     C_R   0.398113 0.569236 0.810978 0.022102
C47   C     C_R   0.619532 0.329595 0.209987 -0.218487
C48   C     C_R   0.440944 0.664312 0.783210 -0.217388
C49   C     C_R   0.433607 0.320009 0.115915 -0.189439
C50   C     C_R   0.512677 0.685820 0.889023 -0.188684
C51   C     C_R   0.471326 0.416031 0.084862 0.082606
C52   C     C_R   0.458394 0.591915 0.919945 0.080471
C53   C     C_R   0.568009 0.470831 0.121474 0.003728
C54   C     C_R   0.387801 0.534429 0.880298 0.008280
C55   C     C_R   0.426355 0.457926 0.017679 0.057054
C56   C     C_R   0.474449 0.553715 0.988966 0.053269
C57   C     C_R   0.532270 0.609047 0.030565 -0.225025
C58   C     C_R   0.334109 0.407450 0.978356 -0.230280
C59   C     C_R   0.573372 0.569678 0.096287 -0.003070
C60   C     C_R   0.306209 0.445547 0.911605 -0.010230
H23   H     H_    0.565432 0.733915 0.915365 0.094473
H24   H     H_    0.358797 0.274169 0.092097 0.097373
H25   H     H_    0.437756 0.692954 0.730799 0.128039
H26   H     H_    0.689358 0.293824 0.255398 0.138973
H27   H     H_    0.538952 0.684454 0.013859 0.140048
H28   H     H_    0.272613 0.338975 0.998985 0.139232
C61   C     C_2   0.601737 0.634719 0.138424 0.762438
O21   O     O_2   0.680928 0.710870 0.116852 -0.569264
O22   O     O_R   0.532390 0.610035 0.202216 -0.677859
H29   H     H_    0.559459 0.660072 0.225824 0.295449
C62   C     C_2   0.170813 0.394186 0.878841 0.787678
O23   O     O_2   0.049009 0.437151 0.840972 -0.564030
O24   O     O_R   0.177597 0.296133 0.893550 -0.668510
H30   H     H_    0.076781 0.268911 0.869019 0.277216
C63   C     C_2   0.822723 0.467241 0.208568 0.775584
O25   O     O_2   0.848032 0.448870 0.267428 -0.561491
O26   O     O_R   0.953578 0.525088 0.166258 -0.662769
H31   H     H_    0.062270 0.548546 0.189783 0.297017
C64   C     C_2   0.386527 0.507684 0.766018 0.769594
O27   O     O_2   0.311952 0.536528 0.712306 -0.559670
O28   O     O_R   0.468160 0.418110 0.783997 -0.665261
H32   H     H_    0.451951 0.383281 0.749181 0.296285

loop_
_geom_bond_atom_site_label_1
_geom_bond_atom_site_label_2
_ccdc_geom_bond_type
C27   C32   S    
C29   H11   S    
C55   C56   A    
C44   C48   A    
C2    C39   S    
O13   V3    S    
C5    C31   S    
O4    C2    A    
V1    O19   S    
C46   C64   S    
C58   C60   A    
C6    C32   S    
O26   H31   S    
C23   C25   A    
C21   C22   A    
C7    C9    S    
O9    V1    S    
C9    C15   A    
C10   C16   A    
C59   C61   S    
C11   C13   A    
C36   C38   S    
O3    C1    A    
C62   O24   S    
C38   H18   S    
C35   C40   S    
C15   H4    S    
C37   C39   S    
O12   V4    S    
O22   H29   S    
C57   H27   S    
C18   C22   A    
C30   C33   S    
C31   C33   S    
O7    C3    A    
C4    C44   S    
C28   C30   S    
O5    C7    A    
C13   H6    S    
C35   C41   S    
O6    C8    A    
C14   H5    S    
C29   C31   S    
O8    V2    S    
C25   H1    S    
C50   C52   A    
C26   H2    S    
O3    V1    S    
O14   V4    S    
C30   C32   S    
C11   C19   A    
O14   V2    S    
C47   H26   S    
C24   H10   S    
C27   C33   S    
C41   H21   S    
C1    C40   S    
C8    C10   S    
C2    O12   A    
C17   C19   A    
C18   C20   A    
C36   C39   S    
O1    V3    S    
O18   C8    A    
C51   C53   A    
O7    V1    S    
O11   V3    S    
C37   H17   S    
O17   V3    S    
C53   C59   A    
C34   H16   S    
O8    C4    A    
C36   H20   S    
C33   H15   S    
C19   C25   A    
C1    O11   A    
C52   C56   A    
O15   V3    S    
C9    C13   A    
C28   C31   S    
C30   H12   S    
C43   C49   A    
C45   C47   A    
C27   H13   S    
O10   V2    S    
C46   C48   A    
C28   C34   S    
C57   C59   A    
C24   C26   A    
C35   C37   S    
C63   O25   D    
C38   C41   S    
C39   C41   S    
C50   H23   S    
C37   C42   S    
O18   V4    S    
C55   C58   A    
C52   C54   A    
O15   C5    A    
C60   C62   S    
C64   O27   D    
O16   C6    A    
C12   C20   A    
O1    C3    A    
O2    V4    S    
O28   H32   S    
C36   C42   S    
C46   C54   A    
C58   H28   S    
C61   O21   D    
V2    O20   S    
C21   C24   A    
C20   C26   A    
C22   C23   A    
O16   V4    S    
C3    C43   S    
C10   C14   A    
C54   C60   A    
C27   C29   S    
C35   H19   S    
C40   C42   S    
C16   C18   A    
O24   H30   S    
C49   C51   A    
C44   C50   A    
O5    V1    S    
O17   C7    A    
O6    V2    S    
O10   C6    A    
C48   H25   S    
C12   H8    S    
C28   H14   S    
C11   H7    S    
C12   C14   A    
V3    O19   S    
C62   O23   D    
V4    O20   S    
O9    C5    A    
O13   V1    S    
C42   H22   S    
C43   C47   A    
C56   C57   A    
O2    C4    A    
C63   O26   S    
C49   H24   S    
C23   H9    S    
O4    V2    S    
C38   C40   S    
C29   C34   S    
C15   C17   A    
C16   H3    S    
C45   C63   S    
C64   O28   S    
C17   C21   A    
C32   C34   S    
C45   C53   A    
C51   C55   A    
C61   O22   S    
