data_mof_unit_pretest_1754.cif
_audit_creation_date              2012-12-11T14:24:02-0500
_audit_creation_method            fapswitch 2.2
_symmetry_space_group_name_H-M    P1
_symmetry_Int_Tables_number       1
_space_group_crystal_system       triclinic
_cell_length_a                    6.949295
_cell_length_b                    17.482352
_cell_length_c                    18.883511
_cell_angle_alpha                 105.188603
_cell_angle_beta                  89.361998
_cell_angle_gamma                 90.266992
_cell_volume                      2213.87919438

loop_
_atom_site_label
_atom_site_type_symbol
_atom_type_description
_atom_site_fract_x
_atom_site_fract_y
_atom_site_fract_z
_atom_type_partial_charge
O1    O     O_R   0.494360 0.416740 0.414860 -0.545897
O2    O     O_R   0.818980 0.432970 0.557290 -0.526563
O3    O     O_R   0.994290 0.583260 0.585140 -0.533260
C1    C     C_R   0.649830 0.415990 0.580664 0.753054
O4    O     O_R   0.823740 0.407570 0.413690 -0.547546
O5    O     O_R   0.999090 0.557670 0.440510 -0.525474
C2    C     C_R   0.655143 0.387056 0.385117 0.636569
O6    O     O_R   0.489560 0.442330 0.559490 -0.517671
O7    O     O_3   0.662450 0.549280 0.508970 -0.350347
V1    V     V_3+5 0.935350 0.490860 0.498340 1.463758
O8    O     O_R   0.329100 0.567030 0.442710 -0.528597
C3    C     C_R   0.161109 0.584046 0.419370 0.705908
O9    O     O_R   0.324330 0.592430 0.586310 -0.509518
C4    C     C_R   0.153249 0.613800 0.614460 0.704895
V2    V     V_3+5 0.435960 0.509140 0.501660 1.497452
O10   O     O_3   0.158990 0.450720 0.491030 -0.370227
C5    C     C_2   0.220994 0.758050 0.807767 0.317646
C6    C     C_2   0.129043 0.828183 0.814886 0.178168
C7    C     C_2   0.265148 0.701085 0.735336 0.362028
C8    C     C_2   0.126177 0.677260 0.684476 0.134854
C9    C     C_1   0.110348 0.863818 0.132556 -0.173293
C10   C     C_1   0.118000 0.821231 0.176101 0.024106
C11   C     C_1   0.127737 0.771022 0.227991 0.018864
C12   C     C_1   0.136081 0.728757 0.271802 0.017131
C13   C     C_1   0.145805 0.678570 0.323712 0.017390
C14   C     C_1   0.153435 0.636022 0.367294 -0.193968
C15   C     C_1   0.640936 0.364097 0.632730 -0.189518
C16   C     C_1   0.636611 0.321516 0.676307 0.026015
C17   C     C_1   0.633136 0.271261 0.728179 0.024048
C18   C     C_1   0.630554 0.228917 0.771972 0.024878
C19   C     C_1   0.627082 0.178650 0.823834 0.029815
C20   C     C_1   0.622766 0.136045 0.867391 -0.173048
C21   C     C_2   0.778326 0.209102 0.218510 0.405859
C22   C     C_2   0.614190 0.177022 0.184636 -0.267694
H1    H     H_    0.475994 0.194448 0.211028 0.142452
C23   C     C_2   0.774206 0.269612 0.291630 -0.250631
C24   C     C_2   0.641682 0.327548 0.312512 0.181549
H2    H     H_    0.892862 0.268259 0.328288 0.096839
O11   O     O_R   0.774180 0.057760 0.940580 -0.524679
O12   O     O_R   0.439830 0.092440 0.086330 -0.546822
O13   O     O_R   0.264640 0.942310 0.059470 -0.525266
C25   C     C_R   0.608331 0.113980 0.114391 0.732295
O14   O     O_R   0.444740 0.067040 0.942730 -0.530161
O15   O     O_R   0.269590 0.916730 0.914840 -0.528967
C26   C     C_R   0.613893 0.084099 0.919413 0.724568
O16   O     O_R   0.769230 0.083340 0.085210 -0.506603
O17   O     O_3   0.601340 0.950770 0.991070 -0.354582
V3    V     V_3+5 0.328370 0.009130 0.001660 1.526996
O18   O     O_R   0.939550 0.907490 0.913620 -0.522170
C27   C     C_R   0.110234 0.886183 0.886492 0.775731
O19   O     O_R   0.934640 0.932890 0.057220 -0.530589
C28   C     C_R   0.102640 0.915858 0.080543 0.731790
V4    V     V_3+5 0.827780 0.990750 0.998250 1.562300
O20   O     O_3   0.104690 0.049230 0.008930 -0.361976
Cl1   Cl    Cl    0.294989 0.730210 0.886859 -0.571499
Cl2   Cl    Cl    0.081434 0.866196 0.738869 -0.617630
Cl3   Cl    Cl    0.496422 0.657818 0.724699 -0.556902
O21   O     O_3   0.942090 0.706282 0.703451 -0.586319
H3    H     H_    0.865113 0.699820 0.658435 0.353891
O22   O     O_3   0.954383 0.182229 0.187067 -0.633726
H4    H     H_    0.057740 0.212413 0.218202 0.287490
O23   O     O_3   0.497907 0.333932 0.264243 -0.648850
H5    H     H_    0.422995 0.382830 0.285325 0.291654

loop_
_geom_bond_atom_site_label_1
_geom_bond_atom_site_label_2
_ccdc_geom_bond_type
O5    V1    S    
O2    C1    A    
O8    C3    A    
C1    O6    A    
O23   H5    S    
O1    V2    S    
O9    C4    A    
C21   O22   S    
O14   V3    S    
C5    Cl1   S    
O13   C28   A    
O12   C25   A    
C19   C20   T    
C22   C25   S    
C6    Cl2   S    
O17   V4    S    
C13   C14   T    
C1    C15   S    
C23   H2    S    
C21   C22   D    
O7    V2    S    
O4    V1    S    
O3    V1    S    
O11   V4    S    
V4    O20   S    
C7    Cl3   S    
V3    O20   S    
O15   V3    S    
O14   C26   A    
C17   C18   T    
O3    C4    A    
C25   O16   A    
C22   H1    S    
O18   V4    S    
O16   V4    S    
C9    C10   T    
C23   C24   D    
C5    C7    S    
O13   V3    S    
C5    C6    D    
O6    V2    S    
O9    V2    S    
O5    C3    A    
C18   C19   S    
C20   C26   S    
C11   C12   T    
C8    O21   S    
V2    O10   S    
O2    V1    S    
O17   V3    S    
C4    C8    S    
C21   C23   S    
O19   C28   A    
C12   C13   S    
C6    C27   S    
O12   V3    S    
O18   C27   A    
O7    V1    S    
O15   C27   A    
C15   C16   T    
O4    C2    A    
C24   O23   S    
C10   C11   S    
C16   C17   S    
C2    C24   S    
V1    O10   S    
O21   H3    S    
O1    C2    A    
O8    V2    S    
O11   C26   A    
C9    C28   S    
C7    C8    D    
C3    C14   S    
O22   H4    S    
O19   V4    S    
