data_mof_unit_pretest_65.cif
_audit_creation_date              2013-03-05T15:43:55-0500
_audit_creation_method            fapswitch 2.2
_symmetry_space_group_name_H-M    P1
_symmetry_Int_Tables_number       1
_space_group_crystal_system       triclinic
_cell_length_a                    8.322123
_cell_length_b                    15.101462
_cell_length_c                    18.927474
_cell_angle_alpha                 99.841864
_cell_angle_beta                  91.840886
_cell_angle_gamma                 99.236544
_cell_volume                      2308.99524241

loop_
_atom_site_label
_atom_site_type_symbol
_atom_site_description
_atom_site_fract_x
_atom_site_fract_y
_atom_site_fract_z
_atom_type_partial_charge
P1    P     P_3+3 0.038110 0.412300 0.335300 0.479987
O1    O     O_2   0.871030 0.438240 0.324420 -0.358395
O2    O     O_3   0.120590 0.445310 0.413740 -0.386399
O3    O     O_3   0.663040 0.605930 0.370050 -0.383320
O4    O     O_2   0.756029 0.529671 0.244077 -0.420862
O5    O     O_3   0.973197 0.294106 0.305490 -0.563216
O6    O     O_3   0.723406 0.697700 0.248214 -0.564332
H1    H     H_    0.704227 0.773128 0.350542 0.118374
C1    C     C_3   0.774294 0.861086 0.274488 -0.928844
H2    H     H_    0.905964 0.865097 0.288041 0.286762
H3    H     H_    0.755583 0.862860 0.216143 0.257461
P2    P     P_3+3 0.679950 0.711710 0.558590 0.468851
P3    P     P_3+3 0.136546 0.771554 0.406353 0.451053
O7    O     O_2   0.855660 0.723510 0.537160 -0.362679
O8    O     O_3   0.086340 0.654970 0.406630 -0.361930
O9    O     O_2   0.998308 0.816651 0.442667 -0.390793
O10   O     O_3   0.701029 0.741679 0.652414 -0.559764
O11   O     O_3   0.119635 0.785928 0.316360 -0.562486
C2    C     C_3   0.092401 0.700593 0.270509 0.498876
H4    H     H_    0.980875 0.658200 0.283300 0.182712
H5    H     H_    0.193109 0.662358 0.276087 0.045907
C3    C     C_3   0.075832 0.713611 0.192734 -0.953223
H6    H     H_    0.039658 0.646116 0.157075 0.227631
H7    H     H_    0.980626 0.755875 0.185632 0.288392
C4    C     C_3   0.251052 0.745399 0.630953 0.396375
H8    H     H_    0.370887 0.724713 0.620447 0.094212
H9    H     H_    0.165950 0.724725 0.582346 0.119618
C5    C     C_3   0.275465 0.848748 0.652297 -0.931102
H10   H     H_    0.361467 0.871469 0.700515 0.275114
H11   H     H_    0.326185 0.881610 0.607867 0.228520
H12   H     H_    0.156843 0.870877 0.664631 0.267547
Ba1   Ba    Ba6+2 0.854120 0.540280 0.465540 1.559357
C6    C     C_3   0.040782 0.240905 0.348711 0.588612
H13   H     H_    0.170478 0.269811 0.364714 0.102182
C7    C     C_3   0.029673 0.143196 0.305457 -0.703108
H14   H     H_    0.904397 0.118742 0.279554 0.192812
H15   H     H_    0.051761 0.096053 0.342678 0.177918
C8    C     C_3   0.731770 0.667244 0.682531 0.449425
H16   H     H_    0.845169 0.645481 0.662438 0.091964
H17   H     H_    0.628379 0.609586 0.669667 0.130571
C9    C     C_3   0.752633 0.696715 0.763876 -0.981787
H18   H     H_    0.861741 0.750806 0.778521 0.277745
H19   H     H_    0.768349 0.638097 0.790025 0.217859
H20   H     H_    0.642760 0.723771 0.784288 0.261484
P4    P     P_3+3 0.151600 0.587780 0.664700 0.460086
O12   O     O_2   0.318670 0.561790 0.675630 -0.376193
O13   O     O_3   0.069120 0.554770 0.586270 -0.401624
O14   O     O_3   0.526680 0.394150 0.629950 -0.349430
O15   O     O_3   0.186306 0.706894 0.687872 -0.563208
P5    P     P_3+3 0.065139 0.229013 0.597797 0.479673
O16   O     O_3   0.607620 0.388570 0.462320 -0.402662
O17   O     O_3   0.103380 0.345110 0.593380 -0.373227
O18   O     O_2   0.189069 0.183238 0.551500 -0.385779
O19   O     O_3   0.115527 0.218564 0.685980 -0.481740
Ba2   Ba    Ba6+2 0.335710 0.459790 0.534460 1.559270
P6    P     P_3+3 0.640406 0.594640 0.275016 0.415323
C10   C     C_3   0.676355 0.773263 0.292324 0.749957
H21   H     H_    0.736939 0.923086 0.306774 0.220442
O20   O     O_3   0.582100 0.611510 0.537680 -0.435891
C11   C     C_3   0.519800 0.288594 0.314913 0.480137
H22   H     H_    0.396265 0.306262 0.309530 0.053671
H23   H     H_    0.608550 0.350576 0.336249 0.175488
C12   C     C_3   0.572053 0.253517 0.240694 -0.958525
H24   H     H_    0.479753 0.197529 0.211357 0.267126
H25   H     H_    0.585749 0.309908 0.209812 0.208703
H26   H     H_    0.689865 0.228815 0.244721 0.285436
P7    P     P_3+3 0.518561 0.272686 0.449201 0.447309
O21   O     O_2   0.334040 0.276520 0.462890 -0.364058
O22   O     O_3   0.519263 0.221738 0.358343 -0.580701
H27   H     H_    0.193676 0.748135 0.176383 0.250769
C13   C     C_3   0.036957 0.279926 0.731594 0.448294
H28   H     H_    0.095739 0.351877 0.731081 0.119060
H29   H     H_    0.904561 0.271017 0.714706 -0.023870
C14   C     C_3   0.051221 0.262331 0.808177 -0.810764
H30   H     H_    0.178166 0.292275 0.832886 0.277518
H31   H     H_    0.959915 0.295945 0.841472 0.212089
H32   H     H_    0.025457 0.186787 0.807854 0.286033
P8    P     P_3+3 0.551730 0.404148 0.723070 0.458838
C15   C     C_3   0.561987 0.238732 0.740442 0.185303
H33   H     H_    0.678938 0.266940 0.772164 0.045876
O23   O     O_2   0.443860 0.473092 0.754692 -0.388458
O24   O     O_3   0.455730 0.302827 0.747728 -0.490133
H34   H     H_    0.585309 0.219614 0.682708 0.124023
C16   C     C_3   0.482343 0.153880 0.769267 -0.520942
H35   H     H_    0.354887 0.134160 0.745337 0.197383
C17   C     C_R   0.992194 0.456532 0.044873 0.009270
C18   C     C_R   0.887723 0.415732 0.091890 0.107115
C19   C     C_R   0.724044 0.381714 0.068737 -0.165081
C20   C     C_R   0.664918 0.387199 0.999958 -0.185256
C21   C     C_R   0.769208 0.424369 0.951857 0.146116
C22   C     C_R   0.933212 0.459850 0.974256 0.021797
C23   C     C_R   0.711848 0.425054 0.881546 -0.235131
C24   C     C_R   0.816942 0.458353 0.831384 -0.038980
C25   C     C_R   0.979854 0.499118 0.854635 0.000378
C26   C     C_R   0.037237 0.499336 0.926381 -0.015291
C27   C     C_R   0.764769 0.450686 0.758404 0.153332
C28   C     C_R   0.873507 0.484084 0.710191 -0.535595
C29   C     C_R   0.029856 0.532548 0.732984 0.271021
C30   C     C_R   0.084855 0.540182 0.806719 -0.052682
C31   C     C_R   0.154874 0.493913 0.068317 -0.021762
C32   C     C_R   0.212040 0.493857 0.139995 0.000622
C33   C     C_R   0.104771 0.454378 0.188500 -0.014027
C34   C     C_R   0.946444 0.411409 0.161678 -0.102231
H36   H     H_    0.640426 0.351696 0.103925 0.135897
H37   H     H_    0.537601 0.360916 0.983956 0.153394
H38   H     H_    0.831685 0.477193 0.654488 0.173393
H39   H     H_    0.585265 0.397243 0.866287 0.179081
H40   H     H_    0.865448 0.377058 0.195508 0.178894
C35   C     C_R   0.241735 0.585836 0.834265 -0.127209
C36   C     C_R   0.301563 0.581300 0.903811 0.111176
C37   C     C_R   0.199205 0.537896 0.950134 0.009257
C38   C     C_R   0.258472 0.534585 0.020719 0.027925
C39   C     C_R   0.463692 0.618826 0.927603 -0.165709
C40   C     C_R   0.523367 0.613800 0.996520 -0.187750
C41   C     C_R   0.421313 0.572753 0.043731 0.120837
C42   C     C_R   0.375631 0.534875 0.163171 0.001485
C43   C     C_R   0.479283 0.571210 0.113861 -0.240854
C44   C     C_R   0.428246 0.541599 0.235801 0.142242
C45   C     C_R   0.316668 0.508385 0.282800 -0.482041
C46   C     C_R   0.158659 0.462693 0.262385 0.139609
H41   H     H_    0.321270 0.623274 0.801629 0.172156
H42   H     H_    0.545084 0.651530 0.892660 0.138951
H43   H     H_    0.649226 0.643095 0.013251 0.140841
H44   H     H_    0.604988 0.600592 0.129828 0.190841
C47   C     C_R   0.752225 0.241054 0.548283 -0.463027
C48   C     C_R   0.851583 0.180441 0.565696 0.208816
C49   C     C_R   0.796899 0.085629 0.546237 -0.248678
C50   C     C_R   0.635028 0.050924 0.516027 0.141202
C51   C     C_R   0.535734 0.116355 0.507230 -0.229731
C52   C     C_R   0.601740 0.207634 0.511726 0.320506
C53   C     C_R   0.420127 0.912660 0.450807 0.079831
C54   C     C_R   0.341202 0.822407 0.452072 0.265386
C55   C     C_R   0.579066 0.793527 0.516925 0.309626
C56   C     C_R   0.649058 0.885590 0.524281 -0.321094
C57   C     C_R   0.568299 0.949005 0.495474 0.066901
C58   C     C_R   0.420663 0.766229 0.487200 -0.476581
H45   H     H_    0.883174 0.041232 0.553510 0.141220
H46   H     H_    0.763224 0.906737 0.555757 0.157001
H47   H     H_    0.407797 0.098516 0.492962 0.178501
H48   H     H_    0.356239 0.701054 0.494283 0.198790
H49   H     H_    0.799725 0.313240 0.555249 0.163657
C59   C     C_3   0.936609 0.235117 0.413546 -0.828302
H50   H     H_    0.806226 0.205015 0.394162 0.232178
H51   H     H_    0.985474 0.190151 0.446995 0.215257
H52   H     H_    0.939627 0.303739 0.446532 0.250486
C60   C     C_2   0.149931 0.134833 0.248205 1.100411
O25   O     O_2   0.151812 0.181017 0.200844 -0.633605
O26   O     O_R   0.253203 0.069694 0.247449 -0.783111
H53   H     H_    0.315233 0.061038 0.201975 0.317534
C61   C     C_3   0.494443 0.773144 0.277851 -0.973138
H54   H     H_    0.454790 0.738256 0.221122 0.252307
H55   H     H_    0.429016 0.736319 0.317223 0.230198
H56   H     H_    0.463873 0.843703 0.284798 0.254945
C62   C     C_2   0.568563 0.073691 0.745749 0.973596
O27   O     O_2   0.633338 0.037757 0.790202 -0.584137
O28   O     O_R   0.571564 0.039408 0.672103 -0.808706
H57   H     H_    0.632255 0.985831 0.662783 0.326373
C63   C     C_2   0.478157 0.175929 0.850263 1.079678
O29   O     O_2   0.347727 0.185193 0.877896 -0.640485
O30   O     O_R   0.623908 0.187032 0.893453 -0.768543
H58   H     H_    0.604532 0.198490 0.946628 0.327016
C64   C     C_2   0.364718 0.529059 0.356991 1.140560
O31   O     O_2   0.355517 0.603481 0.390369 -0.674238
O32   O     O_R   0.439795 0.468935 0.387328 -0.793494
H59   H     H_    0.501102 0.503172 0.432799 0.399336
C65   C     C_3   0.348917 0.965042 0.399402 -0.873073
H60   H     H_    0.305112 0.922137 0.347577 0.286229
H61   H     H_    0.241343 0.992247 0.421862 0.249199
H62   H     H_    0.441847 0.018943 0.384523 0.251490

loop_
_geom_bond_atom_site_label_1
_geom_bond_atom_site_label_2
_geom_bond_distance
_ccdc_geom_bond_type
O14   Ba2   2.776450 S    
C63   O30   1.411322 S    
C18   C19   1.404090 A    
C12   H25   1.105959 S    
C48   C49   1.411587 A    
Ba2   O20   2.809597 S    
C9    H18   1.112148 S    
O4    P6    1.540864 D    
C2    H4    1.098436 S    
C58   H48   1.074457 S    
C50   C51   1.412960 A    
Ba2   O21   2.863538 S    
O8    Ba1   2.775241 S    
P4    O12   1.521334 D    
C4    C5    1.522408 S    
P5    O19   1.747257 S    
C14   H31   1.130224 S    
P3    O11   1.757580 S    
C11   C12   1.517199 S    
C11   O22   1.406261 S    
O1    Ba1   2.866270 S    
O32   H59   1.001668 S    
C2    H5    1.103389 S    
C43   H44   1.080483 S    
C1    H21   1.121038 S    
C53   C57   1.446956 A    
C17   C22   1.420767 A    
C15   C16   1.539000 S    
C30   C35   1.412843 A    
C42   C43   1.411056 A    
C11   H23   1.102004 S    
P1    O1    1.520947 D    
O14   P8    1.745871 S    
C44   C45   1.400446 A    
C23   C24   1.412313 A    
C6    C7    1.547382 S    
C39   C40   1.399386 A    
P2    O20   1.577477 S    
O2    Ba2   2.813259 S    
C47   C52   1.387056 A    
O19   C13   1.410281 S    
C37   C38   1.420954 A    
C53   C65   1.516632 S    
C47   H49   1.082210 S    
C41   C43   1.402944 A    
C61   H56   1.121915 S    
O12   Ba2   2.867014 S    
C55   C58   1.386676 A    
P5    O17   1.747800 S    
C34   H40   1.078193 S    
P5    C48   1.850818 S    
C17   C31   1.406735 A    
C1    H2    1.107031 S    
Ba1   Ba2   4.583895 S    
C60   O26   1.404946 S    
O17   Ba2   2.775812 S    
C12   H26   1.108408 S    
C62   O28   1.404049 S    
P2    Ba1   3.422691 S    
C65   H61   1.110766 S    
C9    H19   1.108370 S    
C59   H52   1.110768 S    
C65   H60   1.094914 S    
C33   C34   1.408838 A    
C16   C62   1.514805 S    
O6    P6    1.761824 S    
C45   C64   1.415366 S    
C3    H27   1.113514 S    
C19   H36   1.079375 S    
C28   C29   1.401811 A    
C64   O32   1.371770 S    
P4    O13   1.579572 S    
P5    O18   1.545723 D    
C14   H30   1.132212 S    
C39   H42   1.083140 S    
P7    O21   1.574022 D    
C32   C33   1.436708 A    
C2    C3    1.522918 S    
O26   H53   1.017912 S    
C8    C9    1.523980 S    
C50   C57   1.528296 S    
P8    C27   1.856779 S    
C13   H29   1.117742 S    
C16   C63   1.514916 S    
C17   C18   1.411616 A    
O11   C2    1.405883 S    
O16   Ba2   2.935896 S    
C4    H8    1.105994 S    
C14   H32   1.125390 S    
P1    Ba1   3.423505 S    
C36   C37   1.410377 A    
C11   H22   1.108660 S    
P1    O2    1.579737 S    
C7    C60   1.501755 S    
O28   H57   1.014370 S    
C63   O29   1.237564 D    
P2    O10   1.751862 S    
Ba1   O16   2.810041 S    
C61   H55   1.109777 S    
H1    C10   1.119154 S    
C13   C14   1.522016 S    
C55   C56   1.400076 A    
P8    O24   1.752978 S    
C23   H39   1.080038 S    
C21   C23   1.401608 A    
C51   H47   1.069437 S    
P4    O15   1.751232 S    
C54   C58   1.394207 A    
C10   C61   1.529458 S    
C6    H13   1.108973 S    
O2    Ba1   2.935282 S    
C24   C25   1.418417 A    
O16   P7    1.759765 S    
C16   H35   1.113797 S    
C1    H3    1.115751 S    
C36   C39   1.404525 A    
C62   O27   1.230383 D    
O3    Ba1   2.777094 S    
C60   O25   1.225314 D    
C18   C34   1.409304 A    
C28   H38   1.082059 S    
P2    O7    1.521087 D    
C31   C38   1.414659 A    
C24   C27   1.414443 A    
P2    C55   1.864658 S    
P3    O8    1.743961 S    
C47   C48   1.399563 A    
Ba1   O13   2.812786 S    
C3    H7    1.112672 S    
P7    C52   1.846056 S    
C40   H43   1.084031 S    
C53   C54   1.419299 A    
C59   H51   1.116426 S    
C33   C46   1.433238 A    
C27   C28   1.403521 A    
O13   Ba2   2.936260 S    
C64   O31   1.206690 D    
C5    H10   1.111314 S    
C7    H15   1.114515 S    
C59   H50   1.130340 S    
P6    C44   1.889047 S    
C5    H12   1.111203 S    
O7    Ba1   2.863476 S    
C12   H24   1.103106 S    
C56   H46   1.077406 S    
C15   O24   1.405285 S    
C45   C46   1.392663 A    
C40   C41   1.404691 A    
C56   C57   1.423961 A    
C6    C59   1.531615 S    
C4    H9    1.111064 S    
P1    C46   1.921769 S    
C61   H54   1.125799 S    
O5    C6    1.404013 S    
P4    C29   1.890502 S    
O30   H58   1.014286 S    
C5    H11   1.109010 S    
C51   C52   1.386683 A    
C13   H28   1.119515 S    
C26   C37   1.406304 A    
C35   C36   1.408906 A    
C8    H17   1.109665 S    
P8    O23   1.539369 D    
C35   H41   1.079285 S    
C21   C22   1.407153 A    
C8    H16   1.105961 S    
C25   C30   1.428228 A    
C31   C32   1.423369 A    
C9    H20   1.113980 S    
P3    C54   1.870191 S    
C42   C44   1.411093 A    
C1    C10   1.536544 S    
O10   C8    1.398534 S    
C25   C26   1.424236 A    
C4    O15   1.392816 S    
C22   C26   1.412639 A    
C15   H33   1.109573 S    
C15   H34   1.113061 S    
C19   C20   1.397318 A    
P4    Ba2   3.424142 S    
C65   H62   1.109166 S    
C29   C30   1.434420 A    
P3    O9    1.549842 D    
C20   H37   1.084063 S    
P1    O5    1.767101 S    
C32   C42   1.423945 A    
C3    H6    1.112820 S    
C7    H14   1.115952 S    
C49   H45   1.078761 S    
Ba1   O20   2.936732 S    
P7    O22   1.760454 S    
C20   C21   1.402252 A    
O6    C10   1.411126 S    
C38   C41   1.408528 A    
O3    P6    1.778529 S    
C49   C50   1.427494 A    
