data_mof_unit_pretest_1185.cif
_audit_creation_date              2012-12-10T16:55:49-0500
_audit_creation_method            fapswitch 2.2
_symmetry_space_group_name_H-M    P1
_symmetry_Int_Tables_number       1
_space_group_crystal_system       triclinic
_cell_length_a                    7.85387
_cell_length_b                    8.550811
_cell_length_c                    10.5472
_cell_angle_alpha                 91.936969
_cell_angle_beta                  85.728285
_cell_angle_gamma                 93.530878
_cell_volume                      704.705635538

loop_
_atom_site_label
_atom_site_type_symbol
_atom_type_description
_atom_site_fract_x
_atom_site_fract_y
_atom_site_fract_z
_atom_type_partial_charge
C1    C     C_R   0.545312 0.794276 0.496738 0.953905
C2    C     C_3   0.505892 0.506822 0.875194 -0.093390
C3    C     C_3   0.339364 0.461145 0.044484 0.042929
C4    C     C_3   0.660333 0.538758 0.955655 0.074960
C5    C     C_2   0.569052 0.957911 0.494844 -0.365424
C6    C     C_2   0.430927 0.042076 0.504916 -0.374052
C7    C     C_R   0.454681 0.205720 0.503180 0.958367
C8    C     C_R   0.502865 0.506013 0.741488 0.906374
C9    C     C_R   0.497115 0.493885 0.258523 0.899939
C10   C     C_3   0.395538 0.607649 0.968590 0.054110
C11   C     C_3   0.604174 0.392261 0.031376 0.086354
C12   C     C_3   0.550233 0.639532 0.048129 0.036091
C13   C     C_3   0.449464 0.360357 0.951921 0.034048
C14   C     C_3   0.494007 0.493021 0.124837 -0.094956
H1    H     H_    0.699703 0.008530 0.485269 0.181139
H2    H     H_    0.809199 0.327291 0.119297 0.199542
H3    H     H_    0.093582 0.399186 0.013188 0.181016
H4    H     H_    0.168053 0.306814 0.132330 0.161841
H5    H     H_    0.905639 0.602014 0.987342 0.193720
H6    H     H_    0.831393 0.692889 0.867372 0.166223
H7    H     H_    0.908784 0.248308 0.388814 0.180385
H8    H     H_    0.100138 0.331647 0.351755 0.200738
H9    H     H_    0.091221 0.751629 0.611300 0.180447
H10   H     H_    0.899727 0.668394 0.648113 0.199335
H11   H     H_    0.300274 0.991457 0.514476 0.179274
H12   H     H_    0.626449 0.869264 0.028830 0.196723
H13   H     H_    0.503008 0.830592 0.162137 0.187792
H14   H     H_    0.364202 0.132810 0.971837 0.188365
H15   H     H_    0.285548 0.221474 0.851085 0.188313
H16   H     H_    0.224319 0.771685 0.017014 0.187466
H17   H     H_    0.190595 0.672450 0.880498 0.203893
H18   H     H_    0.775138 0.228060 0.982806 0.195191
N1    N     N_2   0.950320 0.457950 0.465730 -0.001112
N2    N     N_3   0.990175 0.686866 0.571976 -0.340743
N3    N     N_2   0.049680 0.542050 0.534270 -0.002436
N4    N     N_3   0.605460 0.791119 0.103226 -0.452262
N5    N     N_3   0.397171 0.208023 0.896690 -0.450916
N6    N     N_3   0.285639 0.727714 0.933164 -0.466717
N7    N     N_3   0.714026 0.272114 0.066710 -0.464376
N8    N     N_3   0.165381 0.416686 0.092419 -0.455110
N9    N     N_3   0.834345 0.583437 0.907935 -0.459063
N10   N     N_3   0.009864 0.313159 0.427993 -0.342092
O1    O     O_R   0.389250 0.738570 0.508410 -0.625961
O2    O     O_R   0.610750 0.261430 0.491590 -0.623375
O3    O     O_R   0.678390 0.711620 0.486450 -0.616052
O4    O     O_R   0.321610 0.288380 0.513550 -0.622116
O5    O     O_R   0.355460 0.513510 0.697030 -0.630000
O6    O     O_R   0.644540 0.486490 0.302970 -0.618369
O7    O     O_R   0.644600 0.486560 0.675070 -0.620670
O8    O     O_R   0.355400 0.513440 0.324930 -0.625504
Zn1   Zn    Zn3+2 0.306940 0.517990 0.514670 0.958281
Zn2   Zn    Zn3+2 0.693060 0.482010 0.485330 0.967935

loop_
_geom_bond_atom_site_label_1
_geom_bond_atom_site_label_2
_ccdc_geom_bond_type
C2    C4    S    
C9    C14   S    
C6    C7    S    
H13   N4    S    
C12   N4    S    
C13   N5    S    
C3    C13   S    
H17   N6    S    
C10   N6    S    
O7    Zn2   S    
C1    O3    A    
O2    Zn2   S    
H6    N9    S    
C8    O5    A    
C3    C10   S    
C7    O2    A    
N1    Zn2   S    
C11   N7    S    
C11   C13   S    
O1    Zn1   S    
H8    N10   S    
C3    C14   S    
C10   C12   S    
H14   N5    S    
C1    C5    S    
N1    N10   S    
O4    Zn1   S    
H12   N4    S    
N1    N3    D    
C12   C14   S    
C3    N8    S    
O8    Zn1   S    
N3    Zn1   S    
C5    C6    D    
C11   C14   S    
H10   N2    S    
C5    H1    S    
C6    H11   S    
C4    C12   S    
C4    N9    S    
H2    N7    S    
H7    N10   S    
C2    C10   S    
C7    O4    A    
O6    Zn2   S    
H16   N6    S    
C9    O6    A    
N2    N3    S    
H18   N7    S    
H15   N5    S    
C2    C13   S    
H4    N8    S    
H9    N2    S    
O5    Zn1   S    
O3    Zn2   S    
C8    O7    A    
C1    O1    A    
C2    C8    S    
C9    O8    A    
H5    N9    S    
C4    C11   S    
H3    N8    S    
