data_mof_unit_pretest_1469.cif
_audit_creation_date              2012-12-10T16:37:24-0500
_audit_creation_method            fapswitch 2.2
_symmetry_space_group_name_H-M    P1
_symmetry_Int_Tables_number       1
_space_group_crystal_system       triclinic
_cell_length_a                    16.698344
_cell_length_b                    16.846818
_cell_length_c                    16.661955
_cell_angle_alpha                 65.726641
_cell_angle_beta                  65.920678
_cell_angle_gamma                 65.846924
_cell_volume                      3733.27218537

loop_
_atom_site_label
_atom_site_type_symbol
_atom_type_description
_atom_site_fract_x
_atom_site_fract_y
_atom_site_fract_z
_atom_type_partial_charge
C1    C     C_R   0.400642 0.047133 0.664759 -0.313406
C2    C     C_R   0.401879 0.666818 0.041210 -0.309092
C3    C     C_3   0.376261 0.734578 0.209128 -0.301609
C4    C     C_3   0.882720 0.684091 0.195238 -0.275553
C5    C     C_3   0.123304 0.308963 0.823199 -0.287703
C6    C     C_R   0.964453 0.591200 0.340651 -0.351838
C7    C     C_R   0.104267 0.391888 0.643435 -0.345674
C8    C     C_R   0.991777 0.171860 0.427149 0.972702
C9    C     C_R   0.039866 0.820679 0.561450 0.951256
C10   C     C_R   0.179594 0.437923 0.962124 0.944521
C11   C     C_R   0.820378 0.561660 0.038657 0.949353
C12   C     C_R   0.438580 0.960722 0.179863 0.922221
C13   C     C_R   0.561364 0.039310 0.820135 0.933594
C14   C     C_R   0.562135 0.820299 0.037847 0.914834
C15   C     C_R   0.599144 0.952993 0.334695 -0.312314
C16   C     C_R   0.438058 0.179632 0.961845 0.926499
C17   C     C_R   0.041321 0.560808 0.820286 0.949554
C18   C     C_R   0.963534 0.437422 0.180030 0.953853
C19   C     C_R   0.820236 0.039493 0.561182 0.948729
C20   C     C_R   0.179792 0.960243 0.438928 0.964058
C21   C     C_R   0.440328 0.076614 0.702720 0.544441
C22   C     C_R   0.559559 0.923245 0.296994 0.543474
C23   C     C_R   0.084927 0.708238 0.436828 0.554272
C24   C     C_R   0.082689 0.253583 0.489414 0.526983
C25   C     C_R   0.703341 0.441905 0.077960 0.552064
C26   C     C_R   0.058620 0.667425 0.395985 -0.355788
C27   C     C_R   0.297749 0.557345 0.922006 0.546381
C28   C     C_R   0.296813 0.920776 0.561300 0.560675
C29   C     C_R   0.703808 0.075074 0.439608 0.537099
C30   C     C_R   0.558929 0.294184 0.928854 0.551575
C31   C     C_R   0.441129 0.704942 0.070936 0.544334
C32   C     C_R   0.937332 0.548982 0.301992 0.552208
C33   C     C_R   0.107107 0.437945 0.696204 0.538353
C34   C     C_R   0.539421 0.029585 0.539012 0.011944
C35   C     C_R   0.460654 0.969639 0.460989 0.017656
C36   C     C_R   0.066582 0.533064 0.526180 0.013211
C37   C     C_R   0.105922 0.300047 0.526064 -0.334016
C38   C     C_R   0.030813 0.445020 0.437395 0.017667
C39   C     C_R   0.539467 0.540462 0.028272 0.013731
C40   C     C_R   0.459959 0.459567 0.972216 0.014618
C41   C     C_R   0.586273 0.016638 0.451012 0.020602
C42   C     C_R   0.414089 0.982031 0.549059 0.050107
C43   C     C_R   0.080814 0.438645 0.560244 0.034822
C44   C     C_R   0.014244 0.540080 0.405262 0.034175
C45   C     C_R   0.451841 0.586950 0.014267 0.016786
C46   C     C_R   0.547547 0.413569 0.985657 0.039322
C47   C     C_R   0.548661 0.982413 0.413776 0.017840
C48   C     C_R   0.662530 0.401412 0.051257 -0.356519
C49   C     C_R   0.451339 0.017047 0.586027 0.018742
C50   C     C_R   0.413870 0.548188 0.981832 0.018917
C51   C     C_R   0.585186 0.452046 0.018712 0.039837
C52   C     C_R   0.072245 0.393978 0.509138 0.029120
C53   C     C_R   0.043477 0.581828 0.442904 0.038796
C54   C     C_R   0.536528 0.064395 0.669807 -0.034810
C55   C     C_R   0.463410 0.935152 0.330232 -0.030186
C56   C     C_R   0.075628 0.671237 0.532878 -0.005413
C57   C     C_R   0.028995 0.304422 0.425924 -0.019530
C58   C     C_R   0.670205 0.537561 0.063472 -0.002638
C59   C     C_R   0.335428 0.597865 0.950748 -0.312749
C60   C     C_R   0.329784 0.461485 0.937322 -0.036280
C61   C     C_R   0.329749 0.934806 0.464641 0.018845
C62   C     C_R   0.670505 0.063946 0.535901 -0.031748
C63   C     C_R   0.462987 0.327978 0.939919 0.003083
C64   C     C_R   0.537173 0.671625 0.060570 -0.028632
C65   C     C_R   0.965866 0.452472 0.324816 0.000924
C66   C     C_R   0.084323 0.534526 0.665009 -0.001879
C67   C     C_R   0.589054 0.063894 0.720039 -0.116009
C68   C     C_R   0.410831 0.935954 0.279971 -0.125523
C69   C     C_R   0.067629 0.721529 0.588597 -0.094675
C70   C     C_R   0.336208 0.950789 0.600761 -0.367879
C71   C     C_R   0.994584 0.264649 0.389702 -0.100553
C72   C     C_R   0.720420 0.589667 0.062830 -0.086720
C73   C     C_R   0.279363 0.409435 0.938591 -0.113319
C74   C     C_R   0.279720 0.935329 0.411689 -0.080110
C75   C     C_R   0.720423 0.063830 0.588625 -0.126093
C76   C     C_R   0.410338 0.278780 0.939022 -0.101072
C77   C     C_R   0.589866 0.721025 0.060894 -0.123388
C78   C     C_R   0.953830 0.404776 0.278314 -0.079865
C79   C     C_R   0.070722 0.588961 0.719352 -0.109062
C80   C     C_R   0.677359 0.069084 0.677071 -0.298511
C81   C     C_R   0.665597 0.045536 0.400259 -0.312688
C82   C     C_R   0.322520 0.930860 0.322952 -0.326926
C83   C     C_R   0.069343 0.678897 0.678426 -0.328455
C84   C     C_R   0.957533 0.315343 0.317842 -0.331749
C85   C     C_R   0.678048 0.677869 0.066451 -0.324355
C86   C     C_R   0.321825 0.321556 0.934383 -0.318031
C87   C     C_R   0.581962 0.053122 0.581358 -0.062081
C88   C     C_R   0.418081 0.946151 0.418855 -0.073826
C89   C     C_R   0.075673 0.579465 0.574753 -0.070389
C90   C     C_R   0.008383 0.400716 0.396277 -0.072086
C91   C     C_R   0.582209 0.583151 0.050877 -0.070556
C92   C     C_R   0.598611 0.335026 0.956496 -0.352301
C93   C     C_R   0.417663 0.416287 0.949881 -0.068592
C94   C     C_3   0.377774 0.213623 0.731792 -0.315151
C95   C     C_3   0.621736 0.786468 0.267301 -0.307158
C96   C     C_3   0.114170 0.826765 0.300692 -0.275975
C97   C     C_3   0.110794 0.118025 0.604807 -0.241593
C98   C     C_3   0.820813 0.307626 0.112352 -0.281858
C99   C     C_3   0.271230 0.612147 0.782413 -0.318794
C100  C     C_3   0.206273 0.855172 0.708560 -0.316677
C101  C     C_3   0.733944 0.211799 0.373269 -0.291445
C102  C     C_3   0.692814 0.174892 0.900869 -0.259453
H1    H     H_    0.328093 0.053971 0.694476 0.154989
H2    H     H_    0.329699 0.697065 0.046331 0.163508
H3    H     H_    0.940950 0.664363 0.325489 0.152202
H4    H     H_    0.118920 0.319181 0.669158 0.143313
H5    H     H_    0.716225 0.068344 0.716171 0.193296
H6    H     H_    0.283416 0.932319 0.283696 0.191081
H7    H     H_    0.060683 0.719019 0.719844 0.194837
H8    H     H_    0.937857 0.283143 0.286998 0.188208
H9    H     H_    0.717290 0.716400 0.065187 0.187956
H10   H     H_    0.282557 0.283047 0.935653 0.191683
H11   H     H_    0.352986 0.245793 0.669700 0.169329
H12   H     H_    0.671519 0.946810 0.304481 0.161420
H13   H     H_    0.444885 0.224087 0.715613 0.158006
H14   H     H_    0.328138 0.248887 0.783916 0.212725
H15   H     H_    0.555411 0.776580 0.279448 0.148019
H16   H     H_    0.642721 0.754335 0.331688 0.172397
H17   H     H_    0.674120 0.750697 0.216515 0.199917
H18   H     H_    0.039091 0.852939 0.309262 0.142861
H19   H     H_    0.151159 0.789064 0.248546 0.156722
H20   H     H_    0.139761 0.886689 0.274267 0.190050
H21   H     H_    0.049116 0.156100 0.649063 0.110588
H22   H     H_    0.173781 0.108329 0.619641 0.135930
H23   H     H_    0.058592 0.697226 0.324926 0.144958
H24   H     H_    0.101979 0.050253 0.626101 0.211909
H25   H     H_    0.848296 0.316386 0.037021 0.135771
H26   H     H_    0.784697 0.254356 0.148650 0.154429
H27   H     H_    0.880376 0.283316 0.138902 0.193161
H28   H     H_    0.283597 0.544335 0.776888 0.163854
H29   H     H_    0.335541 0.632649 0.748741 0.167483
H30   H     H_    0.221367 0.661265 0.743884 0.203156
H31   H     H_    0.172684 0.920053 0.726719 0.121210
H32   H     H_    0.265098 0.812150 0.737348 0.179086
H33   H     H_    0.154158 0.817867 0.741010 0.201362
H34   H     H_    0.153870 0.261157 0.566002 0.156946
H35   H     H_    0.717391 0.224386 0.439540 0.154853
H36   H     H_    0.672339 0.242807 0.348036 0.167844
H37   H     H_    0.786273 0.246435 0.322303 0.207661
H38   H     H_    0.680015 0.148763 0.976884 0.138315
H39   H     H_    0.748499 0.208051 0.867285 0.136467
H40   H     H_    0.716901 0.115201 0.875569 0.186776
H41   H     H_    0.441960 0.721921 0.220820 0.146105
H42   H     H_    0.354827 0.671233 0.240836 0.170168
H43   H     H_    0.323357 0.785146 0.244669 0.208464
H44   H     H_    0.956102 0.682027 0.160183 0.142450
H45   H     H_    0.686886 0.328898 0.062065 0.147260
H46   H     H_    0.847068 0.735418 0.233609 0.156113
H47   H     H_    0.849655 0.706384 0.140735 0.192047
H48   H     H_    0.169093 0.252826 0.792234 0.155980
H49   H     H_    0.049853 0.317052 0.836094 0.136926
H50   H     H_    0.134419 0.288505 0.890934 0.199440
H51   H     H_    0.306148 0.670172 0.941980 0.160808
H52   H     H_    0.309720 0.945361 0.672925 0.143501
H53   H     H_    0.695793 0.051354 0.327779 0.161627
H54   H     H_    0.671305 0.309916 0.948250 0.146680
O1    O     O_R   0.982940 0.138950 0.510160 -0.603512
O2    O     O_R   0.982940 0.510160 0.138950 -0.603041
O3    O     O_R   0.861050 0.017060 0.489840 -0.570313
O4    O     O_R   0.138950 0.982940 0.510160 -0.576894
O5    O     O_R   0.867700 0.025880 0.612340 -0.643574
O6    O     O_R   0.132300 0.974120 0.387660 -0.650418
O7    O     O_R   0.025880 0.612340 0.867700 -0.624604
O8    O     O_R   0.974120 0.387660 0.132300 -0.636769
O9    O     O_R   0.612340 0.867700 0.025880 -0.625225
O10   O     O_R   0.387660 0.132300 0.974120 -0.625047
O11   O     O_R   0.387660 0.974120 0.132300 -0.626096
O12   O     O_R   0.017060 0.861050 0.489840 -0.598137
O13   O     O_R   0.612340 0.025880 0.867700 -0.639736
O14   O     O_R   0.132300 0.387660 0.974120 -0.638421
O15   O     O_R   0.867700 0.612340 0.025880 -0.641213
O16   O     O_R   0.974120 0.132300 0.387660 -0.634843
O17   O     O_R   0.025880 0.867700 0.612340 -0.633339
O18   O     O_3   0.382176 0.120577 0.768948 -0.603648
O19   O     O_3   0.617865 0.879378 0.230699 -0.602955
O20   O     O_3   0.133992 0.772178 0.384913 -0.607877
O21   O     O_3   0.120075 0.159574 0.509107 -0.593324
O22   O     O_3   0.762980 0.390098 0.132496 -0.606755
O23   O     O_R   0.138950 0.510160 0.982940 -0.581166
O24   O     O_3   0.233544 0.614317 0.874586 -0.605613
O25   O     O_3   0.233580 0.870402 0.612685 -0.609812
O26   O     O_3   0.770654 0.118130 0.380865 -0.601712
O27   O     O_3   0.612763 0.234848 0.875155 -0.597606
O28   O     O_3   0.382069 0.770777 0.114727 -0.600565
O29   O     O_3   0.871756 0.598068 0.254091 -0.610518
O30   O     O_3   0.146923 0.390692 0.768278 -0.612502
O31   O     O_R   0.861050 0.489840 0.017060 -0.597598
O32   O     O_R   0.510160 0.982940 0.138950 -0.578043
O33   O     O_R   0.489840 0.017060 0.861050 -0.575305
O34   O     O_R   0.489840 0.861050 0.017060 -0.572855
O35   O     O_R   0.510160 0.138950 0.982940 -0.598468
O36   O     O_R   0.017060 0.489840 0.861050 -0.596211
Zn1   Zn    Zn3+2 0.004880 0.004880 0.583590 0.951358
Zn2   Zn    Zn3+2 0.995120 0.995120 0.416410 0.982016
Zn3   Zn    Zn3+2 0.004880 0.583590 0.004880 0.975138
Zn4   Zn    Zn3+2 0.995120 0.416410 0.995120 0.931974
Zn5   Zn    Zn3+2 0.583590 0.004880 0.004880 0.978431
Zn6   Zn    Zn3+2 0.416410 0.995120 0.995120 1.029469

loop_
_geom_bond_atom_site_label_1
_geom_bond_atom_site_label_2
_ccdc_geom_bond_type
O33   Zn6   S    
C36   C89   A    
O3    Zn2   S    
C39   C51   A    
C11   O15   A    
C31   O28   S    
C64   C77   A    
O16   Zn2   S    
C17   C79   S    
C40   C93   A    
C35   C47   A    
C12   O11   A    
C55   C68   A    
C101  H37   S    
C23   C56   A    
O23   Zn3   S    
C95   H15   S    
C101  H36   S    
C1    C21   A    
C66   C79   A    
C12   C68   S    
C80   H5    S    
C5    H50   S    
C96   H19   S    
C11   O31   A    
C10   O23   A    
O36   Zn4   S    
C16   O35   A    
C9    C69   S    
C97   H22   S    
C27   C60   A    
C13   C67   S    
C54   C87   A    
O31   Zn4   S    
C10   C73   S    
C43   C52   A    
C23   C26   A    
C46   C92   A    
C63   C76   A    
C12   O32   A    
C48   H45   S    
C60   C73   A    
C42   C70   A    
C13   O33   A    
C19   O5    A    
C14   C77   S    
C21   O18   S    
C55   C88   A    
C35   C42   A    
C95   O19   S    
C36   C53   A    
C17   O7    A    
C18   O8    A    
C44   C53   A    
O11   Zn6   S    
C15   C22   A    
C16   O10   A    
C24   C57   A    
C25   O22   S    
C83   H7    S    
C69   C83   A    
C9    O17   A    
C33   O30   S    
C102  H39   S    
C82   H6    S    
C98   O22   S    
C58   C91   A    
C1    H1    S    
C100  H33   S    
C39   C45   A    
C60   C93   A    
C13   O13   A    
C41   C81   A    
C2    C45   A    
O12   Zn2   S    
C30   C63   A    
C7    C33   A    
C34   C41   A    
C5    O30   S    
C74   C82   A    
C8    O1    A    
C39   C91   A    
C18   O2    A    
C94   H11   S    
C100  H32   S    
C33   C66   A    
C22   O19   S    
C66   C89   A    
C48   C51   A    
C17   O36   A    
C59   H51   S    
C65   C90   A    
C15   H12   S    
C29   O26   S    
C67   C80   A    
O5    Zn1   S    
C3    H41   S    
C27   O24   S    
O15   Zn3   S    
C57   C90   A    
C56   C69   A    
C37   C52   A    
C101  H35   S    
C11   C72   S    
C23   O20   S    
C95   H17   S    
C46   C51   A    
C84   H8    S    
C5    H48   S    
C2    C31   A    
C26   H23   S    
C70   H52   S    
C4    O29   S    
C40   C46   A    
C28   O25   S    
O10   Zn6   S    
C38   C44   A    
C4    H47   S    
C61   C88   A    
O9    Zn5   S    
C35   C88   A    
C97   O21   S    
O7    Zn3   S    
C18   C78   S    
C4    H44   S    
O6    Zn2   S    
C24   C37   A    
C41   C47   A    
C7    H4    S    
C20   C74   S    
C92   H54   S    
C102  H38   S    
C57   C71   A    
C14   O9    A    
C100  O25   S    
C25   C48   A    
C94   O18   S    
C32   O29   S    
C30   C92   A    
C56   C89   A    
C29   C81   A    
C3    H43   S    
C7    C43   A    
O17   Zn1   S    
C20   O6    A    
O1    Zn1   S    
C62   C75   A    
C25   C58   A    
C50   C59   A    
C26   C53   A    
C76   C86   A    
C81   H53   S    
C100  H31   S    
O34   Zn6   S    
O13   Zn5   S    
C71   C84   A    
C3    O28   S    
C2    H2    S    
C63   C93   A    
C29   C62   A    
C98   H25   S    
C34   C49   A    
C94   H14   S    
C65   C78   A    
C96   O20   S    
C99   H28   S    
C95   H16   S    
C16   C76   S    
C31   C64   A    
C96   H18   S    
C9    O12   A    
C28   C70   A    
C3    H42   S    
O35   Zn5   S    
C97   H24   S    
C85   H9    S    
C99   H30   S    
C94   H13   S    
O8    Zn4   S    
C30   O27   S    
C22   C55   A    
C54   C67   A    
C96   H20   S    
C61   C74   A    
C10   O14   A    
C62   C87   A    
C38   C90   A    
C37   H34   S    
O2    Zn3   S    
C5    H49   S    
C99   H29   S    
C21   C54   A    
C68   C82   A    
C19   C75   S    
C19   O3    A    
C99   O24   S    
C97   H21   S    
C27   C59   A    
C28   C61   A    
C79   C83   A    
O14   Zn4   S    
C58   C72   A    
C72   C85   A    
O32   Zn5   S    
C40   C50   A    
C98   H27   S    
C98   H26   S    
C6    H3    S    
C34   C87   A    
C73   C86   A    
C36   C43   A    
C42   C49   A    
C77   C85   A    
C14   O34   A    
C78   C84   A    
C86   H10   S    
C75   C80   A    
C38   C52   A    
C6    C32   A    
C20   O4    A    
C24   O21   S    
O4    Zn1   S    
C15   C47   A    
C6    C44   A    
C45   C50   A    
C102  H40   S    
C64   C91   A    
C1    C49   A    
C102  O27   S    
C101  O26   S    
C8    O16   A    
C32   C65   A    
C8    C71   S    
C4    H46   S    
