data_mof_unit_pretest_800.cif
_audit_creation_date              2012-12-11T14:08:35-0500
_audit_creation_method            fapswitch 2.2
_symmetry_space_group_name_H-M    P1
_symmetry_Int_Tables_number       1
_space_group_crystal_system       triclinic
_cell_length_a                    10.939622
_cell_length_b                    10.948461
_cell_length_c                    18.73494
_cell_angle_alpha                 90.380061
_cell_angle_beta                  90.094875
_cell_angle_gamma                 60.308742
_cell_volume                      1949.26439497

loop_
_atom_site_label
_atom_site_type_symbol
_atom_type_description
_atom_site_fract_x
_atom_site_fract_y
_atom_site_fract_z
_atom_type_partial_charge
C1    C     C_R   0.237241 0.645275 0.608960 0.535200
C2    C     C_2   0.778833 0.158542 0.707921 -0.135084
C3    C     C_2   0.182948 0.662241 0.681635 -0.102307
C4    C     C_R   0.653294 0.623747 0.601119 0.542969
C5    C     C_2   0.195079 0.662683 0.839642 -0.089423
C6    C     C_2   0.193877 0.560935 0.799933 -0.109445
C7    C     C_2   0.223349 0.548569 0.723073 -0.157020
C8    C     C_2   0.666125 0.682659 0.330609 -0.104924
C9    C     C_2   0.673860 0.683212 0.173601 -0.092022
C10   C     C_2   0.787008 0.632322 0.217046 -0.146864
C11   C     C_2   0.781669 0.606275 0.292284 -0.166721
C12   C     C_3   0.660433 0.562711 0.800752 -0.377621
C13   C     C_2   0.634050 0.194467 0.319269 -0.089058
C14   C     C_2   0.638128 0.199200 0.164850 -0.108594
C15   C     C_2   0.524494 0.225001 0.201999 -0.168159
C16   C     C_R   0.627971 0.228246 0.602023 0.549912
C17   C     C_2   0.518288 0.252440 0.277670 -0.150472
C18   C     C_2   0.122478 0.680397 0.344710 -0.108451
C19   C     C_2   0.113558 0.691206 0.190663 -0.101316
C20   C     C_2   0.042749 0.803900 0.233958 -0.148163
C21   C     C_2   0.075212 0.799551 0.309104 -0.163918
C22   C     C_R   0.702999 0.102894 0.897882 0.593523
C23   C     C_3   0.701029 0.677381 0.811885 0.067977
C24   C     C_R   0.724990 0.689279 0.887919 0.595437
C25   C     C_R   0.119136 0.706277 0.907459 0.588212
C26   C     C_R   0.673448 0.113467 0.101587 0.543286
C27   C     C_R   0.699310 0.692658 0.098567 0.543919
C28   C     C_R   0.215673 0.651165 0.404438 0.557560
C29   C     C_R   0.086477 0.713434 0.115361 0.543363
C30   C     C_R   0.644460 0.626850 0.396008 0.558296
C31   C     C_R   0.614350 0.233028 0.393647 0.553441
C32   C     C_3   0.580428 0.819176 0.782531 0.314972
C33   C     C_3   0.559998 0.808611 0.701733 -0.087292
C34   C     C_3   0.665870 0.653223 0.676375 -0.021175
C35   C     C_3   0.838701 0.638024 0.769917 0.273057
C36   C     C_3   0.401044 0.867916 0.687284 -0.393013
C37   C     C_3   0.817454 0.625153 0.689971 -0.210990
C38   C     C_3   0.642093 0.546643 0.720868 -0.265385
C39   C     C_2   0.674460 0.157053 0.670528 0.372592
C40   C     C_2   0.688234 0.170105 0.828974 -0.032053
C41   C     C_2   0.798818 0.123782 0.784387 -0.085028
Cr1   Cr    Cr6+3 0.393010 0.398050 0.501480 1.028487
Cr2   Cr    Cr6+3 0.398820 0.707980 0.501630 1.008760
Cr3   Cr    Cr6+3 0.708140 0.393940 0.496850 1.011989
Cr4   Cr    Cr6+3 0.937950 0.938450 0.008940 1.028154
Cr5   Cr    Cr6+3 0.626180 0.937030 0.994750 1.065419
Cr6   Cr    Cr6+3 0.937790 0.625760 0.001410 1.029933
F1    F     F_    0.608866 0.927487 0.794686 -0.527199
F2    F     F_    0.594116 0.108099 0.700416 -0.601877
F3    F     F_    0.879145 0.738398 0.781030 -0.595324
H1    H     H_    0.719604 0.437436 0.704677 0.144718
H2    H     H_    0.482727 0.845233 0.812815 0.101477
H3    H     H_    0.125975 0.767655 0.704179 0.133936
H4    H     H_    0.891945 0.595814 0.195750 0.161083
H5    H     H_    0.872379 0.515059 0.314727 0.151042
H6    H     H_    0.567525 0.721448 0.193015 0.094113
H7    H     H_    0.578859 0.778481 0.309432 0.111546
H8    H     H_    0.440810 0.211180 0.179039 0.155738
H9    H     H_    0.413505 0.316243 0.300072 0.155199
H10   H     H_    0.717715 0.220202 0.187236 0.107304
H11   H     H_    0.739722 0.130413 0.298184 0.085929
H12   H     H_    0.925481 0.535205 0.788756 0.114266
H13   H     H_    0.970343 0.906926 0.212371 0.155112
H14   H     H_    0.078429 0.889503 0.331826 0.153211
H15   H     H_    0.187208 0.586855 0.210008 0.083842
H16   H     H_    0.110552 0.594287 0.323288 0.098301
H17   H     H_    0.589296 0.879264 0.673188 0.230733
H18   H     H_    0.836457 0.700956 0.659297 0.166060
H19   H     H_    0.743389 0.460549 0.822539 0.129395
H20   H     H_    0.560599 0.591388 0.829426 0.106642
H21   H     H_    0.536053 0.559791 0.710726 0.136404
H22   H     H_    0.373018 0.902337 0.631260 0.182150
H23   H     H_    0.897136 0.517748 0.671687 0.104022
H24   H     H_    0.367136 0.791326 0.701837 0.134109
H25   H     H_    0.337459 0.965178 0.719261 0.132294
H26   H     H_    0.905202 0.055089 0.803276 0.146309
H27   H     H_    0.849045 0.189009 0.682858 0.078533
H28   H     H_    0.582355 0.240098 0.809768 0.148898
H29   H     H_    0.163383 0.489195 0.822958 0.151258
H30   H     H_    0.278279 0.443213 0.700375 0.170385
H31   H     H_    0.232471 0.729423 0.816988 0.081250
O1    O     O_R   0.507110 0.256280 0.580300 -0.478348
O2    O     O_R   0.837080 0.593860 0.915300 -0.534704
O3    O     O_R   0.064770 0.636080 0.932550 -0.482715
O4    O     O_R   0.280830 0.527190 0.577940 -0.498585
O5    O     O_R   0.068250 0.829200 0.092940 -0.515236
O6    O     O_R   0.799650 0.057040 0.080330 -0.514669
O7    O     O_R   0.586130 0.079760 0.077080 -0.522239
O8    O     O_R   0.627700 0.809630 0.066580 -0.503334
O9    O     O_R   0.816140 0.597180 0.075920 -0.522677
O10   O     O_R   0.045360 0.639170 0.081440 -0.512948
O11   O     O_3   0.833980 0.833750 0.001700 -0.247178
O12   O     O_R   0.524640 0.695370 0.425100 -0.497289
O13   O     O_R   0.261360 0.738990 0.584270 -0.531250
O14   O     O_R   0.532590 0.694780 0.574370 -0.509847
O15   O     O_R   0.744470 0.503750 0.577000 -0.525258
O16   O     O_R   0.698520 0.277230 0.571620 -0.541895
O17   O     O_R   0.498530 0.256920 0.419280 -0.518428
O18   O     O_R   0.272880 0.527780 0.428680 -0.508823
O19   O     O_R   0.252780 0.739630 0.423250 -0.509278
O20   O     O_R   0.735890 0.504390 0.415980 -0.511875
O21   O     O_R   0.690560 0.277820 0.422350 -0.494760
O22   O     O_3   0.499990 0.499990 0.499980 -0.250742
O23   O     O_R   0.089190 0.825870 0.932320 -0.518061
O24   O     O_R   0.819070 0.053960 0.931440 -0.511091
O25   O     O_R   0.607070 0.076440 0.916460 -0.451306
O26   O     O_R   0.647110 0.806550 0.917690 -0.460288

loop_
_geom_bond_atom_site_label_1
_geom_bond_atom_site_label_2
_ccdc_geom_bond_type
C12   H19   S    
C34   C37   S    
Cr6   O11   S    
C19   C20   D    
Cr1   O1    S    
Cr1   O22   S    
Cr2   O13   S    
Cr5   O8    S    
C12   C23   S    
C9    C27   S    
C36   H25   S    
C24   O2    A    
C30   O12   A    
C3    C7    D    
Cr1   O17   S    
C5    C6    D    
C16   O16   A    
Cr5   O11   S    
C2    C41   S    
C9    H6    S    
C18   C21   D    
C37   H18   S    
C33   C36   S    
C27   O9    A    
C31   O17   A    
Cr4   O11   S    
C32   H2    S    
C21   H14   S    
C12   H20   S    
Cr2   O12   S    
C4    O15   A    
C2    C39   D    
C26   O6    A    
C25   O3    A    
Cr2   O14   S    
C23   C24   S    
C27   O8    A    
Cr6   O2    S    
C9    C10   D    
C28   O19   A    
C32   F1    S    
Cr3   O22   S    
Cr4   O24   S    
Cr5   O7    S    
C1    O4    A    
C4    C34   S    
C31   O21   A    
C18   C28   S    
Cr2   O19   S    
Cr1   O4    S    
Cr3   O21   S    
C1    O13   A    
C38   H1    S    
C22   O25   A    
C1    C3    S    
Cr3   O15   S    
Cr4   O23   S    
C8    H7    S    
C4    O14   A    
C5    H31   S    
Cr3   O16   S    
C22   C40   S    
Cr5   O26   S    
C35   F3    S    
C16   O1    A    
C33   C34   S    
C24   O26   A    
Cr6   O3    S    
C14   C26   S    
C29   O5    A    
C36   H24   S    
C17   H9    S    
C5    C25   S    
C28   O18   A    
C40   C41   D    
C39   F2    S    
C23   C35   S    
Cr6   O9    S    
C40   H28   S    
C19   C29   S    
C29   O10   A    
C11   H5    S    
C33   H17   S    
C35   C37   S    
C15   C17   S    
C37   H23   S    
C38   H21   S    
Cr4   O6    S    
C34   C38   S    
Cr6   O10   S    
C13   C31   S    
Cr3   O20   S    
C25   O23   A    
C6    C7    S    
C18   H16   S    
C22   O24   A    
C14   H10   S    
C13   C17   D    
C8    C30   S    
C23   C32   S    
C20   H13   S    
Cr4   O5    S    
C2    H27   S    
Cr1   O18   S    
C32   C33   S    
C41   H26   S    
C3    H3    S    
C6    H29   S    
C8    C11   D    
Cr5   O25   S    
C30   O20   A    
C15   H8    S    
C19   H15   S    
C35   H12   S    
C12   C38   S    
C10   H4    S    
Cr2   O22   S    
C10   C11   S    
C16   C39   S    
C13   H11   S    
C20   C21   S    
C26   O7    A    
C14   C15   D    
C36   H22   S    
C7    H30   S    
