data_mof_unit_pretest_322.cif
_audit_creation_date              2012-12-10T19:07:07-0500
_audit_creation_method            fapswitch 2.2
_symmetry_space_group_name_H-M    P1
_symmetry_Int_Tables_number       1
_space_group_crystal_system       triclinic
_cell_length_a                    27.800565
_cell_length_b                    10.868716
_cell_length_c                    9.537819
_cell_angle_alpha                 90.888026
_cell_angle_beta                  90.054572
_cell_angle_gamma                 91.157664
_cell_volume                      2880.9768708

loop_
_atom_site_label
_atom_site_type_symbol
_atom_type_description
_atom_site_fract_x
_atom_site_fract_y
_atom_site_fract_z
_atom_type_partial_charge
C1    C     C_R   0.499180 0.262597 0.498912 0.803887
C2    C     C_R   0.974569 0.383220 0.557336 0.040689
C3    C     C_R   0.975001 0.572494 0.417263 0.040502
C4    C     C_R   0.407683 0.499367 0.499699 0.897522
C5    C     C_R   0.949515 0.477344 0.487962 0.067974
C6    C     C_R   0.947382 0.286603 0.618668 -0.206048
C7    C     C_R   0.897403 0.285454 0.617097 -0.145678
C8    C     C_R   0.872459 0.380359 0.554414 -0.020022
C9    C     C_R   0.898356 0.476431 0.489505 -0.044792
C10   C     C_R   0.872977 0.571708 0.426326 -0.018967
C11   C     C_R   0.822489 0.569904 0.430463 0.533079
C12   C     C_R   0.280056 0.392678 0.422594 0.142945
C13   C     C_R   0.821933 0.380904 0.554135 0.534105
C14   C     C_R   0.721647 0.481753 0.623391 -0.119327
C15   C     C_R   0.671535 0.485712 0.625157 -0.220271
C16   C     C_R   0.500047 0.737982 0.501571 0.815362
C17   C     C_R   0.670244 0.474639 0.371482 -0.213460
C18   C     C_R   0.720292 0.469678 0.369684 -0.109850
C19   C     C_R   0.746316 0.475152 0.495528 0.353681
C20   C     C_R   0.025681 0.388211 0.562468 0.040617
C21   C     C_R   0.051132 0.479866 0.486051 0.071665
C22   C     C_R   0.026042 0.570013 0.410207 0.041070
C23   C     C_R   0.254256 0.488240 0.487499 0.168355
C24   C     C_R   0.052473 0.305230 0.642877 -0.203341
C25   C     C_R   0.103068 0.653730 0.327386 -0.146533
C26   C     C_R   0.948329 0.667932 0.357137 -0.206340
C27   C     C_R   0.898394 0.667314 0.361749 -0.146093
C28   C     C_R   0.592528 0.496186 0.499935 0.807791
C29   C     C_R   0.053113 0.654431 0.328951 -0.201092
C30   C     C_R   0.497245 0.067610 0.622868 0.020913
C31   C     C_R   0.500561 0.129951 0.497490 -0.073505
C32   C     C_R   0.508662 0.062648 0.373798 -0.217780
C33   C     C_R   0.508643 0.934539 0.376959 -0.226288
C34   C     C_R   0.102290 0.481563 0.485708 -0.045884
C35   C     C_R   0.502548 0.871892 0.504550 -0.094119
C36   C     C_R   0.501623 0.941767 0.630672 0.042890
C37   C     C_3   0.469400 0.941665 0.760100 0.705983
C38   C     C_3   0.461388 0.078262 0.737437 -0.497692
C39   C     C_R   0.539063 0.543319 0.074049 0.053462
C40   C     C_R   0.178269 0.400344 0.564505 0.575379
C41   C     C_R   0.465460 0.436057 0.073506 0.564750
C42   C     C_R   0.464580 0.441103 0.923604 -0.215932
C43   C     C_R   0.539526 0.540804 0.927055 0.160720
C44   C     C_3   0.564280 0.663063 0.918452 0.240056
C45   C     C_R   0.127769 0.396144 0.564959 -0.031048
C46   C     C_3   0.561857 0.668762 0.079547 -0.002835
C47   C     C_R   0.178585 0.568874 0.407385 0.594821
C48   C     C_R   0.278901 0.584674 0.558486 0.511393
C49   C     C_R   0.329166 0.588385 0.559125 -0.405869
C50   C     C_R   0.330598 0.392499 0.432854 0.418568
C51   C     C_3   0.367172 0.212537 0.476032 -0.328475
C52   C     C_3   0.252810 0.663139 0.765613 -0.276460
C53   C     C_3   0.419473 0.774719 0.835106 -0.265390
C54   C     C_3   0.243086 0.326015 0.205165 -0.616107
C55   C     C_3   0.541485 0.980937 0.918099 -0.819666
C56   C     C_R   0.102445 0.309346 0.643913 -0.147001
C57   C     C_3   0.429284 0.246249 0.098564 -0.261937
C58   C     C_3   0.626133 0.754417 0.792338 -0.296286
C59   C     C_3   0.626513 0.785236 0.201302 -0.647414
C60   C     C_R   0.128087 0.568911 0.406435 -0.041590
C61   C     C_R   0.355080 0.492757 0.498181 -0.230453
C62   C     C_R   0.645398 0.486330 0.499052 -0.043413
Cu1   Cu    Cu3+1 0.500000 0.499980 0.640670 0.946159
Cu2   Cu    Cu3+1 0.500000 0.500020 0.359330 1.003658
H1    H     H_    0.122045 0.720565 0.263682 0.184507
H2    H     H_    0.473481 0.141705 0.823087 0.176024
H3    H     H_    0.435346 0.397611 0.865368 0.163062
H4    H     H_    0.541323 0.729346 0.863763 0.128509
H5    H     H_    0.536889 0.738567 0.121648 0.121428
H6    H     H_    0.121193 0.243741 0.707352 0.185733
H7    H     H_    0.653406 0.488128 0.725166 0.215891
H8    H     H_    0.741345 0.484583 0.721425 0.153189
H9    H     H_    0.878351 0.209425 0.665811 0.187301
H10   H     H_    0.963586 0.208510 0.666560 0.140811
H11   H     H_    0.035951 0.237256 0.709261 0.140291
H12   H     H_    0.964941 0.746583 0.308167 0.140819
H13   H     H_    0.347842 0.667361 0.604695 0.197950
H14   H     H_    0.386951 0.135441 0.426984 0.191512
H15   H     H_    0.334099 0.173100 0.525044 0.172253
H16   H     H_    0.390898 0.254903 0.558064 0.144828
H17   H     H_    0.289559 0.672837 0.811350 0.155764
H18   H     H_    0.236239 0.572535 0.793203 0.167153
H19   H     H_    0.230471 0.735793 0.813887 0.199749
H20   H     H_    0.407617 0.811815 0.938254 0.148578
H21   H     H_    0.452161 0.718889 0.846530 0.186438
H22   H     H_    0.390428 0.711855 0.797215 0.175004
H23   H     H_    0.651043 0.468083 0.273080 0.162536
H24   H     H_    0.270207 0.211391 0.355648 0.286339
H25   H     H_    0.221588 0.249103 0.157194 0.224942
H26   H     H_    0.276513 0.339733 0.142958 0.238827
H27   H     H_    0.221379 0.410497 0.201552 0.238046
H28   H     H_    0.472880 0.934183 0.980590 0.242734
H29   H     H_    0.558678 0.938902 0.010176 0.235437
H30   H     H_    0.537923 0.080566 0.941816 0.237608
H31   H     H_    0.565460 0.968690 0.826556 0.241368
H32   H     H_    0.411544 0.189206 0.179496 0.220197
H33   H     H_    0.465932 0.208762 0.082451 0.114045
H34   H     H_    0.879750 0.742667 0.314124 0.187337
H35   H     H_    0.407553 0.235755 0.001198 0.139858
H36   H     H_    0.601827 0.772406 0.702456 0.160050
H37   H     H_    0.662573 0.739150 0.749053 0.194566
H38   H     H_    0.628806 0.835374 0.864340 0.163898
H39   H     H_    0.633844 0.611860 0.106253 0.289408
H40   H     H_    0.659962 0.771517 0.262335 0.239744
H41   H     H_    0.599893 0.829118 0.271742 0.221002
H42   H     H_    0.634819 0.846650 0.112400 0.221615
H43   H     H_    0.738917 0.461861 0.270376 0.146924
H44   H     H_    0.036811 0.721156 0.262579 0.139757
H45   H     H_    0.513183 0.108087 0.274314 0.160550
H46   H     H_    0.511933 0.885154 0.278467 0.156383
H47   H     H_    0.424872 0.097735 0.697205 0.180055
N1    N     N_R   0.202559 0.485419 0.485818 -0.422954
N2    N     N_R   0.798004 0.475138 0.493265 -0.464933
N3    N     N_R   0.500300 0.500930 0.147930 -0.238094
N4    N     N_R   0.500310 0.500890 0.852020 -0.240754
N5    N     N_2   0.254886 0.296622 0.348325 -0.391746
N6    N     N_2   0.494613 0.922516 0.894023 -0.482416
N7    N     N_2   0.608164 0.667568 0.150309 -0.371459
O1    O     O_R   0.500000 0.319640 0.618810 -0.581877
O2    O     O_R   0.569730 0.499960 0.618810 -0.556385
O3    O     O_R   0.569740 0.500000 0.381220 -0.566910
O4    O     O_2   0.202956 0.320586 0.642709 -0.556090
O5    O     O_3   0.355947 0.297764 0.371451 -0.552984
O6    O     O_3   0.253520 0.679552 0.619296 -0.542430
O7    O     O_3   0.426041 0.870945 0.738452 -0.595461
O8    O     O_3   0.430540 0.370238 0.145619 -0.516366
O9    O     O_3   0.611263 0.648458 0.864870 -0.575655
O10   O     O_2   0.796915 0.287537 0.613273 -0.543066
O11   O     O_2   0.203584 0.651134 0.330116 -0.532828
O12   O     O_2   0.798049 0.662781 0.373276 -0.546859
O13   O     O_R   0.500010 0.319680 0.381230 -0.562154
O14   O     O_R   0.430260 0.500000 0.618780 -0.610462
O15   O     O_R   0.430270 0.500040 0.381190 -0.499352
O16   O     O_R   0.499990 0.680320 0.618770 -0.588943
O17   O     O_R   0.500000 0.680360 0.381190 -0.590887

loop_
_geom_bond_atom_site_label_1
_geom_bond_atom_site_label_2
_ccdc_geom_bond_type
C10   C27   A    
C27   H34   S    
C8    C13   A    
C22   C29   A    
C51   O5    S    
C41   C42   A    
C35   C36   A    
C41   N3    A    
C43   C44   S    
C16   O16   A    
C7    C8    A    
C44   O9    S    
C23   N1    S    
C12   C23   A    
C30   C38   S    
C26   C27   A    
C59   H41   S    
C47   O11   S    
C53   H20   S    
C59   H40   S    
C36   C37   S    
C54   H26   S    
C16   C35   S    
C30   C31   A    
C19   N2    S    
Cu2   O3    S    
C57   H35   S    
C1    C31   S    
C46   N7    S    
C18   C19   A    
C1    O1    A    
C18   H43   S    
C46   H5    S    
C43   N4    A    
C47   C60   A    
C51   H16   S    
C13   O10   S    
C20   C24   A    
C45   C56   A    
C8    C9    A    
C57   H32   S    
C54   N5    S    
C26   H12   S    
C29   H44   S    
C53   H22   S    
C58   H38   S    
C25   C60   A    
C9    C10   A    
C55   H29   S    
C52   O6    S    
Cu1   N4    S    
Cu2   O17   S    
C58   O9    S    
C21   C22   A    
C34   C60   A    
C2    C6    A    
C55   H30   S    
C14   C19   A    
C44   C46   S    
C6    H10   S    
C37   O7    S    
C25   C29   A    
C40   C45   A    
C59   H42   S    
C49   C61   A    
C32   H45   S    
C2    C20   A    
Cu1   O16   S    
C38   H2    S    
C58   H36   S    
C54   H25   S    
C7    H9    S    
C28   O2    A    
C57   O8    S    
C58   H37   S    
C28   O3    A    
C39   C43   A    
C21   C34   A    
C3    C5    A    
C4    C61   S    
H24   N5    S    
C52   H19   S    
H28   N6    S    
C5    C9    A    
C37   C38   S    
C17   C62   A    
Cu1   O1    S    
C31   C32   A    
Cu2   O13   S    
C39   N3    A    
C57   H33   S    
C17   C18   A    
C25   H1    S    
C34   C45   A    
Cu1   O14   S    
C52   H18   S    
C53   O7    S    
C39   C46   S    
C55   H31   S    
C48   C49   A    
C59   N7    S    
C56   H6    S    
C42   H3    S    
C44   H4    S    
H39   N7    S    
C11   O12   S    
C15   H7    S    
C55   N6    S    
Cu2   O15   S    
C23   C48   A    
C17   H23   S    
C14   H8    S    
C41   O8    S    
C3    C26   A    
C50   O5    S    
C40   N1    A    
C1    O13   A    
C48   O6    S    
C12   C50   A    
C24   H11   S    
C6    C7    A    
C24   C56   A    
C40   O4    S    
C30   C36   A    
C32   C33   A    
C51   H14   S    
C54   H27   S    
Cu1   O2    S    
C4    O14   A    
C33   C35   A    
C15   C62   A    
C49   H13   S    
C52   H17   S    
C11   N2    A    
C51   H15   S    
C10   C11   A    
Cu1   Cu2   S    
C2    C5    A    
C42   N4    A    
C37   N6    S    
C20   C21   A    
Cu2   N3    S    
C50   C61   A    
C14   C15   A    
C3    C22   A    
C53   H21   S    
C33   H46   S    
C38   H47   S    
C16   O17   A    
C13   N2    A    
C47   N1    A    
C4    O15   A    
C12   N5    S    
C28   C62   S    
