data_mof_unit_pretest_764.cif
_audit_creation_date              2012-12-10T16:55:49-0500
_audit_creation_method            fapswitch 2.2
_symmetry_space_group_name_H-M    P1
_symmetry_Int_Tables_number       1
_space_group_crystal_system       triclinic
_cell_length_a                    7.783127
_cell_length_b                    8.572909
_cell_length_c                    10.495346
_cell_angle_alpha                 91.092597
_cell_angle_beta                  85.618667
_cell_angle_gamma                 93.751273
_cell_volume                      696.679728449

loop_
_atom_site_label
_atom_site_type_symbol
_atom_type_description
_atom_site_fract_x
_atom_site_fract_y
_atom_site_fract_z
_atom_type_partial_charge
C1    C     C_R   0.545802 0.794693 0.496668 0.949650
C2    C     C_3   0.504717 0.503325 0.877052 -0.141856
C3    C     C_3   0.338698 0.462784 0.045901 0.513300
C4    C     C_3   0.661302 0.537215 0.954099 0.513300
C5    C     C_2   0.569832 0.958274 0.494761 -0.359396
C6    C     C_2   0.430168 0.041726 0.505239 -0.359396
C7    C     C_R   0.454198 0.205307 0.503332 0.949650
C8    C     C_R   0.502351 0.503286 0.742344 0.917134
C9    C     C_R   0.497649 0.496714 0.257656 0.917134
C10   C     C_3   0.394507 0.608036 0.965495 -0.219901
C11   C     C_3   0.605493 0.391964 0.034505 -0.219901
C12   C     C_3   0.553120 0.642181 0.044562 -0.291481
C13   C     C_3   0.446880 0.357819 0.955437 -0.291481
C14   C     C_3   0.495283 0.496675 0.122948 -0.141857
Cl1   Cl    Cl    0.123951 0.410315 0.108756 -0.579673
Cl2   Cl    Cl    0.876049 0.589685 0.891244 -0.579673
H1    H     H_    0.596848 0.757304 0.085086 0.181716
H2    H     H_    0.403152 0.242696 0.914914 0.181716
H3    H     H_    0.308448 0.695478 0.933511 0.206839
H4    H     H_    0.691552 0.304522 0.066489 0.206839
H5    H     H_    0.013341 0.381292 0.404840 0.225995
H6    H     H_    0.986658 0.618708 0.595160 0.225995
H7    H     H_    0.701686 0.009484 0.484759 0.188247
H8    H     H_    0.298314 0.990515 0.515241 0.188247
N1    N     N_2   0.950320 0.457950 0.465730 -0.153465
N2    N     N_2   0.049680 0.542050 0.534270 -0.153465
O1    O     O_R   0.389250 0.738570 0.508410 -0.617717
O2    O     O_R   0.610750 0.261430 0.491590 -0.617717
O3    O     O_R   0.678390 0.711620 0.486450 -0.626488
O4    O     O_R   0.321610 0.288380 0.513550 -0.626488
O5    O     O_R   0.355460 0.513510 0.697030 -0.596232
O6    O     O_R   0.644540 0.486490 0.302970 -0.596232
O7    O     O_R   0.644600 0.486560 0.675070 -0.597869
O8    O     O_R   0.355400 0.513440 0.324930 -0.597869
Zn1   Zn    Zn3+2 0.306940 0.517990 0.514670 1.001198
Zn2   Zn    Zn3+2 0.693060 0.482010 0.485330 1.001198

loop_
_geom_bond_atom_site_label_1
_geom_bond_atom_site_label_2
_ccdc_geom_bond_type
C12   H1    S    
C4    Cl2   S    
C2    C4    S    
C9    C14   S    
C6    C7    S    
C4    C12   S    
C5    H7    S    
C10   H3    S    
C6    H8    S    
C1    O3    A    
C1    O1    A    
C7    O4    A    
C4    C11   S    
C11   C13   S    
O3    Zn2   S    
C9    O8    A    
C3    C14   S    
C10   C12   S    
O4    Zn1   S    
C1    C5    S    
O6    Zn2   S    
C12   C14   S    
C8    O7    A    
C5    C6    D    
C11   C14   S    
O5    Zn1   S    
C11   H4    S    
N1    Zn2   S    
C2    C10   S    
N2    Zn1   S    
O7    Zn2   S    
C3    Cl1   S    
O2    Zn2   S    
C13   H2    S    
O8    Zn1   S    
H6    N2    S    
C3    C10   S    
C2    C13   S    
H5    N1    S    
C9    O6    A    
O1    Zn1   S    
N1    N2    D    
C8    O5    A    
C2    C8    S    
C7    O2    A    
C3    C13   S    
