data_mof_unit_pretest_1464.cif
_audit_creation_date              2012-12-11T14:01:14-0500
_audit_creation_method            fapswitch 2.2
_symmetry_space_group_name_H-M    P1
_symmetry_Int_Tables_number       1
_space_group_crystal_system       triclinic
_cell_length_a                    19.015132
_cell_length_b                    10.974588
_cell_length_c                    18.770236
_cell_angle_alpha                 90.342612
_cell_angle_beta                  90.205133
_cell_angle_gamma                 89.988911
_cell_volume                      3916.93846159

loop_
_atom_site_label
_atom_site_type_symbol
_atom_type_description
_atom_site_fract_x
_atom_site_fract_y
_atom_site_fract_z
_atom_type_partial_charge
C1    C     C_R   0.272567 0.042449 0.853572 0.554260
C2    C     C_R   0.727473 0.042065 0.146450 0.554268
C3    C     C_R   0.772568 0.542447 0.853573 0.555569
C4    C     C_R   0.227474 0.542068 0.146451 0.552922
C5    C     C_R   0.473832 0.047326 0.076628 -0.071204
C6    C     C_R   0.500007 0.061093 0.931198 -0.060893
C7    C     C_R   0.973761 0.547278 0.076653 -0.071376
C8    C     C_R   0.999925 0.561114 0.931224 -0.060790
C9    C     C_R   0.971105 0.660605 0.043295 0.234185
C10   C     C_R   0.984444 0.667650 0.969214 0.237513
C11   C     C_R   0.471220 0.160647 0.043258 0.234363
C12   C     C_R   0.484564 0.167657 0.969177 0.237413
C13   C     C_2   0.249132 0.580132 0.920429 -0.110271
C14   C     C_2   0.750926 0.579106 0.079496 -0.109701
C15   C     C_2   0.749128 0.080120 0.920424 -0.109736
C16   C     C_2   0.250925 0.079113 0.079494 -0.110215
C17   C     C_2   0.249945 0.586327 0.077194 -0.108865
C18   C     C_2   0.750287 0.586933 0.923083 -0.110433
C19   C     C_2   0.749941 0.086314 0.077189 -0.109291
C20   C     C_2   0.250283 0.086940 0.923080 -0.110032
C21   C     C_2   0.294777 0.520835 0.037208 -0.165060
C22   C     C_2   0.704993 0.521828 0.962278 -0.164969
C23   C     C_2   0.794769 0.020814 0.037203 -0.165410
C24   C     C_2   0.204990 0.021834 0.962275 -0.164656
C25   C     C_2   0.303779 0.546062 0.961279 -0.163131
C26   C     C_2   0.696191 0.545849 0.038433 -0.162913
C27   C     C_2   0.803773 0.046040 0.961274 -0.162738
C28   C     C_2   0.196190 0.045852 0.038431 -0.163297
C29   C     C_2   0.486102 0.828597 0.571598 -0.092286
C30   C     C_2   0.487992 0.840044 0.415568 -0.110101
C31   C     C_2   0.985821 0.328665 0.571489 -0.101750
C32   C     C_2   0.987664 0.340042 0.415409 -0.107686
C33   C     C_2   0.467894 0.742356 0.451847 -0.162578
C34   C     C_2   0.453430 0.749275 0.527494 -0.146608
C35   C     C_2   0.967715 0.242333 0.451771 -0.164134
C36   C     C_2   0.953148 0.249333 0.527409 -0.152170
C37   C     C_2   0.255036 0.612745 0.569061 -0.102142
C38   C     C_2   0.753751 0.566497 0.416732 -0.105827
C39   C     C_2   0.746431 0.065763 0.582909 -0.109883
C40   C     C_2   0.245752 0.111419 0.430252 -0.089405
C41   C     C_2   0.257082 0.605018 0.413829 -0.109199
C42   C     C_2   0.761871 0.568575 0.572039 -0.091324
C43   C     C_2   0.738015 0.069954 0.427899 -0.088527
C44   C     C_2   0.243588 0.102730 0.585638 -0.108753
C45   C     C_R   0.471998 0.823006 0.852864 0.537826
C46   C     C_R   0.528808 0.821529 0.146588 0.533950
C47   C     C_R   0.971995 0.323010 0.852865 0.538456
C48   C     C_R   0.028808 0.321526 0.146589 0.533243
C49   C     C_2   0.217627 0.682280 0.450921 -0.164661
C50   C     C_2   0.817669 0.560071 0.528239 -0.148180
C51   C     C_2   0.682350 0.059282 0.471604 -0.147778
C52   C     C_2   0.283334 0.179693 0.549100 -0.165845
C53   C     C_2   0.229904 0.701097 0.526271 -0.150930
C54   C     C_2   0.813072 0.585737 0.452839 -0.164180
C55   C     C_2   0.686869 0.084181 0.547206 -0.165537
C56   C     C_2   0.271512 0.198858 0.473841 -0.149265
C57   C     C_R   0.261018 0.636347 0.851435 0.554665
C58   C     C_R   0.739054 0.635785 0.148640 0.551443
C59   C     C_R   0.761017 0.136345 0.851435 0.552241
C60   C     C_R   0.239054 0.135786 0.148640 0.553756
C61   C     C_R   0.271039 0.047912 0.649575 0.552043
C62   C     C_R   0.726239 0.042819 0.353649 0.548326
C63   C     C_R   0.773869 0.542057 0.646225 0.549805
C64   C     C_R   0.229085 0.548591 0.350248 0.551732
C65   C     C_R   0.467915 0.823076 0.646178 0.548017
C66   C     C_R   0.527768 0.824796 0.350652 0.550090
C67   C     C_R   0.967800 0.323076 0.646112 0.547063
C68   C     C_R   0.027701 0.324797 0.350616 0.554313
C69   C     C_R   0.261693 0.641930 0.643801 0.547765
C70   C     C_R   0.740091 0.634287 0.352526 0.553727
C71   C     C_R   0.759964 0.134023 0.647369 0.551016
C72   C     C_R   0.238484 0.141786 0.355927 0.550059
C73   C     C_R   0.503024 0.827615 0.073283 0.012728
C74   C     C_R   0.502183 0.834307 0.924441 0.005376
C75   C     C_R   0.003025 0.327603 0.073284 0.013018
C76   C     C_R   0.002177 0.334324 0.924443 0.005240
C77   C     C_R   0.491495 0.940241 0.038679 -0.039688
C78   C     C_R   0.498345 0.945482 0.963910 -0.037590
C79   C     C_R   0.991458 0.440223 0.038692 -0.039439
C80   C     C_R   0.998303 0.445489 0.963923 -0.037815
C81   C     C_R   0.512586 0.724508 0.960060 -0.146127
C82   C     C_R   0.511306 0.720771 0.032839 -0.139807
C83   C     C_R   0.012617 0.224528 0.960053 -0.146183
C84   C     C_R   0.011342 0.220775 0.032832 -0.139736
Cr1   Cr    Cr6+3 0.230530 0.836340 0.748870 1.036008
Cr2   Cr    Cr6+3 0.769470 0.836340 0.251130 1.050545
Cr3   Cr    Cr6+3 0.730530 0.336340 0.748870 1.038959
Cr4   Cr    Cr6+3 0.269470 0.336340 0.251130 1.047618
Cr5   Cr    Cr6+3 0.387420 0.989430 0.750820 1.037119
Cr6   Cr    Cr6+3 0.612580 0.989430 0.249180 1.037354
Cr7   Cr    Cr6+3 0.887420 0.489430 0.750820 1.037968
Cr8   Cr    Cr6+3 0.112580 0.489430 0.249180 1.036323
Cr9   Cr    Cr6+3 0.385640 0.677860 0.749230 1.033153
Cr10  Cr    Cr6+3 0.614360 0.677860 0.250770 1.030304
Cr11  Cr    Cr6+3 0.885640 0.177860 0.749230 1.034209
Cr12  Cr    Cr6+3 0.114360 0.177860 0.250770 1.029811
H1    H     H_    0.517533 0.638690 0.931605 0.147986
H2    H     H_    0.519868 0.632791 0.057266 0.138880
H3    H     H_    0.017589 0.138722 0.931590 0.148073
H4    H     H_    0.019933 0.132798 0.057252 0.138830
H5    H     H_    0.170974 0.723960 0.427981 0.154854
H6    H     H_    0.870124 0.542172 0.548961 0.157205
H7    H     H_    0.630072 0.039822 0.450763 0.152254
H8    H     H_    0.329685 0.221863 0.572638 0.155376
H9    H     H_    0.212063 0.787828 0.547943 0.155763
H10   H     H_    0.857665 0.631516 0.428771 0.154708
H11   H     H_    0.642072 0.129065 0.571794 0.155644
H12   H     H_    0.289782 0.285472 0.452990 0.152802
H13   H     H_    0.305882 0.569253 0.435685 0.097246
H14   H     H_    0.708832 0.585885 0.553083 0.095363
H15   H     H_    0.790884 0.088915 0.446967 0.086670
H16   H     H_    0.195072 0.066351 0.563296 0.105873
H17   H     H_    0.273460 0.525369 0.549148 0.085025
H18   H     H_    0.710941 0.514041 0.439447 0.111832
H19   H     H_    0.789476 0.014121 0.559616 0.105360
H20   H     H_    0.226899 0.024198 0.449353 0.087758
H21   H     H_    0.461558 0.044230 0.132830 0.160137
H22   H     H_    0.513625 0.070652 0.875645 0.165090
H23   H     H_    0.961495 0.544152 0.132857 0.159122
H24   H     H_    0.013543 0.570709 0.875674 0.165991
H25   H     H_    0.324433 0.445565 0.059670 0.176261
H26   H     H_    0.674846 0.447450 0.938986 0.170374
H27   H     H_    0.824423 0.945542 0.059665 0.176182
H28   H     H_    0.174845 0.947454 0.938984 0.170451
H29   H     H_    0.356571 0.539582 0.939632 0.159403
H30   H     H_    0.643471 0.539254 0.060115 0.155230
H31   H     H_    0.856565 0.039558 0.939627 0.159574
H32   H     H_    0.143472 0.039246 0.060116 0.155049
H33   H     H_    0.222089 0.663681 0.054721 0.117029
H34   H     H_    0.778621 0.663559 0.946325 0.120384
H35   H     H_    0.722086 0.163670 0.054715 0.117059
H36   H     H_    0.278617 0.163568 0.946321 0.120359
H37   H     H_    0.196208 0.582998 0.942100 0.114800
H38   H     H_    0.803845 0.581799 0.057826 0.122378
H39   H     H_    0.696203 0.082989 0.942094 0.114725
H40   H     H_    0.303843 0.081813 0.057821 0.122374
H41   H     H_    0.467645 0.652250 0.427512 0.153891
H42   H     H_    0.418441 0.679659 0.548178 0.155965
H43   H     H_    0.967808 0.152132 0.427562 0.155124
H44   H     H_    0.918226 0.179643 0.548134 0.154420
H45   H     H_    0.484143 0.930904 0.438587 0.105084
H46   H     H_    0.521057 0.899543 0.552746 0.086256
H47   H     H_    0.983450 0.430956 0.438300 0.102336
H48   H     H_    0.020634 0.399744 0.552571 0.094203
O1    O     O_R   0.215090 0.709860 0.828130 -0.508809
O2    O     O_R   0.784910 0.709860 0.171870 -0.491767
O3    O     O_R   0.715090 0.209860 0.828130 -0.511506
O4    O     O_R   0.284910 0.209860 0.171870 -0.489287
O5    O     O_R   0.445660 0.919250 0.676780 -0.496883
O6    O     O_R   0.554340 0.919250 0.323220 -0.507018
O7    O     O_R   0.945660 0.419250 0.676780 -0.503421
O8    O     O_R   0.054340 0.419250 0.323220 -0.500505
O9    O     O_R   0.456260 0.718170 0.670000 -0.513875
O10   O     O_R   0.543740 0.718170 0.330000 -0.509442
O11   O     O_R   0.956260 0.218170 0.670000 -0.510634
O12   O     O_R   0.043740 0.218170 0.330000 -0.510961
O13   O     O_R   0.320940 0.626760 0.674370 -0.503674
O14   O     O_R   0.679060 0.626760 0.325630 -0.498785
O15   O     O_R   0.820940 0.126760 0.674370 -0.506659
O16   O     O_R   0.179060 0.126760 0.325630 -0.495856
O17   O     O_3   0.334530 0.834540 0.749640 -0.253721
O18   O     O_3   0.665470 0.834540 0.250360 -0.253924
O19   O     O_3   0.834530 0.334540 0.749640 -0.254512
O20   O     O_3   0.165470 0.334540 0.250360 -0.253236
O21   O     O_R   0.236990 0.958390 0.823710 -0.496694
O22   O     O_R   0.763010 0.958390 0.176290 -0.492062
O23   O     O_R   0.736990 0.458390 0.823710 -0.496563
O24   O     O_R   0.263010 0.458390 0.176290 -0.492320
O25   O     O_R   0.332380 0.074750 0.830850 -0.499759
O26   O     O_R   0.667620 0.074750 0.169150 -0.503682
O27   O     O_R   0.832380 0.574750 0.830850 -0.497919
O28   O     O_R   0.167620 0.574750 0.169150 -0.505552
O29   O     O_R   0.445800 0.917770 0.825070 -0.511267
O30   O     O_R   0.554200 0.917770 0.174930 -0.504840
O31   O     O_R   0.945800 0.417770 0.825070 -0.510461
O32   O     O_R   0.054200 0.417770 0.174930 -0.505756
O33   O     O_R   0.456410 0.716580 0.829970 -0.515395
O34   O     O_R   0.543590 0.716580 0.170030 -0.522412
O35   O     O_R   0.956410 0.216580 0.829970 -0.515087
O36   O     O_R   0.043590 0.216580 0.170030 -0.522923
O37   O     O_R   0.321080 0.625290 0.822650 -0.492667
O38   O     O_R   0.678920 0.625290 0.177350 -0.500566
O39   O     O_R   0.821080 0.125290 0.822650 -0.493485
O40   O     O_R   0.178920 0.125290 0.177350 -0.499821
O41   O     O_R   0.214930 0.711450 0.668160 -0.511745
O42   O     O_R   0.785070 0.711450 0.331840 -0.512737
O43   O     O_R   0.714930 0.211450 0.668160 -0.510850
O44   O     O_R   0.285070 0.211450 0.331840 -0.514558
O45   O     O_R   0.236850 0.959870 0.675420 -0.507687
O46   O     O_R   0.763150 0.959870 0.324580 -0.495657
O47   O     O_R   0.736850 0.459870 0.675420 -0.494046
O48   O     O_R   0.263150 0.459870 0.324580 -0.508233
O49   O     O_R   0.332230 0.076350 0.670880 -0.510575
O50   O     O_R   0.667770 0.076350 0.329120 -0.513508
O51   O     O_R   0.832230 0.576350 0.670880 -0.513547
O52   O     O_R   0.167770 0.576350 0.329120 -0.511226
O53   O     O_3   0.957858 0.761379 0.085482 -0.715538
H49   H     H_    0.979626 0.833831 0.063492 0.321435
O54   O     O_3   0.980898 0.774985 0.931464 -0.717823
H50   H     H_    0.947304 0.830580 0.955336 0.319709
O55   O     O_3   0.458007 0.261448 0.085434 -0.714745
H51   H     H_    0.479804 0.333869 0.063439 0.321484
O56   O     O_3   0.481058 0.274984 0.931416 -0.718531
H52   H     H_    0.447486 0.330624 0.955282 0.319686

loop_
_geom_bond_atom_site_label_1
_geom_bond_atom_site_label_2
_ccdc_geom_bond_type
C16   C28   D    
C69   O41   A    
Cr3   O19   S    
O56   H52   S    
C38   C70   S    
C60   O40   A    
C37   C69   S    
Cr1   O17   S    
O55   H51   S    
C46   O34   A    
C35   C36   S    
Cr2   O22   S    
C53   H9    S    
Cr5   O29   S    
Cr6   O6    S    
C43   C51   D    
C10   O54   S    
C57   O37   A    
C81   C82   A    
C3    O23   A    
C62   O46   A    
Cr12  O12   S    
C77   C78   A    
Cr8   O32   S    
C31   C67   S    
C50   C54   S    
C30   H45   S    
Cr3   O3    S    
Cr6   O18   S    
Cr11  O15   S    
C7    C79   A    
Cr1   O1    S    
C47   C76   S    
C66   O6    A    
C45   O29   A    
C31   C36   D    
C16   C60   S    
C38   H18   S    
C49   C53   S    
C75   C84   A    
C6    C78   A    
C37   H17   S    
C51   H7    S    
C24   H28   S    
C3    C18   S    
C7    C9    A    
C11   O55   S    
C12   O56   S    
C41   C49   D    
C31   H48   S    
C25   H29   S    
C72   O44   A    
C32   H47   S    
C65   O9    A    
C35   H43   S    
C27   H31   S    
C39   C55   D    
C20   C24   D    
C15   H39   S    
C33   H41   S    
C40   C56   D    
Cr6   O50   S    
Cr8   O8    S    
C69   O13   A    
C46   O30   A    
Cr2   O18   S    
C23   C27   S    
C4    O28   A    
C9    C10   A    
Cr10  O18   S    
C51   C55   S    
C45   O33   A    
C32   C68   S    
C37   C53   D    
Cr8   O20   S    
Cr5   O5    S    
C28   H32   S    
O54   H50   S    
Cr10  O14   S    
C41   H13   S    
C61   O45   A    
C82   H2    S    
C48   C75   S    
Cr7   O19   S    
C56   H12   S    
Cr9   O37   S    
Cr12  O40   S    
Cr2   O2    S    
C76   C83   A    
Cr5   O17   S    
C64   O48   A    
C9    O53   S    
C22   H26   S    
C19   H35   S    
C14   C58   S    
Cr3   O23   S    
Cr2   O46   S    
C54   H10   S    
C67   O7    A    
C84   H4    S    
C32   C35   D    
C7    H23   S    
C21   C25   S    
C66   O10   A    
Cr9   O33   S    
Cr3   O43   S    
C14   H38   S    
Cr4   O24   S    
C39   C71   S    
Cr4   O20   S    
C17   H33   S    
C29   C34   D    
C34   H42   S    
C14   C26   D    
Cr12  O20   S    
C5    H21   S    
C45   C74   S    
C70   O14   A    
C20   H36   S    
C19   C23   D    
C68   O8    A    
Cr11  O19   S    
Cr7   O51   S    
C57   O1    A    
C15   C27   D    
C83   C84   A    
C38   C54   D    
C1    O21   A    
Cr10  O10   S    
Cr5   O49   S    
Cr6   O26   S    
C33   C34   S    
Cr4   O4    S    
Cr7   O31   S    
Cr12  O36   S    
Cr9   O13   S    
C36   H44   S    
C30   C66   S    
C47   O35   A    
C42   C50   D    
C29   C65   S    
C4    C17   S    
C44   H16   S    
Cr11  O35   S    
Cr12  O16   S    
C2    O26   A    
Cr9   O17   S    
C50   H6    S    
C39   H19   S    
C3    O27   A    
C5    C11   A    
C22   C26   S    
C63   O51   A    
C18   H34   S    
C76   C80   A    
C62   O50   A    
C74   C81   A    
C5    C77   A    
C16   H40   S    
C6    C12   A    
C61   O49   A    
C73   C82   A    
C48   O36   A    
C8    H24   S    
Cr3   O47   S    
Cr4   O48   S    
C2    O22   A    
C52   H8    S    
C1    C20   S    
C73   C77   A    
C40   C72   S    
C30   C33   D    
C2    C19   S    
C18   C22   D    
C13   H37   S    
C24   C28   S    
C71   O43   A    
Cr8   O52   S    
C68   O12   A    
Cr10  O34   S    
C44   C52   D    
C23   H27   S    
C11   C12   A    
C58   O2    A    
Cr2   O42   S    
C60   O4    A    
C67   O11   A    
C44   C61   S    
C71   O15   A    
Cr6   O30   S    
C72   O16   A    
Cr7   O27   S    
C58   O38   A    
Cr1   O21   S    
Cr7   O7    S    
Cr9   O9    S    
C42   H14   S    
Cr5   O25   S    
Cr1   O41   S    
C75   C79   A    
C49   H5    S    
Cr11  O39   S    
C40   H20   S    
C81   H1    S    
C13   C25   D    
Cr8   O28   S    
C63   O47   A    
C29   H46   S    
C64   O52   A    
C1    O25   A    
Cr11  O11   S    
C65   O5    A    
O53   H49   S    
C15   C59   S    
C70   O42   A    
C79   C80   A    
C43   H15   S    
C4    O24   A    
Cr4   O44   S    
C13   C57   S    
C8    C10   A    
C74   C78   A    
C55   H11   S    
C8    C80   A    
C26   H30   S    
C59   O39   A    
C21   H25   S    
C83   H3    S    
Cr10  O38   S    
C41   C64   S    
Cr1   O45   S    
C42   C63   S    
C6    H22   S    
C46   C73   S    
C47   O31   A    
C52   C56   S    
C43   C62   S    
C59   O3    A    
C48   O32   A    
C17   C21   D    
