data_mof_unit_pretest_616.cif
_audit_creation_date              2012-12-10T17:10:22-0500
_audit_creation_method            fapswitch 2.2
_symmetry_space_group_name_H-M    P1
_symmetry_Int_Tables_number       1
_space_group_crystal_system       triclinic
_cell_length_a                    10.780625
_cell_length_b                    12.989365
_cell_length_c                    11.677392
_cell_angle_alpha                 99.782537
_cell_angle_beta                  93.72469
_cell_angle_gamma                 89.971723
_cell_volume                      1607.95285734

loop_
_atom_site_label
_atom_site_type_symbol
_atom_type_description
_atom_site_fract_x
_atom_site_fract_y
_atom_site_fract_z
_atom_type_partial_charge
C1    C     C_R   0.498667 0.299104 0.478731 0.781805
C2    C     C_R   0.500166 0.700890 0.521299 0.778170
C3    C     C_R   0.496757 0.814201 0.533448 -0.051325
C4    C     C_R   0.498754 0.185755 0.466573 -0.065649
C5    C     C_R   0.507898 0.015451 0.345728 -0.230012
C6    C     C_R   0.484185 0.984394 0.654061 -0.228638
C7    C     C_R   0.506670 0.123576 0.356640 -0.205777
C8    C     C_R   0.486597 0.876238 0.643180 -0.211642
C9    C     C_R   0.491172 0.139223 0.565602 -0.277750
C10   C     C_R   0.502972 0.860805 0.434402 -0.273815
C11   C     C_R   0.491773 0.031132 0.555311 0.177254
C12   C     C_R   0.500706 0.968819 0.444561 0.179042
C13   C     C_R   0.388399 0.398124 0.021486 -0.338640
C14   C     C_R   0.611608 0.601860 0.978504 -0.339007
C15   C     C_R   0.398421 0.408326 0.143726 0.092045
C16   C     C_R   0.601574 0.591676 0.856270 0.092487
C17   C     C_R   0.547285 0.544658 0.157220 0.029912
C18   C     C_R   0.452728 0.455324 0.842771 0.030195
C19   C     C_R   0.540289 0.537169 0.034340 0.066803
C20   C     C_R   0.459722 0.462811 0.965650 0.066555
C21   C     C_R   0.262882 0.501123 0.500440 0.799199
C22   C     C_R   0.737166 0.498887 0.499517 0.799268
C23   C     C_R   0.127230 0.689338 0.491657 -0.187896
C24   C     C_R   0.872983 0.309849 0.504986 -0.193180
C25   C     C_R   0.061819 0.781247 0.487142 -0.175329
C26   C     C_R   0.938480 0.217377 0.506006 -0.163093
C27   C     C_R   0.932346 0.781557 0.488102 0.216656
C28   C     C_R   0.067937 0.217174 0.504229 0.216280
C29   C     C_R   0.868979 0.688322 0.492204 -0.186791
C30   C     C_R   0.131178 0.311018 0.503162 -0.197165
C31   C     C_R   0.933832 0.593872 0.495451 0.029340
C32   C     C_R   0.066254 0.405795 0.502685 0.034322
C33   C     C_R   0.064360 0.594526 0.495879 0.068766
C34   C     C_R   0.935746 0.405115 0.502594 0.069488
C35   C     C_R   0.870935 0.499209 0.498983 -0.154954
C36   C     C_R   0.129157 0.500688 0.500619 -0.154121
Cu1   Cu    Cu3+1 0.509250 0.507730 0.615930 0.936725
Cu2   Cu    Cu3+1 0.490750 0.492270 0.384070 0.934710
H1    H     H_    0.325456 0.340020 0.971154 0.137077
H2    H     H_    0.674554 0.659958 0.028833 0.136497
H3    H     H_    0.227418 0.693531 0.491768 0.137527
H4    H     H_    0.772817 0.305616 0.505238 0.137716
H5    H     H_    0.112651 0.852429 0.483788 0.141256
H6    H     H_    0.887918 0.145535 0.507034 0.143788
H7    H     H_    0.768693 0.690776 0.492611 0.127264
H8    H     H_    0.231413 0.308901 0.502373 0.121474
H9    H     H_    0.510844 0.813268 0.349404 0.148467
H10   H     H_    0.484110 0.186868 0.650658 0.154809
H11   H     H_    0.480847 0.841283 0.720543 0.161519
H12   H     H_    0.512741 0.158417 0.279228 0.161441
H13   H     H_    0.514755 0.968448 0.260365 0.135494
H14   H     H_    0.476802 0.031342 0.739369 0.138949
H15   H     H_    0.390680 0.398555 0.789154 0.119531
H16   H     H_    0.609341 0.601417 0.210836 0.117649
H17   H     H_    0.656762 0.642041 0.814241 0.126335
H18   H     H_    0.343221 0.357972 0.185756 0.126042
N1    N     N_R   0.523180 0.519350 0.790130 -0.180322
N2    N     N_R   0.476820 0.480650 0.209870 -0.179995
O1    O     O_R   0.506570 0.354460 0.582000 -0.591298
O2    O     O_R   0.493430 0.645540 0.418000 -0.592827
O3    O     O_R   0.490940 0.341410 0.386200 -0.592477
O4    O     O_R   0.509060 0.658590 0.613800 -0.592681
O5    O     O_R   0.327470 0.506520 0.597900 -0.578479
O6    O     O_R   0.672530 0.493480 0.402100 -0.580153
O7    O     O_R   0.311840 0.493460 0.402100 -0.580495
O8    O     O_R   0.688160 0.506540 0.597900 -0.578402
C37   C     C_3   0.138634 0.116800 0.502072 -0.423949
C38   C     C_3   0.152035 0.086791 0.622912 -0.828104
H19   H     H_    0.204957 0.148373 0.684509 0.248864
H20   H     H_    0.059225 0.076442 0.655575 0.252712
H21   H     H_    0.203270 0.012248 0.618815 0.248536
H22   H     H_    0.090125 0.053245 0.439698 0.187990
H23   H     H_    0.232816 0.124666 0.471038 0.214482
C39   C     C_3   0.861213 0.881050 0.485184 -0.432617
C40   C     C_3   0.817681 0.925252 0.605180 -0.806974
H24   H     H_    0.755013 0.868732 0.634726 0.256384
H25   H     H_    0.898689 0.942184 0.669405 0.245776
H26   H     H_    0.766605 0.998915 0.601208 0.247728
H27   H     H_    0.920054 0.940728 0.456557 0.195354
H28   H     H_    0.779703 0.865728 0.421172 0.203870

loop_
_geom_bond_atom_site_label_1
_geom_bond_atom_site_label_2
_ccdc_geom_bond_type
C27   C29   A    
C24   H4    S    
C19   C20   A    
C25   H5    S    
Cu1   O4    S    
C26   H6    S    
C21   C36   S    
C22   C35   S    
C32   C36   A    
C24   C26   A    
C37   H22   S    
C1    O1    A    
C2    O2    A    
C33   C36   A    
C34   C35   A    
C22   O8    A    
C18   H15   S    
Cu2   N2    S    
C38   H19   S    
C23   C33   A    
C31   C33   A    
C37   H23   S    
C27   C39   S    
C17   N2    A    
Cu2   O3    S    
C39   H28   S    
C4    C7    A    
Cu1   O5    S    
Cu2   O6    S    
C21   O5    A    
C39   C40   S    
C37   C38   S    
C28   C37   S    
C5    C12   A    
C3    C8    A    
C6    C11   A    
C5    C7    A    
C6    C8    A    
C14   H2    S    
C24   C34   A    
C29   H7    S    
C32   C34   A    
C40   H24   S    
Cu1   Cu2   S    
C40   H25   S    
C18   N1    A    
Cu2   O7    S    
Cu1   O8    S    
C9    C11   A    
Cu1   O1    S    
C10   C12   A    
Cu2   O2    S    
C39   H27   S    
C13   C15   A    
C15   N2    A    
C14   C16   A    
C13   C20   A    
C21   O7    A    
C14   C19   A    
C30   H8    S    
C7    H12   S    
C1    O3    A    
C11   C12   A    
C25   C27   A    
C26   C28   A    
C23   H3    S    
C1    C4    S    
C15   H18   S    
C28   C30   A    
C2    C3    S    
C16   H17   S    
C29   C31   A    
C3    C10   A    
C30   C32   A    
C38   H21   S    
C17   H16   S    
C31   C35   A    
C17   C19   A    
C18   C20   A    
C16   N1    A    
C23   C25   A    
C40   H26   S    
C13   H1    S    
C22   O6    A    
C9    H10   S    
C38   H20   S    
C10   H9    S    
C5    H13   S    
C6    H14   S    
C4    C9    A    
C8    H11   S    
Cu1   N1    S    
C2    O4    A    
