data_mof_unit_pretest_1214.cif
_audit_creation_date              2012-12-11T15:55:00-0500
_audit_creation_method            fapswitch 2.2
_symmetry_space_group_name_H-M    P1
_symmetry_Int_Tables_number       1
_space_group_crystal_system       triclinic
_cell_length_a                    17.936451
_cell_length_b                    24.446479
_cell_length_c                    15.063358
_cell_angle_alpha                 89.850457
_cell_angle_beta                  125.823559
_cell_angle_gamma                 90.157067
_cell_volume                      5355.48546683

loop_
_atom_site_label
_atom_site_type_symbol
_atom_type_description
_atom_site_fract_x
_atom_site_fract_y
_atom_site_fract_z
_atom_type_partial_charge
C1    C     C_R   0.909565 0.874004 0.096911 -0.032581
C2    C     C_R   0.160050 0.852754 0.091497 0.367268
C3    C     C_R   0.381500 0.682222 0.004545 0.070074
C4    C     C_R   0.697907 0.001057 0.633219 0.032853
C5    C     C_R   0.185961 0.501349 0.651215 0.011833
C6    C     C_R   0.059986 0.000731 0.366523 -0.317904
C7    C     C_R   0.479187 0.499869 0.305998 -0.227224
C8    C     C_R   0.268304 0.954477 0.263674 -0.098881
C9    C     C_R   0.266891 0.046636 0.264506 -0.067537
C10   C     C_R   0.760394 0.455258 0.297492 -0.140504
C11   C     C_R   0.757618 0.546832 0.296332 -0.058597
C12   C     C_R   0.953870 0.044829 0.696724 -0.032909
C13   C     C_R   0.642180 0.653058 0.093186 0.454587
C14   C     C_R   0.957600 0.954071 0.699534 -0.097650
C15   C     C_R   0.446997 0.546206 0.694614 -0.080449
C16   C     C_R   0.437270 0.456724 0.689665 -0.080317
C17   C     C_3   0.348039 0.823457 0.837621 0.213923
C18   C     C_3   0.404313 0.875973 0.863982 -0.243811
C19   C     C_3   0.351661 0.926622 0.857476 -0.720646
C20   C     C_3   0.352746 0.166268 0.834485 0.186527
C21   C     C_3   0.409769 0.113871 0.868334 -0.197863
C22   C     C_3   0.388638 0.081505 0.769489 -0.927586
C23   C     C_3   0.884507 0.315075 0.843308 0.206715
C24   C     C_R   0.676190 0.362440 0.093265 0.372852
C25   C     C_3   0.966692 0.351264 0.876418 -0.180526
C26   C     C_3   0.977875 0.357738 0.784093 -0.967331
C27   C     C_3   0.967191 0.740170 0.110151 0.261649
C28   C     C_3   0.963226 0.678876 0.086327 -0.358955
C29   C     C_3   0.045863 0.660997 0.088954 -0.799803
C30   C     C_3   0.169774 0.103418 0.418924 0.256456
C31   C     C_3   0.189160 0.151077 0.495206 -0.473079
C32   C     C_3   0.169769 0.206162 0.437787 -0.531266
C33   C     C_3   0.174765 0.904570 0.450606 0.158442
C34   C     C_3   0.241029 0.863906 0.454941 -0.153526
C35   C     C_R   0.322464 0.001139 0.301252 0.206134
C36   C     C_3   0.329318 0.858726 0.570379 -1.062517
C37   C     C_3   0.627760 0.598441 0.396757 0.221494
C38   C     C_3   0.657820 0.643294 0.482574 -0.418958
C39   C     C_3   0.652246 0.700254 0.437457 -0.543211
C40   C     C_3   0.574541 0.379649 0.383179 0.170526
C41   C     C_3   0.660408 0.387048 0.385598 -0.378026
C42   C     C_3   0.737965 0.350578 0.472401 -0.836435
C43   C     C_3   0.934281 0.820404 0.766347 0.212977
C44   C     C_3   0.931272 0.763362 0.806294 -0.375095
C45   C     C_3   0.833057 0.746265 0.759910 -0.910049
C46   C     C_R   0.809132 0.501626 0.352346 0.162886
C47   C     C_3   0.975700 0.185499 0.757538 0.096229
C48   C     C_3   0.950542 0.205769 0.646999 -0.266635
C49   C     C_3   0.856312 0.232520 0.579415 -0.863500
C50   C     C_3   0.470963 0.328549 0.742804 0.173225
C51   C     C_3   0.480396 0.266230 0.750864 -0.366765
C52   C     C_3   0.398994 0.238707 0.648619 -0.939639
C53   C     C_3   0.439372 0.683026 0.747349 0.106478
C54   C     C_3   0.411460 0.705348 0.636630 -0.298732
C55   C     C_3   0.308471 0.716135 0.558536 -0.780747
C56   C     C_R   0.946395 0.999307 0.638737 0.118373
C57   C     C_R   0.420645 0.502179 0.627295 0.130165
C58   C     C_R   0.148018 0.829715 0.000322 -0.130457
C59   C     C_R   0.162460 0.161544 0.000525 -0.125809
C60   C     C_R   0.674184 0.347521 0.002676 -0.112080
C61   C     C_R   0.948018 0.152249 0.093269 0.034016
C62   C     C_R   0.619115 0.685010 0.004590 -0.166632
C63   C     C_3   0.961871 0.050216 0.409506 -0.421971
C64   C     C_3   0.971153 0.948374 0.418136 -0.416407
C65   C     C_3   0.392168 0.549409 0.364674 -0.440001
C66   C     C_3   0.402456 0.447978 0.376811 -0.412895
C67   C     C_3   0.932347 0.051259 0.486241 0.383699
C68   C     C_3   0.942296 0.945808 0.495035 0.399238
C69   C     C_3   0.390150 0.555589 0.464783 0.391992
C70   C     C_3   0.380022 0.450053 0.460592 0.359376
C71   C     C_3   0.111024 0.005613 0.559266 -0.386165
C72   C     C_R   0.450527 0.346275 0.091251 0.064440
C73   C     C_3   0.547690 0.506475 0.500480 -0.408999
C74   C     C_3   0.028035 0.001086 0.437942 0.226286
C75   C     C_3   0.456053 0.500479 0.384997 0.258214
C76   C     C_3   0.970803 0.999864 0.561783 0.029347
C77   C     C_3   0.426440 0.501597 0.534460 0.062871
C78   C     C_R   0.855275 0.153120 0.911710 -0.159429
C79   C     C_R   0.812514 0.876396 0.914066 -0.157074
C80   C     C_R   0.352166 0.652104 0.911707 -0.191730
C81   C     C_R   0.357847 0.346284 0.911090 -0.161742
C82   C     C_3   0.077949 0.003432 0.632580 -0.570540
C83   C     C_R   0.442516 0.650616 0.093260 0.037486
C84   C     C_3   0.531274 0.497219 0.587189 -0.576394
C85   C     C_3   0.752837 0.207524 0.989560 -0.510767
C86   C     C_3   0.665579 0.818815 0.908342 -0.515951
C87   C     C_3   0.241839 0.694818 0.989257 -0.492858
C88   C     C_3   0.253437 0.298152 0.989452 -0.506566
C89   C     C_3   0.185455 0.734141 0.005929 -0.461363
C90   C     C_3   0.199007 0.257743 0.007680 -0.431357
C91   C     C_3   0.704677 0.250724 0.010593 -0.427669
C92   C     C_3   0.607583 0.776254 0.918102 -0.478903
C93   C     C_3   0.290678 0.767212 0.911391 0.413338
C94   C     C_R   0.074002 0.854823 0.908676 0.475902
C95   C     C_3   0.302326 0.227829 0.908712 0.398019
C96   C     C_3   0.811232 0.273401 0.913435 0.393037
C97   C     C_3   0.809998 0.762677 0.016381 0.410812
C98   C     C_3   0.897250 0.264740 0.122248 0.670673
C99   C     C_3   0.757492 0.822187 0.115364 0.701396
C100  C     C_3   0.378049 0.757251 0.120861 0.684962
C101  C     C_3   0.391372 0.236059 0.118225 0.690925
C102  C     C_3   0.841376 0.232285 0.009070 0.017069
C103  C     C_3   0.765615 0.818373 0.015241 -0.020142
C104  C     C_3   0.326665 0.725307 0.007904 0.001470
C105  C     C_R   0.084582 0.138432 0.908870 0.497082
C106  C     C_3   0.338562 0.269119 0.006064 0.013297
C107  C     C_3   0.213729 0.793265 0.002786 0.142716
C108  C     C_3   0.227502 0.199033 0.002376 0.123544
C109  C     C_3   0.738168 0.308338 0.005367 0.100589
C110  C     C_3   0.671615 0.734510 0.010889 0.122834
C111  C     C_3   0.212101 0.800259 0.898630 -0.425148
C112  C     C_3   0.224373 0.193922 0.897158 -0.426065
C113  C     C_3   0.738325 0.312290 0.901824 -0.399287
C114  C     C_3   0.744819 0.715023 0.994303 -0.426892
C115  C     C_3   0.314692 0.805005 0.105710 0.209445
C116  C     C_R   0.589813 0.365088 0.909541 0.503673
C117  C     C_3   0.328921 0.187269 0.103500 0.210520
C118  C     C_3   0.840489 0.316810 0.107708 0.233234
C119  C     C_3   0.722437 0.765369 0.124222 0.267908
C120  C     C_3   0.440260 0.975020 0.491873 0.254209
C121  C     C_3   0.471933 0.969247 0.347544 0.239836
C122  C     C_3   0.935266 0.464421 0.531742 0.267545
C123  C     C_3   0.952041 0.480251 0.376878 0.222663
C124  C     C_R   0.745388 0.955101 0.695027 0.363354
C125  C     C_R   0.747738 0.046239 0.695821 0.440075
C126  C     C_R   0.238392 0.454893 0.703726 0.393121
C127  C     C_R   0.560704 0.652740 0.912092 0.472378
C128  C     C_R   0.240211 0.546597 0.705294 0.444198
C129  C     C_3   0.544724 0.975428 0.584005 0.240165
C130  C     C_3   0.576708 0.967849 0.440624 0.278202
C131  C     C_3   0.041185 0.466386 0.616650 0.228322
C132  C     C_3   0.057571 0.479125 0.459871 0.285921
C133  C     C_3   0.459394 0.061241 0.414242 -0.371164
C134  C     C_3   0.942233 0.560829 0.477017 -0.391125
C135  C     C_3   0.421696 0.001860 0.386597 -0.114296
C136  C     C_3   0.907649 0.502123 0.433747 -0.074646
C137  C     C_3   0.598118 0.001468 0.541150 -0.125840
C138  C     C_R   0.167627 0.143632 0.091426 0.359887
C139  C     C_3   0.085069 0.502076 0.571311 -0.114402
C140  C     C_3   0.562313 0.060752 0.501459 -0.243703
C141  C     C_3   0.045797 0.561162 0.552311 -0.252343
C142  C     C_R   0.049827 0.045557 0.304062 0.489835
C143  C     C_R   0.053200 0.955064 0.306470 0.497248
C144  C     C_R   0.504188 0.545689 0.273414 0.453950
C145  C     C_R   0.499998 0.454026 0.269236 0.486403
C146  C     C_R   0.820726 0.861903 0.009923 0.093773
C147  C     C_R   0.889268 0.184654 0.004647 0.053316
C148  C     C_R   0.392011 0.313937 0.002553 0.042973
Cl1   Cl    Cl    0.810864 0.060882 0.411507 -0.429610
Cl2   Cl    Cl    0.677654 0.874956 0.091996 -0.545144
Cl3   Cl    Cl    0.395206 0.715553 0.231315 -0.694761
Cl4   Cl    Cl    0.409973 0.276208 0.230188 -0.671552
Cl5   Cl    Cl    0.352778 0.871992 0.098338 -0.533123
Cl6   Cl    Cl    0.367060 0.121098 0.092748 -0.518371
Cl7   Cl    Cl    0.886986 0.380707 0.099857 -0.470566
Cl8   Cl    Cl    0.817747 0.724476 0.234280 -0.483014
Cl9   Cl    Cl    0.371757 0.006087 0.530564 -0.698142
Cl10  Cl    Cl    0.443614 0.995148 0.218977 -0.373951
Cl11  Cl    Cl    0.871320 0.480155 0.586599 -0.641237
Cl12  Cl    Cl    0.823129 0.928385 0.422242 -0.381348
Cl13  Cl    Cl    0.911311 0.516653 0.251275 -0.479765
Cl14  Cl    Cl    0.732282 0.888323 0.645052 -0.753380
Cl15  Cl    Cl    0.752898 0.109825 0.645043 -0.752419
Cl16  Cl    Cl    0.219415 0.389180 0.647374 -0.744181
Cl17  Cl    Cl    0.231896 0.610763 0.648533 -0.750393
Cl18  Cl    Cl    0.574906 0.006872 0.709668 -0.588786
Cl19  Cl    Cl    0.647510 0.989327 0.398932 -0.308590
Cl20  Cl    Cl    0.078483 0.489263 0.750752 -0.593626
Cl21  Cl    Cl    0.116085 0.514674 0.413035 -0.342227
Cl22  Cl    Cl    0.204649 0.182423 0.209106 -0.695852
Cl23  Cl    Cl    0.279593 0.577833 0.424082 -0.508347
Cl24  Cl    Cl    0.191090 0.816614 0.209638 -0.770448
Cl25  Cl    Cl    0.653122 0.677247 0.209913 -0.694957
Cl26  Cl    Cl    0.721274 0.323860 0.213550 -0.702474
Cl27  Cl    Cl    0.259015 0.445269 0.394382 -0.440334
Cl28  Cl    Cl    0.012900 0.280851 0.168191 -0.478720
Cl29  Cl    Cl    0.856546 0.842021 0.247940 -0.532087
Cl30  Cl    Cl    0.491136 0.780097 0.166863 -0.462194
Cl31  Cl    Cl    0.504504 0.214900 0.162300 -0.452201
Cl32  Cl    Cl    0.910004 0.225427 0.232522 -0.670041
H1    H     H_    0.948123 0.861815 0.180655 0.221999
H2    H     H_    0.980406 0.911045 0.551998 0.060621
H3    H     H_    0.888169 0.276228 0.808018 0.075141
H4    H     H_    0.957413 0.392278 0.900314 0.248395
H5    H     H_    0.030569 0.333114 0.948643 0.228223
H6    H     H_    0.992594 0.317698 0.763150 0.242750
H7    H     H_    0.036620 0.385415 0.811039 0.324172
H8    H     H_    0.914772 0.375427 0.710501 0.306285
H9    H     H_    0.033432 0.748883 0.190184 0.192559
H10   H     H_    0.967333 0.765504 0.048804 0.073033
H11   H     H_    0.962102 0.655188 0.148638 0.274234
H12   H     H_    0.899585 0.669465 0.004179 0.187736
H13   H     H_    0.437978 0.589531 0.515218 0.051291
H14   H     H_    0.044756 0.681744 0.022684 0.230003
H15   H     H_    0.042818 0.616135 0.075886 0.293878
H16   H     H_    0.111062 0.670916 0.169310 0.291056
H17   H     H_    0.204439 0.110744 0.378400 0.158745
H18   H     H_    0.201286 0.066177 0.470737 0.096920
H19   H     H_    0.146168 0.146769 0.525877 0.211846
H20   H     H_    0.262210 0.149778 0.566863 0.179345
H21   H     H_    0.219761 0.213908 0.418313 0.264562
H22   H     H_    0.175527 0.239348 0.491625 0.229014
H23   H     H_    0.099395 0.206865 0.361090 0.315588
H24   H     H_    0.409165 0.412423 0.511542 0.052938
H25   H     H_    0.162737 0.891754 0.512017 0.111114
H26   H     H_    0.209237 0.945307 0.473321 0.138601
H27   H     H_    0.207387 0.823202 0.426540 0.238738
H28   H     H_    0.258931 0.878265 0.399930 0.229757
H29   H     H_    0.361242 0.899382 0.603541 0.319923
H30   H     H_    0.379132 0.832756 0.568812 0.286283
H31   H     H_    0.314071 0.839641 0.624904 0.252677
H32   H     H_    0.655929 0.606882 0.349649 0.155757
H33   H     H_    0.658823 0.559193 0.441586 0.067088
H34   H     H_    0.613864 0.641867 0.512263 0.221891
H35   H     H_    0.147516 0.044923 0.573482 0.173207
H36   H     H_    0.729989 0.635790 0.553931 0.184641
H37   H     H_    0.709531 0.706350 0.429646 0.266109
H38   H     H_    0.657270 0.731790 0.493528 0.226058
H39   H     H_    0.586081 0.705859 0.356480 0.321510
H40   H     H_    0.564406 0.335309 0.388344 0.217315
H41   H     H_    0.586446 0.397371 0.457770 0.079837
H42   H     H_    0.643782 0.376446 0.304474 0.250246
H43   H     H_    0.683288 0.430354 0.404811 0.212650
H44   H     H_    0.755087 0.360424 0.554338 0.249092
H45   H     H_    0.800031 0.356601 0.473986 0.282415
H46   H     H_    0.161301 0.972451 0.583338 0.162913
H47   H     H_    0.716176 0.307174 0.452712 0.286622
H48   H     H_    0.890662 0.820025 0.675401 0.194846
H49   H     H_    0.903744 0.850733 0.790805 0.145959
H50   H     H_    0.961073 0.733137 0.780261 0.224068
H51   H     H_    0.972202 0.763463 0.896877 0.186096
H52   H     H_    0.799674 0.777142 0.779779 0.272235
H53   H     H_    0.833581 0.706289 0.795443 0.255605
H54   H     H_    0.792718 0.741993 0.669817 0.281561
H55   H     H_    0.994439 0.221525 0.811552 0.086039
H56   H     H_    0.915962 0.164848 0.747193 0.179318
H57   H     H_    0.573979 0.548717 0.510923 0.196509
H58   H     H_    0.003063 0.235686 0.660608 0.188439
H59   H     H_    0.950114 0.171193 0.599307 0.227323
H60   H     H_    0.802058 0.202254 0.558439 0.319916
H61   H     H_    0.842955 0.248410 0.502218 0.297890
H62   H     H_    0.853554 0.266816 0.625386 0.236721
H63   H     H_    0.437454 0.338613 0.655369 0.163502
H64   H     H_    0.424636 0.342549 0.764814 0.113207
H65   H     H_    0.543289 0.253159 0.759269 0.224493
H66   H     H_    0.483289 0.252299 0.822872 0.191402
H67   H     H_    0.334386 0.249674 0.638343 0.268510
H68   H     H_    0.602913 0.479206 0.514932 0.181260
H69   H     H_    0.408427 0.193758 0.656837 0.262949
H70   H     H_    0.394334 0.251556 0.574715 0.291750
H71   H     H_    0.430563 0.715812 0.791402 0.089376
H72   H     H_    0.394453 0.648758 0.735322 0.184952
H73   H     H_    0.449147 0.744052 0.649818 0.190299
H74   H     H_    0.430973 0.675917 0.597501 0.225377
H75   H     H_    0.270011 0.677038 0.531292 0.337574
H76   H     H_    0.293351 0.737717 0.484782 0.271754
H77   H     H_    0.284779 0.741529 0.598546 0.241621
H78   H     H_    0.103239 0.040491 0.685608 0.209234
H79   H     H_    0.109549 0.967449 0.688312 0.198511
H80   H     H_    0.572157 0.527918 0.653527 0.210102
H81   H     H_    0.995235 0.164639 0.177183 0.211569
H82   H     H_    0.557949 0.456134 0.624907 0.214766
H83   H     H_    0.705197 0.192867 0.903533 0.199379
H84   H     H_    0.665482 0.807618 0.836669 0.189249
H85   H     H_    0.197632 0.678308 0.904312 0.204462
H86   H     H_    0.207641 0.314714 0.904610 0.203298
H87   H     H_    0.768081 0.171561 0.043297 0.258202
H88   H     H_    0.633238 0.859902 0.890209 0.256991
H89   H     H_    0.262410 0.659169 0.045209 0.247897
H90   H     H_    0.273788 0.333581 0.045634 0.258340
H91   H     H_    0.719180 0.243194 0.091934 0.284817
H92   H     H_    0.501296 0.331879 0.172942 0.198463
H93   H     H_    0.561115 0.796170 0.934372 0.210295
H94   H     H_    0.196728 0.725770 0.085550 0.255164
H95   H     H_    0.212065 0.265631 0.088247 0.278468
H96   H     H_    0.111744 0.727044 0.940271 0.190316
H97   H     H_    0.124611 0.264497 0.944183 0.185125
H98   H     H_    0.629919 0.245779 0.951057 0.189233
H99   H     H_    0.563958 0.757428 0.837180 0.236043
H100  H     H_    0.260758 0.745097 0.832848 0.012705
H101  H     H_    0.272347 0.250340 0.830416 0.022706
H102  H     H_    0.777357 0.250825 0.834543 0.006766
H103  H     H_    0.486036 0.662548 0.177556 0.226259
H104  H     H_    0.816357 0.762898 0.946936 0.022186
H105  H     H_    0.809695 0.166059 0.827773 0.162512
H106  H     H_    0.753540 0.870398 0.831216 0.173508
H107  H     H_    0.307990 0.665658 0.828435 0.167342
H108  H     H_    0.316073 0.332747 0.827629 0.171801
H109  H     H_    0.146697 0.783932 0.825613 0.195482
H110  H     H_    0.159036 0.211078 0.825765 0.176857
H111  H     H_    0.671730 0.299034 0.827889 0.176837
H112  H     H_    0.710253 0.700389 0.908690 0.171724
H113  H     H_    0.845531 0.322248 0.183459 0.174770
H114  H     H_    0.901040 0.047480 0.322486 0.221310
H115  H     H_    0.673408 0.772686 0.145179 0.193002
H116  H     H_    0.318339 0.807661 0.181163 0.172073
H117  H     H_    0.333291 0.183172 0.179394 0.165518
H118  H     H_    0.216265 0.844114 0.882073 0.209552
H119  H     H_    0.227362 0.150219 0.879435 0.222283
H120  H     H_    0.749400 0.355055 0.886574 0.228926
H121  H     H_    0.784206 0.679490 0.047864 0.217889
H122  H     H_    0.417729 0.931501 0.473941 0.042056
H123  H     H_    0.446292 0.926310 0.330459 0.084765
H124  H     H_    0.916409 0.421547 0.502052 0.026437
H125  H     H_    0.909626 0.948059 0.331409 0.248585
H126  H     H_    0.929366 0.437196 0.350588 0.085952
H127  H     H_    0.566262 0.932003 0.606319 0.086260
H128  H     H_    0.593587 0.924334 0.463132 0.131516
H129  H     H_    0.065966 0.423597 0.628619 0.104535
H130  H     H_    0.079328 0.435879 0.469470 0.136357
H131  H     H_    0.426908 0.085327 0.445751 0.218828
H132  H     H_    0.444092 0.082760 0.340057 0.244949
H133  H     H_    0.913746 0.576276 0.520911 0.226153
H134  H     H_    0.920996 0.589885 0.409055 0.226682
H135  H     H_    0.576981 0.086799 0.570472 0.230152
H136  H     H_    0.321852 0.541869 0.289137 0.223457
H137  H     H_    0.595515 0.079380 0.465367 0.273411
H138  H     H_    0.068808 0.581375 0.630635 0.224240
H139  H     H_    0.067468 0.586470 0.510083 0.270469
H140  H     H_    0.290992 0.912551 0.281003 0.144081
H141  H     H_    0.286805 0.088700 0.283841 0.153692
H142  H     H_    0.780925 0.413807 0.323968 0.171154
H143  H     H_    0.771792 0.589421 0.318603 0.154770
H144  H     H_    0.936191 0.085806 0.665718 0.172476
H145  H     H_    0.949212 0.911982 0.675074 0.163265
H146  H     H_    0.442672 0.588025 0.671404 0.150316
H147  H     H_    0.339082 0.443324 0.291926 0.227083
H148  H     H_    0.399948 0.419689 0.654179 0.133698
H149  H     H_    0.995949 0.089918 0.419664 0.209835
H150  H     H_    0.010707 0.910771 0.431703 0.203122
H151  H     H_    0.414768 0.588955 0.352007 0.234189
H152  H     H_    0.442700 0.410470 0.395856 0.195500
H153  H     H_    0.274168 0.831818 0.771548 0.070735
H154  H     H_    0.372428 0.792771 0.806195 0.045605
H155  H     H_    0.469870 0.873016 0.947241 0.287177
H156  H     H_    0.422116 0.880988 0.805156 0.160523
H157  H     H_    0.289455 0.932538 0.772429 0.199407
H158  H     H_    0.963941 0.088294 0.537973 0.040642
H159  H     H_    0.396214 0.963302 0.881741 0.266222
H160  H     H_    0.330623 0.922562 0.913240 0.309852
H161  H     H_    0.370089 0.193340 0.790390 0.111136
H162  H     H_    0.278646 0.155368 0.776839 0.066195
H163  H     H_    0.484123 0.124485 0.921190 0.238537
H164  H     H_    0.394661 0.087633 0.916397 0.258194
H165  H     H_    0.314620 0.070405 0.715388 0.246890
H166  H     H_    0.429796 0.043297 0.797705 0.315134
H167  H     H_    0.406971 0.105693 0.722456 0.282907
H168  H     H_    0.819827 0.337005 0.780929 0.086186
N1    N     N_R   0.950530 0.896220 0.057200 -0.060477
N2    N     N_R   0.818150 0.028600 0.792440 -0.097223
N3    N     N_R   0.318150 0.471400 0.792440 -0.100346
N4    N     N_R   0.318150 0.528600 0.792440 -0.106987
N5    N     N_R   0.025710 0.028600 0.207560 -0.119219
N6    N     N_R   0.025710 0.971400 0.207560 -0.111615
N7    N     N_R   0.525710 0.528600 0.207560 -0.135682
N8    N     N_R   0.525710 0.471400 0.207560 -0.134418
N9    N     N_R   0.181850 0.971400 0.207560 -0.049318
N10   N     N_R   0.181850 0.028600 0.207560 -0.069361
N11   N     N_R   0.681850 0.471400 0.207560 -0.046019
N12   N     N_R   0.950530 0.103780 0.057200 -0.060713
N13   N     N_R   0.681850 0.528600 0.207560 -0.046673
N14   N     N_R   0.974290 0.028600 0.792440 -0.055608
N15   N     N_R   0.974290 0.971400 0.792440 -0.062816
N16   N     N_R   0.474290 0.528600 0.792440 -0.052850
N17   N     N_R   0.474290 0.471400 0.792440 -0.051146
N18   N     N_R   0.049470 0.896220 0.942800 -0.129718
N19   N     N_R   0.049470 0.103780 0.942800 -0.120341
N20   N     N_R   0.549470 0.396220 0.942800 -0.128667
N21   N     N_R   0.549470 0.603780 0.942800 -0.115967
N22   N     N_R   0.106670 0.103780 0.057200 -0.105788
N23   N     N_R   0.450530 0.396220 0.057200 -0.060824
N24   N     N_R   0.106670 0.896220 0.057200 -0.094671
N25   N     N_R   0.606670 0.603780 0.057200 -0.110699
N26   N     N_R   0.606670 0.396220 0.057200 -0.108060
N27   N     N_R   0.450530 0.603780 0.057200 -0.063741
N28   N     N_R   0.893330 0.103780 0.942800 -0.040875
N29   N     N_R   0.893330 0.896220 0.942800 -0.061700
N30   N     N_R   0.393330 0.603780 0.942800 -0.048030
N31   N     N_R   0.393330 0.396220 0.942800 -0.042883
N32   N     N_R   0.818150 0.971400 0.792440 -0.097777
Ni1   Ni    Ni4+2 0.065600 0.934400 0.131190 0.274592
Ni2   Ni    Ni4+2 0.065600 0.065600 0.131190 0.262184
Ni3   Ni    Ni4+2 0.565600 0.434400 0.131190 0.233337
Ni4   Ni    Ni4+2 0.565600 0.565600 0.131190 0.246232
Ni5   Ni    Ni4+2 0.934400 0.065600 0.868810 0.253929
Ni6   Ni    Ni4+2 0.934400 0.934400 0.868810 0.239594
Ni7   Ni    Ni4+2 0.434400 0.565600 0.868810 0.244220
Ni8   Ni    Ni4+2 0.434400 0.434400 0.868810 0.242195
O1    O     O_3   0.362628 0.802836 0.934483 -0.557156
O2    O     O_3   0.049168 0.148378 0.801192 -0.693942
O3    O     O_3   0.557083 0.355663 0.801851 -0.686113
O4    O     O_3   0.531116 0.664717 0.806852 -0.676322
O5    O     O_3   0.374676 0.193328 0.930083 -0.572348
O6    O     O_3   0.888576 0.303821 0.937873 -0.573566
O7    O     O_3   0.896055 0.755210 0.119708 -0.596314
O8    O     O_3   0.073800 0.099108 0.338405 -0.649730
O9    O     O_3   0.090005 0.903182 0.345170 -0.647544
O10   O     O_3   0.530491 0.595861 0.325570 -0.638350
O11   O     O_3   0.492541 0.399429 0.286243 -0.643223
O12   O     O_3   0.024547 0.834619 0.802956 -0.700601

loop_
_geom_bond_atom_site_label_1
_geom_bond_atom_site_label_2
_ccdc_geom_bond_type
N14   Ni5   S    
C99   C103  S    
C144  N7    A    
C7    C75   S    
N9    N10   A    
C96   C102  S    
C67   Cl1   S    
C85   H87   S    
C39   H38   S    
C86   H88   S    
C24   Cl26  S    
C17   H153  S    
C65   H136  S    
C13   Cl25  S    
C68   H2    S    
C121  H123  S    
C4    C125  A    
C122  H124  S    
C49   H60   S    
C117  H117  S    
C100  C104  S    
N23   Ni3   S    
C53   H71   S    
C32   H21   S    
C15   H146  S    
C118  H113  S    
C130  Cl19  S    
N19   Ni5   S    
N12   Ni2   S    
C5    C126  A    
C5    C139  S    
C134  H134  S    
C78   H105  S    
C71   C82   S    
C79   H106  S    
C21   C22   S    
C115  Cl5   S    
C73   C75   S    
C84   H82   S    
C100  C115  S    
C85   H83   S    
C86   H84   S    
C31   H20   S    
C142  O8    S    
C109  C118  S    
C47   H55   S    
C70   H24   S    
C137  C140  S    
C112  H119  S    
C51   C52   S    
C45   H54   S    
C97   H104  S    
C1    H1    S    
C23   H168  S    
C98   C102  S    
C97   O7    S    
C8    C35   A    
C91   H98   S    
C43   C44   S    
C37   C38   S    
C23   O6    S    
N7    N8    A    
C145  O11   S    
C69   H13   S    
C81   H108  S    
C80   N30   A    
C121  C135  S    
C122  C136  S    
C97   C103  S    
C25   H5    S    
C113  H120  S    
C87   C89   S    
C3    C83   A    
C111  H109  S    
C35   C135  S    
C48   H59   S    
N21   Ni7   S    
N13   Ni4   S    
C45   H53   S    
C20   H162  S    
C49   H61   S    
C63   C74   S    
C34   H27   S    
C113  H111  S    
C114  H112  S    
C77   C84   S    
C40   H41   S    
C120  C135  S    
C128  N4    A    
C32   H23   S    
C105  N19   A    
C61   H81   S    
C19   H157  S    
C134  C141  S    
N20   N26   A    
C129  H127  S    
C30   C31   S    
C53   O4    S    
C5    C128  A    
C11   H143  S    
N18   Ni6   S    
N19   N22   A    
C2    C58   A    
N1    Ni1   S    
C99   C119  S    
C129  C137  S    
C20   C21   S    
C133  C135  S    
C11   C46   A    
C63   H149  S    
C68   Cl12  S    
C52   H70   S    
C38   H34   S    
C123  C132  S    
C82   H78   S    
C69   C77   S    
C66   H147  S    
C124  N32   A    
C121  C130  S    
C100  Cl30  S    
C22   H166  S    
C66   C70   S    
C53   C54   S    
C132  C139  S    
C131  H129  S    
C33   H25   S    
C129  Cl18  S    
C90   H97   S    
C64   C68   S    
C39   H39   S    
C51   H65   S    
C38   C39   S    
C123  Cl13  S    
C145  N8    A    
C65   C69   S    
N14   N15   A    
C19   H160  S    
N16   N17   A    
C4    C124  A    
C58   C107  S    
N16   Ni7   S    
C60   C109  S    
C4    C137  S    
C26   H8    S    
C55   H75   S    
C95   H101  S    
C16   H148  S    
C13   N25   A    
C110  C114  S    
C133  H132  S    
C24   N26   A    
C41   H42   S    
C89   H94   S    
C70   C77   S    
C54   H74   S    
C42   H44   S    
C98   C118  S    
C79   C146  A    
N2    Ni5   S    
N23   N31   A    
C120  C129  S    
C119  H115  S    
C67   H158  S    
C18   H156  S    
C50   H63   S    
C76   C82   S    
C64   H150  S    
C143  N6    A    
C59   C138  A    
C25   C26   S    
C29   H15   S    
C140  H135  S    
C141  H138  S    
C105  O2    S    
C21   H163  S    
C23   H3    S    
C95   C106  S    
C102  C147  S    
C116  N20   A    
C31   C32   S    
C138  N22   A    
C111  H118  S    
C17   C18   S    
N32   Ni6   S    
C41   H43   S    
C45   H52   S    
C121  Cl10  S    
C128  Cl17  S    
C60   C116  A    
C28   H11   S    
C122  C131  S    
C43   H48   S    
N27   N30   A    
C101  C106  S    
C54   C55   S    
C40   C41   S    
C30   H18   S    
C2    N24   A    
C108  C117  S    
C39   H37   S    
N5    Ni2   S    
C110  C119  S    
C11   N13   A    
C48   H58   S    
N7    Ni4   S    
C68   C76   S    
C132  H130  S    
C90   C108  S    
C143  O9    S    
C139  C141  S    
C92   C110  S    
C43   O12   S    
C71   H35   S    
C16   N17   A    
C34   C36   S    
C32   H22   S    
C131  C139  S    
C61   N12   A    
C127  O4    S    
C26   H6    S    
C97   C114  S    
C40   H40   S    
C85   C102  S    
C2    Cl24  S    
C7    C145  A    
N2    N32   A    
C3    C104  S    
C78   N28   A    
C119  Cl8   S    
N31   Ni8   S    
N8    Ni3   S    
C41   C42   S    
N29   Ni6   S    
C31   H19   S    
N5    N6    A    
C140  H137  S    
C59   C105  A    
C123  H126  S    
C28   C29   S    
C44   H51   S    
N1    N29   A    
C95   C112  S    
C17   O1    S    
C62   C127  A    
N22   Ni2   S    
C18   C19   S    
C69   Cl23  S    
C37   H33   S    
N6    Ni1   S    
C13   C62   A    
N3    N4    A    
C122  Cl11  S    
C27   H10   S    
C6    C142  A    
C65   H151  S    
C25   H4    S    
C36   H29   S    
C94   O12   S    
N27   Ni4   S    
C125  N2    A    
C12   N14   A    
C107  C111  S    
C3    C80   A    
C120  H122  S    
C17   H154  S    
C6    C74   S    
C124  Cl14  S    
C99   Cl2   S    
C9    H141  S    
C57   C77   S    
C1    N1    A    
C18   H155  S    
C34   H28   S    
C114  H121  S    
C108  C112  S    
C55   H77   S    
C53   H72   S    
C37   H32   S    
C98   Cl28  S    
C81   C148  A    
C89   C107  S    
N17   Ni8   S    
C50   C51   S    
C64   H125  S    
C79   N29   A    
C134  H133  S    
C78   C147  A    
C87   H85   S    
N4    Ni7   S    
N21   N25   A    
C88   H90   S    
C48   C49   S    
C88   C90   S    
C93   O1    S    
N24   Ni1   S    
N3    Ni8   S    
C71   H46   S    
C96   C113  S    
C40   O11   S    
C132  Cl21  S    
C52   H67   S    
N18   N24   A    
N30   Ni7   S    
C44   C45   S    
C47   H56   S    
C83   N27   A    
C82   H79   S    
C141  H139  S    
C71   C74   S    
C22   H167  S    
C43   H49   S    
C101  Cl4   S    
C50   H64   S    
C127  N21   A    
C101  C117  S    
C61   C147  A    
C19   H159  S    
C66   C75   S    
C16   C57   A    
C10   H142  S    
C58   C94   A    
N25   Ni4   S    
C95   O5    S    
C83   H103  S    
C37   O10   S    
C36   H31   S    
C87   C104  S    
C133  C140  S    
C117  Cl6   S    
C9    C35   A    
C64   C74   S    
C33   O9    S    
C130  C137  S    
C133  H131  S    
C27   O7    S    
C20   O5    S    
C14   C56   A    
C56   C76   S    
C138  Cl22  S    
C112  H110  S    
C66   H152  S    
C20   H161  S    
C49   H62   S    
C85   C91   S    
C73   H68   S    
C42   H47   S    
C8    H140  S    
C14   N15   A    
C99   Cl29  S    
C91   H91   S    
C47   O2    S    
C14   H145  S    
C29   H14   S    
C106  C148  S    
C55   H76   S    
C44   H50   S    
C93   H100  S    
C10   C46   A    
C89   H96   S    
N9    Ni1   S    
C90   H95   S    
N11   Ni3   S    
C70   Cl27  S    
C73   C84   S    
C109  C113  S    
C15   C57   A    
C1    C146  A    
C125  Cl15  S    
N15   Ni6   S    
C126  Cl16  S    
C86   C103  S    
C28   H12   S    
C93   C104  S    
C7    C144  A    
C22   H165  S    
C100  Cl3   S    
C63   C67   S    
C33   H26   S    
N28   Ni5   S    
C51   H66   S    
C30   O8    S    
C134  C136  S    
C72   C148  A    
C63   H114  S    
C96   H102  S    
C73   H57   S    
C101  Cl31  S    
C88   C106  S    
C26   H7    S    
C144  O10   S    
C47   C48   S    
C62   C110  S    
C24   C60   A    
C33   C34   S    
C118  Cl7   S    
N11   N13   A    
C116  O3    S    
N20   Ni8   S    
C12   H144  S    
C72   N23   A    
C107  C115  S    
C12   C56   A    
C81   N31   A    
C10   N11   A    
C93   C111  S    
C131  Cl20  S    
C50   O3    S    
C96   O6    S    
C54   H73   S    
N26   Ni3   S    
C52   H69   S    
C42   H45   S    
C126  N3    A    
C80   H107  S    
C115  H116  S    
C84   H80   S    
C15   N16   A    
C38   H36   S    
C9    N10   A    
N10   Ni2   S    
C29   H16   S    
C8    N9    A    
C59   C108  S    
C65   C75   S    
C123  C136  S    
C91   C109  S    
C92   H99   S    
C92   H93   S    
C21   H164  S    
C86   C92   S    
C87   H89   S    
C88   H86   S    
C120  Cl9   S    
C130  H128  S    
C23   C25   S    
C46   C136  S    
C30   H17   S    
C142  N5    A    
C27   C28   S    
C72   H92   S    
C67   C76   S    
C27   H9    S    
C6    C143  A    
C98   Cl32  S    
C94   N18   A    
C103  C146  S    
C36   H30   S    
N12   N28   A    
