data_mof_unit_pretest_970.cif
_audit_creation_date              2012-10-26T21:32:55-0400
_audit_creation_method            fapswitch 2.2
_symmetry_space_group_name_H-M    P1
_symmetry_Int_Tables_number       1
_space_group_crystal_system       triclinic
_cell_length_a                    28.190604
_cell_length_b                    18.503678
_cell_length_c                    17.074312
_cell_angle_alpha                 89.885217
_cell_angle_beta                  60.730926
_cell_angle_gamma                 89.824517
_cell_volume                      7769.37341134

loop_
_atom_site_label
_atom_site_type_symbol
_atom_type_description
_atom_site_fract_x
_atom_site_fract_y
_atom_site_fract_z
_atom_type_partial_charge
C1    C     C_R   0.701790 0.268710 0.675890 0.911848
C2    C     C_R   0.980311 0.630335 0.396937 -0.214945
C3    C     C_R   0.073943 0.900250 0.934074 0.911116
C4    C     C_R   0.573930 0.599663 0.933993 0.910207
C5    C     C_R   0.426005 0.400417 0.066058 0.910896
C6    C     C_R   0.425966 0.599633 0.066003 0.910758
C7    C     C_R   0.573825 0.400171 0.934151 0.911535
C8    C     C_R   0.558943 0.997991 0.471348 0.019285
C9    C     C_R   0.470398 0.998579 0.437986 0.019726
C10   C     C_R   0.072666 0.500203 0.428133 0.020349
C11   C     C_R   0.978155 0.499976 0.409943 0.015944
C12   C     C_R   0.546535 0.061412 0.437991 0.049991
C13   C     C_R   0.980407 0.369515 0.398812 -0.212830
C14   C     C_R   0.489638 0.932835 0.454333 0.049642
C15   C     C_R   0.498991 0.063370 0.428874 0.048610
C16   C     C_R   0.529658 0.933830 0.481266 0.048187
C17   C     C_R   0.051846 0.566267 0.415632 0.054079
C18   C     C_R   0.004253 0.433757 0.407334 0.049414
C19   C     C_R   0.004066 0.566296 0.406850 0.049478
C20   C     C_R   0.052286 0.434067 0.415348 0.051783
C21   C     C_R   0.613457 0.935861 0.528198 0.077583
C22   C     C_R   0.397814 0.065120 0.428334 0.069843
C23   C     C_R   0.396283 0.933312 0.433311 0.067528
C24   C     C_R   0.080047 0.629818 0.412173 -0.228618
C25   C     C_R   0.632590 0.061043 0.479861 0.062191
C26   C     C_R   0.137037 0.434643 0.461709 0.068127
C27   C     C_R   0.899229 0.565815 0.419698 0.068938
C28   C     C_R   0.899245 0.433968 0.420433 0.069437
C29   C     C_R   0.136562 0.565828 0.462392 0.071816
C30   C     C_R   0.660098 0.936009 0.540623 -0.131911
C31   C     C_R   0.343649 0.064830 0.441366 -0.129755
C32   C     C_R   0.343053 0.934746 0.442991 -0.128532
C33   C     C_R   0.670553 0.062507 0.512400 -0.115451
C34   C     C_R   0.173448 0.435868 0.498370 -0.113657
C35   C     C_R   0.539156 0.873758 0.522405 -0.224218
C36   C     C_R   0.843612 0.564972 0.440184 -0.128079
C37   C     C_R   0.843624 0.434959 0.440476 -0.128397
C38   C     C_R   0.173278 0.564326 0.498621 -0.114567
C39   C     C_R   0.683976 0.000241 0.541359 -0.302811
C40   C     C_R   0.318624 0.999946 0.444516 -0.297198
C41   C     C_R   0.188735 0.500015 0.519114 -0.317063
C42   C     C_R   0.817798 0.500022 0.447715 -0.295581
C43   C     C_R   0.601306 0.998472 0.493836 0.072510
C44   C     C_R   0.421658 0.999083 0.432489 0.075999
C45   C     C_R   0.114786 0.500235 0.452127 0.073154
C46   C     C_R   0.478555 0.127571 0.411790 -0.216802
C47   C     C_R   0.925631 0.499905 0.416305 0.079859
C48   C     C_R   0.123721 0.371564 0.430026 -0.185027
C49   C     C_R   0.929900 0.629702 0.400818 -0.190355
C50   C     C_R   0.929963 0.369990 0.402736 -0.190694
C51   C     C_R   0.122424 0.629126 0.431849 -0.189563
C52   C     C_R   0.579160 0.875540 0.547629 -0.175343
C53   C     C_R   0.429319 0.128275 0.410957 -0.186058
C54   C     C_R   0.425594 0.868898 0.424225 -0.180860
C55   C     C_R   0.625636 0.118787 0.432179 -0.180368
C56   C     C_R   0.469298 0.868133 0.440226 -0.226962
C57   C     C_R   0.582513 0.120039 0.414388 -0.219017
C58   C     C_R   0.720526 0.265370 0.953907 0.116940
C59   C     C_R   0.278765 0.734755 0.047014 0.116033
C60   C     C_R   0.278588 0.267108 0.046874 0.114679
C61   C     C_R   0.298169 0.731215 0.324174 0.873119
C62   C     C_R   0.720648 0.734070 0.953895 0.116590
C63   C     C_R   0.219997 0.762981 0.954067 0.115072
C64   C     C_R   0.778553 0.233205 0.047018 0.116281
C65   C     C_R   0.778983 0.766486 0.046484 0.116772
C66   C     C_R   0.220331 0.234560 0.954202 0.114729
C67   C     C_R   0.743903 0.196831 0.946666 -0.180611
C68   C     C_R   0.221543 0.733875 0.092552 -0.178609
C69   C     C_R   0.254938 0.198778 0.055121 -0.181544
C70   C     C_R   0.744199 0.802455 0.945849 -0.180282
C71   C     C_R   0.277206 0.763802 0.908563 -0.177944
C72   C     C_R   0.298074 0.268982 0.324235 0.869680
C73   C     C_R   0.755141 0.301718 0.054307 -0.182928
C74   C     C_R   0.755414 0.698114 0.054554 -0.180435
C75   C     C_R   0.243939 0.302921 0.946013 -0.178553
C76   C     C_R   0.772377 0.180902 0.992746 -0.177620
C77   C     C_R   0.192591 0.747810 0.046734 -0.181232
C78   C     C_R   0.226370 0.182679 0.009319 -0.176767
C79   C     C_R   0.772813 0.818489 0.991614 -0.175539
C80   C     C_R   0.306147 0.749901 0.954363 -0.181666
C81   C     C_R   0.726678 0.317646 0.008229 -0.178204
C82   C     C_R   0.726802 0.682081 0.008793 -0.176121
C83   C     C_R   0.701848 0.731169 0.675815 0.891601
C84   C     C_R   0.272520 0.319020 0.991819 -0.175098
C85   C     C_R   0.643038 0.325996 0.946261 -0.206763
C86   C     C_R   0.356232 0.673445 0.054274 -0.206397
C87   C     C_R   0.356193 0.327566 0.054342 -0.202265
C88   C     C_R   0.643288 0.673247 0.946092 -0.205145
C89   C     C_R   0.142925 0.825155 0.946450 -0.205992
C90   C     C_R   0.856344 0.173039 0.054252 -0.204151
C91   C     C_R   0.856461 0.827143 0.054122 -0.203958
C92   C     C_R   0.143079 0.173572 0.946260 -0.204080
C93   C     C_R   0.616146 0.346765 0.898551 -0.064864
C94   C     C_R   0.201711 0.768558 0.675891 0.913110
C95   C     C_R   0.383513 0.652971 0.101598 -0.066345
C96   C     C_R   0.383381 0.347577 0.101829 -0.065944
C97   C     C_R   0.616357 0.652796 0.898358 -0.064350
C98   C     C_R   0.116089 0.846453 0.898695 -0.065758
C99   C     C_R   0.883565 0.152834 0.101647 -0.065928
C100  C     C_R   0.883529 0.847363 0.101724 -0.064298
C101  C     C_R   0.116270 0.152911 0.898412 -0.064950
C102  C     C_R   0.632911 0.321889 0.813351 -0.260742
C103  C     C_R   0.366942 0.677998 0.186668 -0.264711
C104  C     C_R   0.366729 0.322371 0.186883 -0.265154
C105  C     C_R   0.798132 0.231138 0.324157 0.869957
C106  C     C_R   0.633097 0.677852 0.813203 -0.265517
C107  C     C_R   0.132825 0.821751 0.813416 -0.260458
C108  C     C_R   0.866938 0.177949 0.186694 -0.264123
C109  C     C_R   0.866856 0.822192 0.186809 -0.265619
C110  C     C_R   0.133080 0.177847 0.813185 -0.260772
C111  C     C_R   0.679363 0.281169 0.771061 -0.058606
C112  C     C_R   0.320376 0.718426 0.229228 -0.043987
C113  C     C_R   0.320253 0.281981 0.229231 -0.043365
C114  C     C_R   0.679455 0.718508 0.770984 -0.053109
C115  C     C_R   0.179171 0.780852 0.771064 -0.058004
C116  C     C_R   0.798130 0.768873 0.324201 0.889060
C117  C     C_R   0.820344 0.218352 0.229147 -0.044411
C118  C     C_R   0.820448 0.781647 0.229087 -0.051170
C119  C     C_R   0.179400 0.218585 0.771013 -0.058593
C120  C     C_R   0.707540 0.259676 0.817183 -0.197242
C121  C     C_R   0.291947 0.739723 0.183548 -0.203129
C122  C     C_R   0.291850 0.261225 0.183380 -0.203190
C123  C     C_R   0.707571 0.739770 0.817144 -0.197139
C124  C     C_R   0.207108 0.758669 0.817219 -0.198134
C125  C     C_R   0.791837 0.239264 0.183377 -0.206425
C126  C     C_R   0.792206 0.760605 0.183061 -0.196913
C127  C     C_R   0.201836 0.231194 0.675819 0.912505
C128  C     C_R   0.207423 0.240007 0.817268 -0.196273
C129  C     C_R   0.689532 0.282470 0.905764 0.073762
C130  C     C_R   0.309863 0.717308 0.094926 0.073935
C131  C     C_R   0.309674 0.284250 0.094885 0.073398
C132  C     C_R   0.689665 0.716836 0.905720 0.072663
C133  C     C_R   0.189039 0.780806 0.906018 0.074252
C134  C     C_R   0.809708 0.216287 0.094928 0.073916
C135  C     C_R   0.810039 0.783641 0.094555 0.072108
C136  C     C_R   0.189435 0.217202 0.905920 0.073586
C137  C     C_R   0.696820 0.127941 0.516879 0.908938
C138  C     C_R   0.081271 0.370743 0.410588 -0.222146
C139  C     C_R   0.308540 0.870671 0.465507 0.905160
C140  C     C_R   0.308905 0.129415 0.464530 0.900161
C141  C     C_R   0.691603 0.870949 0.532688 0.898133
C142  C     C_R   0.197079 0.628290 0.514821 0.913142
C143  C     C_R   0.808812 0.370618 0.464674 0.900502
C144  C     C_R   0.808812 0.629435 0.464618 0.898068
C145  C     C_R   0.197103 0.371695 0.514771 0.911719
C146  C     C_R   0.073902 0.099695 0.934015 0.910909
C147  C     C_R   0.926037 0.900377 0.066034 0.910106
C148  C     C_R   0.926101 0.099741 0.065906 0.911064
H1    H     H_    0.715985 0.000841 0.559254 0.193260
H2    H     H_    0.417531 0.178985 0.394168 0.174353
H3    H     H_    0.416039 0.818120 0.404450 0.177572
H4    H     H_    0.653820 0.163271 0.405745 0.177134
H5    H     H_    0.072765 0.319370 0.390598 0.136824
H6    H     H_    0.999298 0.682461 0.386973 0.135771
H7    H     H_    0.999276 0.317290 0.390239 0.137408
H8    H     H_    0.070845 0.681409 0.393405 0.134359
H9    H     H_    0.514167 0.825849 0.539413 0.141890
H10   H     H_    0.498700 0.178888 0.402366 0.139375
H11   H     H_    0.488228 0.816632 0.437815 0.142238
H12   H     H_    0.277565 0.000186 0.454573 0.199338
H13   H     H_    0.579300 0.166695 0.379231 0.139051
H14   H     H_    0.710188 0.371521 0.014103 0.130500
H15   H     H_    0.350135 0.751912 0.917288 0.130141
H16   H     H_    0.289183 0.372741 0.985112 0.132681
H17   H     H_    0.710225 0.628317 0.015348 0.129866
H18   H     H_    0.148598 0.745896 0.083798 0.129566
H19   H     H_    0.788908 0.127050 0.986843 0.130146
H20   H     H_    0.789403 0.872246 0.985052 0.129681
H21   H     H_    0.209753 0.128932 0.015994 0.132588
H22   H     H_    0.739382 0.155022 0.906534 0.129527
H23   H     H_    0.214942 0.499897 0.549140 0.192513
H24   H     H_    0.199037 0.720956 0.163402 0.129712
H25   H     H_    0.259355 0.157171 0.095790 0.131124
H26   H     H_    0.739714 0.844115 0.905303 0.128858
H27   H     H_    0.299729 0.776758 0.837734 0.133154
H28   H     H_    0.759681 0.343548 0.094397 0.130169
H29   H     H_    0.759907 0.656443 0.095081 0.129166
H30   H     H_    0.239544 0.344502 0.905295 0.131433
H31   H     H_    0.628497 0.345143 0.014145 0.146525
H32   H     H_    0.369429 0.652267 0.987647 0.148303
H33   H     H_    0.370619 0.346959 0.986550 0.148355
H34   H     H_    0.775360 0.500101 0.464809 0.199605
H35   H     H_    0.628802 0.653933 0.013934 0.146952
H36   H     H_    0.129639 0.846108 0.013208 0.147516
H37   H     H_    0.870768 0.153725 0.986468 0.148246
H38   H     H_    0.870888 0.846543 0.986332 0.147912
H39   H     H_    0.128518 0.154372 0.014167 0.146700
H40   H     H_    0.611859 0.338630 0.777474 0.177123
H41   H     H_    0.388214 0.661557 0.222296 0.175575
H42   H     H_    0.387972 0.338496 0.222553 0.175540
H43   H     H_    0.612061 0.661351 0.777332 0.175228
H44   H     H_    0.111914 0.838866 0.777447 0.177220
H45   H     H_    0.145949 0.321621 0.416846 0.185935
H46   H     H_    0.888246 0.161672 0.222325 0.175295
H47   H     H_    0.887995 0.838508 0.222581 0.174776
H48   H     H_    0.112128 0.161194 0.777234 0.177321
H49   H     H_    0.744798 0.228599 0.782956 0.151474
H50   H     H_    0.255387 0.772196 0.217402 0.147415
H51   H     H_    0.254576 0.230418 0.217758 0.148307
H52   H     H_    0.744729 0.770825 0.782919 0.151514
H53   H     H_    0.243475 0.725813 0.783546 0.149528
H54   H     H_    0.754461 0.270087 0.217765 0.148135
H55   H     H_    0.755013 0.729626 0.217341 0.151195
H56   H     H_    0.916247 0.680377 0.387450 0.174283
H57   H     H_    0.244564 0.271097 0.783072 0.151714
H58   H     H_    0.916397 0.319066 0.390307 0.176042
H59   H     H_    0.143850 0.679459 0.419780 0.185087
H60   H     H_    0.581567 0.829693 0.584833 0.168415
O1    O     O_R   0.746490 0.236330 0.638080 -0.632759
O2    O     O_R   0.325830 0.813840 0.483730 -0.641574
O3    O     O_R   0.325830 0.186160 0.483730 -0.636677
O4    O     O_R   0.674170 0.813840 0.516270 -0.637520
O5    O     O_R   0.174170 0.686160 0.516270 -0.648597
O6    O     O_R   0.825830 0.313840 0.483730 -0.637341
O7    O     O_R   0.825830 0.686160 0.483730 -0.636063
O8    O     O_R   0.174170 0.313840 0.516270 -0.647733
O9    O     O_R   0.739960 0.127620 0.525000 -0.630168
O10   O     O_R   0.260040 0.872380 0.475000 -0.626660
O11   O     O_R   0.260040 0.127620 0.475000 -0.625750
O12   O     O_R   0.253510 0.763670 0.361920 -0.653470
O13   O     O_R   0.739960 0.872380 0.525000 -0.622546
O14   O     O_R   0.239960 0.627620 0.525000 -0.626319
O15   O     O_R   0.760040 0.372380 0.475000 -0.626614
O16   O     O_R   0.760040 0.627620 0.475000 -0.627236
O17   O     O_R   0.239960 0.372380 0.525000 -0.626712
O18   O     O_R   0.680700 0.294870 0.629350 -0.622646
O19   O     O_R   0.319300 0.705130 0.370650 -0.638239
O20   O     O_R   0.319300 0.294870 0.370650 -0.638436
O21   O     O_R   0.680700 0.705130 0.629350 -0.632591
O22   O     O_R   0.180700 0.794870 0.629350 -0.622642
O23   O     O_R   0.253510 0.236330 0.361920 -0.653235
O24   O     O_R   0.819300 0.205130 0.370650 -0.638660
O25   O     O_R   0.819300 0.794870 0.370650 -0.635211
O26   O     O_R   0.180700 0.205130 0.629350 -0.622154
O27   O     O_R   0.062020 0.072840 0.007170 -0.629535
O28   O     O_R   0.937980 0.927160 0.992830 -0.629218
O29   O     O_R   0.937980 0.072840 0.992830 -0.629170
O30   O     O_R   0.062020 0.927160 0.007170 -0.629391
O31   O     O_R   0.562020 0.572840 0.007170 -0.629783
O32   O     O_R   0.437980 0.427160 0.992830 -0.628384
O33   O     O_R   0.437980 0.572840 0.992830 -0.629096
O34   O     O_R   0.746490 0.763670 0.638080 -0.634655
O35   O     O_R   0.562020 0.427160 0.007170 -0.630148
O36   O     O_R   0.947860 0.073950 0.109290 -0.624117
O37   O     O_R   0.052140 0.926050 0.890710 -0.622542
O38   O     O_R   0.052140 0.073950 0.890710 -0.622539
O39   O     O_R   0.947860 0.926050 0.109290 -0.624346
O40   O     O_R   0.447860 0.573950 0.109290 -0.623764
O41   O     O_R   0.552140 0.426050 0.890710 -0.622571
O42   O     O_R   0.552140 0.573950 0.890710 -0.623850
O43   O     O_R   0.447860 0.426050 0.109290 -0.624105
O44   O     O_R   0.246490 0.736330 0.638080 -0.633625
O45   O     O_R   0.753510 0.263670 0.361920 -0.651840
O46   O     O_R   0.753510 0.736330 0.361920 -0.635127
O47   O     O_R   0.246490 0.263670 0.638080 -0.631623
O48   O     O_R   0.674170 0.186160 0.516270 -0.640697
Zn1   Zn    Zn3+2 0.792340 0.208750 0.507670 0.940635
Zn2   Zn    Zn3+2 0.494040 0.500000 0.919480 0.933063
Zn3   Zn    Zn3+2 0.005960 0.000000 0.080520 0.929013
Zn4   Zn    Zn3+2 0.994040 0.000000 0.919480 0.934862
Zn5   Zn    Zn3+2 0.207660 0.791250 0.492330 0.933557
Zn6   Zn    Zn3+2 0.207660 0.208750 0.492330 0.934203
Zn7   Zn    Zn3+2 0.792340 0.791250 0.507670 0.942267
Zn8   Zn    Zn3+2 0.292340 0.708750 0.507670 0.938318
Zn9   Zn    Zn3+2 0.707660 0.291250 0.492330 0.938878
Zn10  Zn    Zn3+2 0.707660 0.708750 0.492330 0.941285
Zn11  Zn    Zn3+2 0.292340 0.291250 0.507670 0.942760
Zn12  Zn    Zn3+2 0.505960 0.500000 0.080520 0.928660

loop_
_geom_bond_atom_site_label_1
_geom_bond_atom_site_label_2
_ccdc_geom_bond_type
C125  C134  A    
C1    O18   A    
C14   C56   A    
O48   Zn9   S    
C59   C130  S    
C65   C79   A    
C5    O32   A    
C123  C132  A    
C60   C84   A    
C81   H14   S    
C5    O43   A    
C11   C47   A    
O12   Zn5   S    
C139  O10   A    
C61   O12   A    
C105  O45   A    
O41   Zn2   S    
C99   C148  S    
O42   Zn2   S    
C25   C43   A    
C35   H9    S    
C69   C78   A    
C92   H39   S    
C55   H4    S    
C28   C47   A    
C116  O46   A    
C42   H34   S    
C99   C108  A    
O36   Zn3   S    
C83   O34   A    
C11   C19   A    
C142  O14   A    
C33   C39   A    
C30   C141  S    
C124  C133  A    
C106  C114  A    
C127  O47   A    
C63   C133  S    
C6    O40   A    
C5    C96   S    
C72   O23   A    
C29   C51   A    
C56   H11   S    
C128  C136  A    
C16   C35   A    
C143  O15   A    
C90   C134  A    
C34   C145  S    
C51   H59   S    
C75   C84   A    
C11   C18   A    
C10   C17   A    
C87   C131  A    
C46   H10   S    
O9    Zn1   S    
C31   C40   A    
C62   C70   A    
C76   H19   S    
C20   C138  A    
C37   C42   A    
C75   H30   S    
O37   Zn4   S    
C13   H7    S    
C26   C45   A    
C85   C129  A    
C3    O37   A    
C21   C43   A    
C85   C93   A    
C26   C34   A    
C22   C44   A    
C113  C122  A    
C10   C20   A    
C9    C44   A    
C141  O13   A    
C107  H44   S    
C30   C39   A    
C64   C73   A    
C8    C43   A    
O6    Zn1   S    
C103  H41   S    
C122  H51   S    
C121  C130  A    
C88   C97   A    
C84   H16   S    
C85   H31   S    
O25   Zn7   S    
C119  C128  A    
C24   C51   A    
C71   H27   S    
C62   C82   A    
O22   Zn5   S    
C147  O39   A    
C100  C109  A    
C8    C16   A    
C4    C97   S    
C38   C142  S    
C83   C114  S    
C105  C117  S    
C102  C111  A    
C92   C136  A    
C34   C41   A    
C69   H25   S    
C106  H43   S    
C74   C82   A    
C7    C93   S    
C60   C131  S    
C73   C81   A    
C71   C80   A    
C95   C103  A    
O19   Zn8   S    
C120  H49   S    
C22   C53   A    
C54   C56   A    
C36   C42   A    
C139  O2    A    
O2    Zn8   S    
C66   C78   A    
C8    C12   A    
C64   C134  S    
C101  C146  S    
O28   Zn4   S    
C17   C24   A    
C89   C133  A    
C22   C31   A    
C1    O1    A    
C148  O29   A    
C105  O24   A    
C62   C132  S    
C123  H52   S    
O35   Zn12  S    
C38   C41   A    
C7    O35   A    
O33   Zn2   S    
C58   C81   A    
C33   C137  S    
C28   C50   A    
C86   C130  A    
C88   H35   S    
C83   O21   A    
O45   Zn9   S    
C77   H18   S    
C145  O17   A    
C72   C113  S    
C78   H21   S    
C125  H54   S    
C65   C74   A    
C120  C129  A    
O5    Zn5   S    
C111  C120  A    
C29   C38   A    
C9    C14   A    
C89   H36   S    
C80   H15   S    
C2    C49   A    
O7    Zn7   S    
C59   C68   A    
C145  O8    A    
C41   H23   S    
C140  O11   A    
O1    Zn1   S    
C12   C15   A    
O27   Zn3   S    
O34   Zn7   S    
C104  H42   S    
C87   C96   A    
C101  C110  A    
O29   Zn4   S    
O3    Zn11  S    
C67   H22   S    
C64   C76   A    
C124  H53   S    
C57   H13   S    
O30   Zn3   S    
C6    O33   A    
C61   O19   A    
C108  H46   S    
C70   H26   S    
C141  O4    A    
C107  C115  A    
C65   C135  S    
C92   C101  A    
C32   C139  S    
C143  O6    A    
C66   C136  S    
C114  C123  A    
C13   C18   A    
C138  H5    S    
C60   C69   A    
O23   Zn6   S    
C7    O41   A    
C126  C135  A    
C119  C127  S    
O24   Zn1   S    
C96   C104  A    
C110  H48   S    
C53   H2    S    
C91   C100  A    
C144  O16   A    
C14   C16   A    
C128  H57   S    
C12   C57   A    
C137  O9    A    
O4    Zn10  S    
C50   H58   S    
C122  C131  A    
C35   C52   A    
O20   Zn11  S    
C94   O22   A    
C23   C54   A    
C63   C77   A    
C27   C47   A    
C68   C77   A    
C90   C99   A    
C39   H1    S    
C146  O27   A    
O46   Zn10  S    
C127  O26   A    
C115  C124  A    
C37   C143  S    
C2    C19   A    
C52   H60   S    
C93   C102  A    
C108  C117  A    
C40   H12   S    
O11   Zn6   S    
C25   C55   A    
C142  O5    A    
C63   C71   A    
O13   Zn7   S    
C48   H45   S    
C94   O44   A    
C110  C119  A    
C87   H33   S    
C144  O7    A    
O39   Zn3   S    
O21   Zn10  S    
C79   H20   S    
C59   C80   A    
C54   H3    S    
O40   Zn12  S    
C90   H37   S    
C26   C48   A    
C126  H55   S    
C118  C126  A    
C21   C30   A    
C146  O38   A    
C91   H38   S    
C48   C138  A    
C89   C98   A    
O44   Zn8   S    
C27   C36   A    
C23   C32   A    
C73   H28   S    
C55   C57   A    
C86   H32   S    
C9    C15   A    
C4    O42   A    
C112  C121  A    
C94   C115  S    
C1    C111  S    
O16   Zn10  S    
C68   H24   S    
C3    C98   S    
C70   C79   A    
C74   H29   S    
O47   Zn11  S    
C28   C37   A    
C3    O30   A    
C66   C75   A    
C46   C53   A    
C104  C113  A    
C17   C19   A    
C4    O31   A    
C116  C118  S    
O31   Zn12  S    
C109  H47   S    
C18   C20   A    
O15   Zn9   S    
C32   C40   A    
C36   C144  S    
C147  O28   A    
C116  O25   A    
C102  H40   S    
C121  H50   S    
C49   H56   S    
C137  O48   A    
O38   Zn4   S    
C86   C95   A    
C98   C107  A    
O18   Zn9   S    
O8    Zn6   S    
C13   C50   A    
C24   H8    S    
C58   C67   A    
O26   Zn6   S    
C91   C135  A    
C109  C118  A    
C2    H6    S    
C6    C95   S    
C72   O20   A    
C10   C45   A    
C29   C45   A    
C100  C147  S    
C148  O36   A    
O10   Zn5   S    
C88   C132  A    
C103  C112  A    
C67   C76   A    
C58   C129  S    
C15   C46   A    
O32   Zn2   S    
C31   C140  S    
C61   C112  S    
C117  C125  A    
O43   Zn12  S    
O17   Zn11  S    
C21   C52   A    
C27   C49   A    
C140  O3    A    
C25   C33   A    
O14   Zn8   S    
C23   C44   A    
C82   H17   S    
C97   C106  A    
