data_mof_unit_pretest_1372.cif
_audit_creation_date              2012-12-10T16:59:14-0500
_audit_creation_method            fapswitch 2.2
_symmetry_space_group_name_H-M    P1
_symmetry_Int_Tables_number       1
_space_group_crystal_system       triclinic
_cell_length_a                    7.729119
_cell_length_b                    8.612968
_cell_length_c                    27.71339
_cell_angle_alpha                 91.112155
_cell_angle_beta                  86.403831
_cell_angle_gamma                 93.234147
_cell_volume                      1838.10002388

loop_
_atom_site_label
_atom_site_type_symbol
_atom_type_description
_atom_site_fract_x
_atom_site_fract_y
_atom_site_fract_z
_atom_type_partial_charge
C1    C     C_R   0.544621 0.794203 0.498921 0.967487
C2    C     C_R   0.436140 0.631720 0.128941 -0.023239
C3    C     C_R   0.511481 0.499939 0.646309 -0.039973
C4    C     C_R   0.488489 0.499895 0.353691 -0.039987
C5    C     C_R   0.454989 0.636438 0.026729 0.047827
C6    C     C_R   0.544562 0.362921 0.973273 0.047827
C7    C     C_R   0.532053 0.361074 0.024523 0.048074
C8    C     C_R   0.467510 0.638288 0.975479 0.048079
C9    C     C_R   0.488235 0.498084 0.050895 0.072230
C10   C     C_R   0.511346 0.501283 0.949107 0.072229
C11   C     C_R   0.409433 0.768543 0.054965 -0.225424
C12   C     C_R   0.455379 0.205797 0.501079 0.967475
C13   C     C_R   0.590100 0.230812 0.945037 -0.225422
C14   C     C_R   0.400920 0.765996 0.104997 -0.141884
C15   C     C_R   0.598676 0.233379 0.895004 -0.141870
C16   C     C_R   0.503282 0.500093 0.593839 0.914874
C17   C     C_R   0.496714 0.499885 0.406161 0.914888
C18   C     C_R   0.438241 0.773179 0.949385 -0.224222
C19   C     C_R   0.561344 0.226191 0.050619 -0.224225
C20   C     C_2   0.563052 0.953875 0.490671 -0.128212
C21   C     C_2   0.436948 0.046125 0.509329 -0.128209
C22   C     C_R   0.495102 0.635774 0.822697 0.512153
C23   C     C_R   0.521551 0.502506 0.897856 -0.049722
C24   C     C_R   0.504699 0.363663 0.177306 0.512160
C25   C     C_R   0.568195 0.370157 0.820569 0.510811
C26   C     C_R   0.431574 0.629271 0.179430 0.510805
C27   C     C_R   0.386114 0.424477 0.725223 -0.157556
C28   C     C_R   0.613828 0.575111 0.274751 -0.157516
C29   C     C_R   0.376956 0.423749 0.675173 0.021795
C30   C     C_R   0.623003 0.576001 0.324801 0.021797
C31   C     C_R   0.654455 0.575516 0.668058 0.024592
C32   C     C_R   0.345528 0.424207 0.331964 0.024583
C33   C     C_R   0.661147 0.574632 0.718200 -0.150087
C34   C     C_R   0.478094 0.496881 0.102147 -0.049722
C35   C     C_R   0.338822 0.424924 0.281821 -0.150105
C36   C     C_R   0.527338 0.499750 0.746495 0.280831
C37   C     C_R   0.472601 0.499753 0.253503 0.280821
C38   C     C_R   0.488806 0.638293 0.873228 -0.023108
C39   C     C_R   0.510892 0.361110 0.126776 -0.023109
C40   C     C_R   0.448515 0.772707 0.899327 -0.143196
C41   C     C_R   0.551138 0.226683 0.100677 -0.143187
C42   C     C_R   0.563529 0.367676 0.871060 -0.023241
H1    H     H_    0.014400 0.383123 0.463521 0.197109
H2    H     H_    0.633006 0.128830 0.875118 0.193048
H3    H     H_    0.378729 0.876910 0.039874 0.140784
H4    H     H_    0.620750 0.122430 0.960128 0.140776
H5    H     H_    0.406665 0.882284 0.966230 0.138653
H6    H     H_    0.592903 0.117081 0.033774 0.138662
H7    H     H_    0.797245 0.773022 0.651201 0.195117
H8    H     H_    0.907762 0.609047 0.646024 0.192063
H9    H     H_    0.202861 0.226698 0.348893 0.195085
H10   H     H_    0.092220 0.390612 0.353999 0.192052
H11   H     H_    0.769559 0.773625 0.335994 0.201014
H12   H     H_    0.985600 0.616876 0.536479 0.197103
H13   H     H_    0.880971 0.610064 0.331906 0.191652
H14   H     H_    0.230422 0.226159 0.663914 0.200990
H15   H     H_    0.118987 0.389703 0.668063 0.191618
H16   H     H_    0.800638 0.065311 0.473800 0.222643
H17   H     H_    0.654973 0.068767 0.429007 0.194295
H18   H     H_    0.199362 0.934689 0.526200 0.222646
H19   H     H_    0.345027 0.931234 0.570993 0.194293
H20   H     H_    0.769626 0.633195 0.735273 0.150371
H21   H     H_    0.230343 0.366292 0.264767 0.150381
H22   H     H_    0.423506 0.878654 0.881135 0.191047
H23   H     H_    0.576175 0.120745 0.118870 0.191058
H24   H     H_    0.716719 0.632845 0.252236 0.151218
H25   H     H_    0.283198 0.366700 0.747718 0.151219
H26   H     H_    0.366590 0.870546 0.124882 0.193042
N1    N     N_R   0.532555 0.502498 0.797722 -0.350393
N2    N     N_3   0.297781 0.996736 0.543789 -0.450977
N3    N     N_R   0.467290 0.496955 0.202279 -0.350393
N4    N     N_2   0.950320 0.457960 0.486880 -0.170435
N5    N     N_2   0.049680 0.542040 0.513120 -0.170432
N6    N     N_3   0.790260 0.656858 0.639459 -0.453259
N7    N     N_3   0.209758 0.342910 0.360589 -0.453265
N8    N     N_3   0.766686 0.657256 0.346235 -0.426210
N9    N     N_3   0.233279 0.342569 0.653714 -0.426183
N10   N     N_3   0.702219 0.003265 0.456211 -0.450966
O1    O     O_R   0.389250 0.738570 0.503220 -0.647457
O2    O     O_2   0.538176 0.234983 0.201382 -0.542763
O3    O     O_2   0.392511 0.757878 0.205598 -0.542503
O4    O     O_2   0.607281 0.241561 0.794400 -0.542493
O5    O     O_R   0.610750 0.261430 0.496780 -0.647464
O6    O     O_R   0.678390 0.711630 0.494810 -0.607506
O7    O     O_R   0.321610 0.288370 0.505190 -0.607502
O8    O     O_R   0.355440 0.513440 0.575450 -0.607818
O9    O     O_R   0.644560 0.486560 0.424550 -0.607825
O10   O     O_R   0.644590 0.486500 0.567040 -0.611121
O11   O     O_R   0.355410 0.513500 0.432960 -0.611108
O12   O     O_2   0.461682 0.764474 0.798622 -0.542759
Zn1   Zn    Zn3+2 0.306940 0.517990 0.505620 0.957388
Zn2   Zn    Zn3+2 0.693060 0.482010 0.494380 0.957381

loop_
_geom_bond_atom_site_label_1
_geom_bond_atom_site_label_2
_ccdc_geom_bond_type
H19   N2    S    
H1    N4    S    
C27   C29   A    
H10   N7    S    
C18   H5    S    
C33   C36   A    
C32   N7    S    
O7    Zn1   S    
C39   C41   A    
C1    O6    A    
O5    Zn2   S    
C23   C42   A    
C12   O7    A    
C35   C37   A    
H9    N7    S    
C15   H2    S    
C5    C11   A    
O8    Zn1   S    
H8    N6    S    
C13   H4    S    
N4    Zn2   S    
C11   C14   A    
C22   C38   A    
C24   C39   A    
C3    C29   A    
C18   C40   A    
C24   O2    S    
O10   Zn2   S    
C33   H20   S    
C31   C33   A    
O11   Zn1   S    
C22   N1    A    
O1    Zn1   S    
C2    C34   A    
O9    Zn2   S    
C16   O8    A    
C26   N3    A    
H17   N10   S    
C34   C39   A    
C32   C35   A    
H15   N9    S    
C17   O11   A    
N5    Zn1   S    
C19   H6    S    
C31   N6    S    
C41   H23   S    
C12   C21   S    
C8    C18   A    
H14   N9    S    
C12   O5    A    
C28   H24   S    
C5    C9    A    
H12   N5    S    
C30   N8    S    
H18   N2    S    
C22   O12   S    
C2    C26   A    
C3    C31   A    
C4    C32   A    
H13   N8    S    
C26   O3    S    
C7    C19   A    
C13   C15   A    
C25   O4    S    
C1    O1    A    
C11   H3    S    
H11   N8    S    
C25   N1    A    
C4    C17   S    
C36   N1    S    
C7    C9    A    
C1    C20   S    
C17   O9    A    
C15   C42   A    
N4    N5    D    
C25   C42   A    
C6    C10   A    
C5    C8    A    
C6    C7    A    
C10   C23   A    
C23   C38   A    
C40   H22   S    
C20   N10   S    
C21   N2    S    
C27   C36   A    
C37   N3    S    
C6    C13   A    
C38   C40   A    
C9    C34   A    
C28   C37   A    
C28   C30   A    
C2    C14   A    
C27   H25   S    
H16   N10   S    
C29   N9    S    
C20   C21   D    
C8    C10   A    
C16   O10   A    
C14   H26   S    
H7    N6    S    
C35   H21   S    
O6    Zn2   S    
C4    C30   A    
C3    C16   S    
C19   C41   A    
C24   N3    A    
