data_mof_unit_pretest_824.cif
_audit_creation_date              2012-10-26T18:50:26-0400
_audit_creation_method            fapswitch 2.2
_symmetry_space_group_name_H-M    P1
_symmetry_Int_Tables_number       1
_space_group_crystal_system       triclinic
_cell_length_a                    9.599154
_cell_length_b                    10.818712
_cell_length_c                    15.517959
_cell_angle_alpha                 86.01782
_cell_angle_beta                  73.05791
_cell_angle_gamma                 90.476002
_cell_volume                      1537.19595417

loop_
_atom_site_label
_atom_site_type_symbol
_atom_type_description
_atom_site_fract_x
_atom_site_fract_y
_atom_site_fract_z
_atom_type_partial_charge
C1    C     C_R   0.995614 0.262254 0.508469 0.551395
C2    C     C_R   0.209555 0.518457 0.038317 0.024736
C3    C     C_R   0.316838 0.521161 0.083774 0.041330
C4    C     C_R   0.916820 0.506043 0.671467 0.540114
C5    C     C_R   0.062380 0.506257 0.088038 -0.143813
C6    C     C_R   0.022431 0.499859 0.181996 -0.158057
C7    C     C_R   0.277214 0.482614 0.177415 -0.017834
C8    C     C_R   0.103080 0.109654 0.649556 0.157812
C9    C     C_R   0.186706 0.035972 0.693307 -0.091000
C10   C     C_R   0.196315 0.910243 0.684187 -0.170398
C11   C     C_R   0.129386 0.855063 0.628564 -0.118161
C12   C     C_R   0.658674 0.561706 0.896075 -0.007509
C13   C     C_R   0.060552 0.926519 0.574056 0.009970
C14   C     C_R   0.051750 0.057149 0.581355 0.026091
C15   C     C_R   0.986271 0.127218 0.522506 -0.014913
C16   C     C_R   0.998224 0.737044 0.504722 0.528324
C17   C     C_R   0.911694 0.067016 0.471719 -0.161126
C18   C     C_R   0.911659 0.940097 0.470665 -0.169440
C19   C     C_R   0.992785 0.869856 0.516207 -0.003126
C20   C     C_R   0.702356 0.669946 0.381250 -0.072198
C21   C     C_R   0.658981 0.760027 0.326039 0.103900
C22   C     C_R   0.514086 0.758608 0.326194 -0.168182
C23   C     C_R   0.751829 0.620371 0.938006 0.068818
C24   C     C_R   0.414504 0.671031 0.381091 -0.125454
C25   C     C_R   0.453868 0.583829 0.441393 0.140066
C26   C     C_R   0.603236 0.583415 0.441261 0.115183
C27   C     C_R   0.546839 0.420345 0.555895 -0.016099
C28   C     C_R   0.083100 0.494805 0.327728 0.529353
C29   C     C_R   0.399077 0.420266 0.555715 -0.012016
C30   C     C_R   0.867452 0.533984 0.766341 -0.013892
C31   C     C_R   0.128775 0.490476 0.228085 -0.007994
C32   C     C_R   0.900766 0.639757 0.891237 -0.138834
C33   C     C_R   0.957196 0.599662 0.804903 -0.172876
C34   C     C_R   0.506066 0.553546 0.938939 0.019925
C35   C     C_R   0.722064 0.508195 0.814973 -0.133916
C36   C     C_3   0.787520 0.858962 0.038487 -0.320534
C37   C     C_3   0.081946 0.262444 0.764760 -0.312832
C38   C     C_3   0.911426 0.834040 0.239725 -0.323559
C39   C     C_3   0.383368 0.410533 0.218036 -0.241105
C40   C     C_3   0.466204 0.311496 0.157745 -0.311503
C41   C     C_3   0.552542 0.229919 0.206904 -0.456697
C42   C     C_3   0.424907 0.582027 0.791300 -0.248287
C43   C     C_3   0.493878 0.712657 0.761472 -0.295897
C44   C     C_3   0.529385 0.739546 0.659332 -0.437205
C45   C     C_R   0.459741 0.560275 0.033797 -0.014725
C46   C     C_R   0.552029 0.618730 0.075278 -0.134668
C47   C     C_R   0.694120 0.656511 0.026213 0.126027
C48   C     C_R   0.396906 0.548974 0.892487 -0.004417
C49   C     C_R   0.250045 0.532177 0.944050 -0.133898
Cu1   Cu    Cu3+1 0.140660 0.499990 0.500010 0.910833
Cu2   Cu    Cu3+1 0.859340 0.500010 0.499990 0.889355
H1    H     H_    0.978017 0.508093 0.054382 0.131069
H2    H     H_    0.307726 0.676427 0.374108 0.189256
H3    H     H_    0.322085 0.354599 0.600994 0.143290
H4    H     H_    0.907596 0.500852 0.218523 0.133369
H5    H     H_    0.165758 0.530608 0.910521 0.098655
H6    H     H_    0.973843 0.686560 0.920757 0.143373
H7    H     H_    0.070392 0.620045 0.768442 0.109677
H8    H     H_    0.660569 0.443296 0.789905 0.113089
H9    H     H_    0.510046 0.644854 0.143921 0.110797
H10   H     H_    0.749828 0.712049 0.135997 0.262302
H11   H     H_    0.679139 0.900489 0.064653 0.133982
H12   H     H_    0.856253 0.118955 0.429895 0.145427
H13   H     H_    0.824886 0.874197 0.963646 0.156297
H14   H     H_    0.867066 0.906727 0.065152 0.139847
H15   H     H_    0.949181 0.245201 0.681911 0.240358
H16   H     H_    0.032303 0.351520 0.784167 0.150110
H17   H     H_    0.200669 0.275123 0.754607 0.126854
H18   H     H_    0.033238 0.192006 0.821497 0.129120
H19   H     H_    0.716420 0.913797 0.231401 0.249563
H20   H     H_    0.967721 0.915099 0.194950 0.136835
H21   H     H_    0.929881 0.750769 0.200641 0.158560
H22   H     H_    0.962077 0.821948 0.295240 0.138075
H23   H     H_    0.236057 0.072041 0.741007 0.103573
H24   H     H_    0.632478 0.287470 0.227142 0.160496
H25   H     H_    0.478091 0.179439 0.267984 0.159013
H26   H     H_    0.612628 0.160804 0.161392 0.133966
H27   H     H_    0.387482 0.251847 0.137959 0.164074
H28   H     H_    0.544499 0.354972 0.095487 0.174344
H29   H     H_    0.460796 0.474035 0.235222 0.143872
H30   H     H_    0.322094 0.357391 0.281629 0.185145
H31   H     H_    0.617548 0.679144 0.624453 0.211634
H32   H     H_    0.432252 0.722518 0.636218 0.152304
H33   H     H_    0.567101 0.837694 0.640462 0.148279
H34   H     H_    0.248919 0.853833 0.724869 0.110410
H35   H     H_    0.417336 0.782132 0.796441 0.149151
H36   H     H_    0.596134 0.724134 0.779837 0.182991
H37   H     H_    0.488099 0.511612 0.749568 0.137011
H38   H     H_    0.320508 0.580717 0.773869 0.123448
H39   H     H_    0.130888 0.755537 0.631290 0.156682
H40   H     H_    0.851626 0.897077 0.431103 0.155563
H41   H     H_    0.579767 0.355116 0.601789 0.108561
H42   H     H_    0.814183 0.670991 0.375964 0.192502
H43   H     H_    0.477381 0.826064 0.283264 0.108261
N1    N     N_R   0.648320 0.501210 0.499140 -0.249501
N2    N     N_R   0.352470 0.501290 0.499110 -0.240194
N3    N     N_2   0.779003 0.728059 0.066811 -0.537914
N4    N     N_2   0.054291 0.227342 0.682316 -0.488879
N5    N     N_2   0.756842 0.856819 0.273989 -0.531838
O1    O     O_R   0.118810 0.319640 0.500010 -0.470155
O2    O     O_R   0.881240 0.319660 0.500000 -0.503166
O3    O     O_R   0.055570 0.499980 0.629840 -0.493730
O4    O     O_R   0.818000 0.500010 0.629830 -0.512658
O5    O     O_R   0.118760 0.680340 0.500000 -0.527355
O6    O     O_R   0.881190 0.680360 0.499990 -0.531862
O7    O     O_R   0.182000 0.499990 0.370170 -0.526357
O8    O     O_R   0.944430 0.500020 0.370160 -0.518642

loop_
_geom_bond_atom_site_label_1
_geom_bond_atom_site_label_2
_ccdc_geom_bond_type
C20   H42   S    
C37   H17   S    
C10   H34   S    
Cu1   O5    S    
C33   H7    S    
C37   H18   S    
C27   C29   A    
C27   N1    A    
C6    H4    S    
C44   H32   S    
C45   C46   A    
C12   C23   A    
C30   C35   A    
C18   H40   S    
C21   C22   A    
C3    C7    A    
C44   H31   S    
C41   H26   S    
C5    C6    A    
C21   N5    S    
C29   H3    S    
C28   O8    A    
Cu2   O4    S    
C4    O4    A    
C35   H8    S    
C18   C19   A    
C8    N4    S    
C38   H20   S    
C16   O5    A    
C28   O7    A    
C8    C9    A    
C4    O3    A    
C5    H1    S    
C36   N3    S    
C1    C15   S    
C9    C10   A    
C6    C31   A    
C13   C14   A    
C22   H43   S    
C32   H6    S    
C36   H11   S    
C1    O1    A    
C37   N4    S    
Cu1   Cu2   S    
C38   H21   S    
C7    C31   A    
C13   C19   A    
C23   C47   A    
C24   C25   A    
C39   H30   S    
C39   C40   S    
C36   H14   S    
C24   H2    S    
C3    C45   A    
C32   C33   A    
C43   C44   S    
C2    C49   A    
C41   H24   S    
Cu2   O6    S    
C17   C18   A    
C40   H28   S    
C27   H41   S    
C34   C45   A    
C42   C48   S    
C12   C35   A    
C16   O6    A    
C48   C49   A    
Cu1   O3    S    
C40   H27   S    
C2    C5    A    
C34   C48   A    
C9    H23   S    
C12   C34   A    
C1    O2    A    
H19   N5    S    
C26   N1    A    
C15   C17   A    
C46   C47   A    
C40   C41   S    
C8    C14   A    
C30   C33   A    
C46   H9    S    
C43   H35   S    
C28   C31   S    
H10   N3    S    
C23   C32   A    
C38   N5    S    
C44   H33   S    
C29   N2    A    
Cu2   O2    S    
C49   H5    S    
Cu1   O1    S    
C47   N3    S    
C42   H38   S    
C43   H36   S    
C39   H29   S    
H15   N4    S    
C2    C3    A    
C25   C26   A    
C17   H12   S    
C41   H25   S    
C11   C13   A    
C11   H39   S    
Cu1   N2    S    
C20   C26   A    
C16   C19   S    
C37   H16   S    
C22   C24   A    
C10   C11   A    
C42   H37   S    
C20   C21   A    
C25   N2    A    
Cu2   O8    S    
C42   C43   S    
Cu1   O7    S    
C7    C39   S    
C14   C15   A    
C36   H13   S    
C4    C30   S    
Cu2   N1    S    
C38   H22   S    
