data_mof_unit_pretest_70.cif
_audit_creation_date              2012-12-11T14:33:06-0500
_audit_creation_method            fapswitch 2.2
_symmetry_space_group_name_H-M    P1
_symmetry_Int_Tables_number       1
_space_group_crystal_system       triclinic
_cell_length_a                    6.969766
_cell_length_b                    14.03895
_cell_length_c                    17.898449
_cell_angle_alpha                 113.334823
_cell_angle_beta                  96.16853
_cell_angle_gamma                 90.70384
_cell_volume                      1595.88356788

loop_
_atom_site_label
_atom_site_type_symbol
_atom_type_description
_atom_site_fract_x
_atom_site_fract_y
_atom_site_fract_z
_atom_type_partial_charge
O1    O     O_R   0.484560 0.544530 0.414330 -0.537626
O2    O     O_R   0.197040 0.638810 0.585080 -0.545050
O3    O     O_R   0.026800 0.455470 0.585670 -0.508984
C1    C     C_R   0.376767 0.677526 0.612544 0.713887
O4    O     O_R   0.155000 0.556150 0.414940 -0.545522
O5    O     O_R   0.984450 0.372220 0.414320 -0.542043
C2    C     C_R   0.317649 0.565114 0.386666 0.753957
O6    O     O_R   0.526900 0.627780 0.585680 -0.514137
O7    O     O_3   0.339170 0.439750 0.499990 -0.362665
V1    V     V_3+5 0.064350 0.511180 0.500000 1.431701
O8    O     O_R   0.654880 0.361190 0.414920 -0.551556
C3    C     C_R   0.816174 0.324198 0.386417 0.718878
O9    O     O_R   0.696930 0.443850 0.585060 -0.545666
C4    C     C_R   0.871479 0.419991 0.603330 0.708181
V2    V     V_3+5 0.564340 0.488820 0.500000 1.429035
O10   O     O_3   0.839390 0.560250 0.500010 -0.365487
C5    C     C_R   0.050140 0.880346 0.833632 -0.053267
C6    C     C_R   0.902661 0.387749 0.673041 -0.050744
C7    C     C_R   0.987801 0.838473 0.688338 -0.139394
C8    C     C_R   0.043415 0.810416 0.752585 -0.101997
C9    C     C_R   0.032734 0.987021 0.849552 -0.226678
C10   C     C_R   0.008069 0.020614 0.783132 0.102787
C11   C     C_R   0.980772 0.942539 0.702219 0.104605
C12   C     C_R   0.010892 0.127174 0.792578 0.063357
C13   C     C_R   0.978101 0.151104 0.721359 0.049767
C14   C     C_R   0.963099 0.069481 0.643405 -0.158196
C15   C     C_R   0.964022 0.967607 0.634333 -0.163785
C16   C     C_R   0.050380 0.210424 0.869804 -0.175151
C17   C     C_R   0.052766 0.313144 0.877316 -0.204771
C18   C     C_R   0.008186 0.336750 0.808709 0.100350
C19   C     C_R   0.965198 0.256077 0.729818 0.110229
C20   C     C_R   0.996560 0.440616 0.818706 -0.169044
C21   C     C_R   0.938022 0.464353 0.751292 0.110008
C22   C     C_R   0.906334 0.283874 0.662646 -0.271090
H1    H     H_    0.953553 0.907273 0.572842 0.158402
H2    H     H_    0.858872 0.227039 0.601822 0.098208
H3    H     H_    0.084781 0.374923 0.937845 0.115545
H4    H     H_    0.971654 0.779493 0.626419 0.146727
H5    H     H_    0.094680 0.734271 0.737873 0.137675
H6    H     H_    0.042208 0.041166 0.912754 0.091140
H7    H     H_    0.951622 0.081404 0.587365 0.145585
H8    H     H_    0.083147 0.198119 0.925450 0.120373
H9    H     H_    0.025153 0.502538 0.879070 0.158243
H10   H     H_    0.113405 0.224235 0.310764 0.154174
H11   H     H_    0.835894 0.033087 0.193210 0.156031
C23   C     C_2   0.137004 0.037909 0.184914 -0.342759
C24   C     C_2   0.973928 0.077281 0.217452 -0.122700
H12   H     H_    0.673894 0.175905 0.293424 0.127597
C25   C     C_2   0.811821 0.220029 0.318229 -0.340408
C26   C     C_2   0.975241 0.180234 0.286263 -0.128757
H13   H     H_    0.274832 0.082199 0.209500 0.124633
C27   C     C_R   0.422464 0.782708 0.681464 -0.093996
C28   C     C_R   0.527914 0.463514 0.827199 -0.113495
C29   C     C_R   0.540173 0.886291 0.824575 -0.117931
C30   C     C_R   0.490658 0.789668 0.759953 -0.120370
C31   C     C_R   0.413877 0.875768 0.668873 -0.172468
C32   C     C_R   0.480264 0.974874 0.732173 0.107014
C33   C     C_R   0.531137 0.978765 0.811922 0.111594
C34   C     C_R   0.491893 0.070442 0.720350 0.014123
C35   C     C_R   0.520968 0.170124 0.790958 0.054159
C36   C     C_R   0.557954 0.168357 0.869108 -0.161936
C37   C     C_R   0.569347 0.074680 0.878890 -0.215409
C38   C     C_R   0.492711 0.071765 0.641593 0.139327
C39   C     C_R   0.493732 0.165485 0.634231 -0.225757
C40   C     C_R   0.470509 0.259542 0.699221 0.032381
C41   C     C_R   0.511886 0.267619 0.780239 0.065007
C42   C     C_R   0.416360 0.345983 0.682536 0.276495
C43   C     C_R   0.447045 0.447026 0.746425 -0.134415
C44   C     C_R   0.547833 0.371819 0.844239 -0.206774
H14   H     H_    0.604385 0.077382 0.940204 0.113441
H15   H     H_    0.594437 0.383272 0.906820 0.100675
H16   H     H_    0.414926 0.513534 0.731967 0.132504
H17   H     H_    0.513257 0.164086 0.574890 0.160285
H18   H     H_    0.583997 0.888967 0.885221 0.146626
H19   H     H_    0.494690 0.720343 0.772345 0.127195
H20   H     H_    0.338362 0.869384 0.611645 0.145688
H21   H     H_    0.582198 0.239073 0.923840 0.119486
H22   H     H_    0.335185 0.667797 0.194919 0.153372
H23   H     H_    0.614384 0.591735 0.308481 0.152307
C45   C     C_2   0.314705 0.602510 0.319155 -0.319566
C46   C     C_2   0.476443 0.611600 0.285703 -0.106434
H24   H     H_    0.772280 0.636703 0.207000 0.126843
C47   C     C_2   0.634643 0.656461 0.183877 -0.337555
C48   C     C_2   0.473102 0.647796 0.217603 -0.115425
H25   H     H_    0.177076 0.622176 0.295948 0.126732
O11   O     O_R   0.421600 0.630430 0.917010 -0.531260
O12   O     O_R   0.793840 0.702190 0.087630 -0.545139
O13   O     O_R   0.964010 0.886170 0.088190 -0.539115
C49   C     C_R   0.631375 0.693432 0.116114 0.745748
O14   O     O_R   0.751460 0.619510 0.917500 -0.521942
O15   O     O_R   0.921330 0.802900 0.916840 -0.521139
C50   C     C_R   0.571462 0.576204 0.893416 0.715353
O16   O     O_R   0.464290 0.713700 0.088350 -0.538763
O17   O     O_3   0.609200 0.818520 0.002630 -0.378969
V3    V     V_3+5 0.884140 0.747190 0.002530 1.409402
O18   O     O_R   0.251150 0.814630 0.917340 -0.542723
C51   C     C_R   0.076829 0.838407 0.898696 0.714833
O19   O     O_R   0.293530 0.897310 0.087470 -0.546397
C52   C     C_R   0.132375 0.934067 0.116273 0.743904
V4    V     V_3+5 0.384070 0.769710 0.002370 1.395421
O20   O     O_3   0.109180 0.698190 0.002460 -0.371402
I1    I     I_    0.519220 0.947359 0.524996 -0.533350
N1    N     N_2   0.353639 0.333620 0.599731 -0.467598
H26   H     H_    0.471388 0.327242 0.569397 0.269469
C53   C     C_3   0.216379 0.248455 0.545454 -0.504597
H27   H     H_    0.282106 0.196950 0.490553 0.164217
H28   H     H_    0.090105 0.277255 0.520341 0.196600
H29   H     H_    0.168698 0.199120 0.575572 0.192344
I2    I     I_    0.852258 0.609546 0.763125 -0.432220

loop_
_geom_bond_atom_site_label_1
_geom_bond_atom_site_label_2
_ccdc_geom_bond_type
C33   C37   A    
C23   C52   S    
C13   C19   A    
C31   H20   S    
C4    C6    S    
O2    C1    A    
C7    C8    A    
C1    O6    A    
C28   C44   A    
C3    C25   S    
C42   N1    S    
O14   V3    S    
C53   H28   S    
C14   C15   A    
C17   C18   A    
C1    C27   S    
C16   C17   A    
O5    C3    A    
C18   C19   A    
C32   C34   A    
C41   C44   A    
V2    O10   S    
O19   C52   A    
C5    C8    A    
C31   C32   A    
C37   H14   S    
C23   C24   D    
C44   H15   S    
C28   C43   A    
C29   H18   S    
O8    V2    S    
C36   H21   S    
C40   C42   A    
O12   V3    S    
V3    O20   S    
C39   H17   S    
O1    V2    S    
C11   C15   A    
O11   V4    S    
O7    V1    S    
C27   C30   A    
C30   H19   S    
O13   V3    S    
C35   C41   A    
C34   C35   A    
O9    C4    A    
C36   C37   A    
C38   I1    S    
C24   C26   S    
H11   C24   S    
C47   C49   S    
C53   H29   S    
C42   C43   A    
C12   C13   A    
O4    C2    A    
C8    H5    S    
C15   H1    S    
C13   C14   A    
C23   H13   S    
C5    C9    A    
C35   C36   A    
C7    C11   A    
C45   H25   S    
C7    H4    S    
O14   C50   A    
C47   C48   D    
O17   V4    S    
C43   H16   S    
O18   C51   A    
C28   C50   S    
C19   C22   A    
N1    C53   S    
O15   C51   A    
C6    C22   A    
O16   V4    S    
O3    C4    A    
H12   C25   S    
H24   C47   S    
O6    V2    S    
O19   V4    S    
O12   C49   A    
C10   C12   A    
C21   I2    S    
O2    V1    S    
C46   C48   S    
H23   C46   S    
C29   C33   A    
H10   C26   S    
C29   C30   A    
O1    C2    A    
C12   C16   A    
C45   C46   D    
O5    V1    S    
O8    C3    A    
C53   H27   S    
C34   C38   A    
C20   C21   A    
O9    V2    S    
O7    V2    S    
O4    V1    S    
O3    V1    S    
O11   C50   A    
C39   C40   A    
C18   C20   A    
C32   C33   A    
C9    H6    S    
O18   V4    S    
C16   H8    S    
V4    O20   S    
C20   H9    S    
C22   H2    S    
C40   C41   A    
C49   O16   A    
O17   V3    S    
C6    C21   A    
O13   C52   A    
O15   V3    S    
C38   C39   A    
H22   C48   S    
C25   C26   D    
C17   H3    S    
N1    H26   S    
C10   C11   A    
V1    O10   S    
C9    C10   A    
C5    C51   S    
C27   C31   A    
C14   H7    S    
C2    C45   S    
