data_mof_unit_pretest_1002.cif
_audit_creation_date              2012-12-11T14:08:02-0500
_audit_creation_method            fapswitch 2.2
_symmetry_space_group_name_H-M    P1
_symmetry_Int_Tables_number       1
_space_group_crystal_system       triclinic
_cell_length_a                    10.90374
_cell_length_b                    10.942528
_cell_length_c                    18.750272
_cell_angle_alpha                 90.099126
_cell_angle_beta                  89.800376
_cell_angle_gamma                 60.254349
_cell_volume                      1942.37317565

loop_
_atom_site_label
_atom_site_type_symbol
_atom_type_description
_atom_site_fract_x
_atom_site_fract_y
_atom_site_fract_z
_atom_type_partial_charge
C1    C     C_R   0.236173 0.645656 0.608676 0.550746
C2    C     C_3   0.733104 0.518857 0.798447 -0.269395
C3    C     C_3   0.684218 0.674544 0.816235 0.061806
C4    C     C_3   0.661939 0.646431 0.679398 0.045211
C5    C     C_3   0.781225 0.680503 0.692769 -0.256446
C6    C     C_3   0.699177 0.507857 0.720426 -0.245484
C7    C     C_2   0.674919 0.156957 0.670896 -0.123831
C8    C     C_2   0.689620 0.166154 0.827557 -0.125635
C9    C     C_2   0.801671 0.120960 0.783589 -0.175344
C10   C     C_2   0.783088 0.153320 0.706800 -0.177487
C11   C     C_2   0.178998 0.664106 0.680753 -0.125655
C12   C     C_R   0.651306 0.619754 0.603137 0.540930
C13   C     C_2   0.191160 0.664101 0.838366 -0.125548
C14   C     C_2   0.184874 0.564954 0.798830 -0.177281
C15   C     C_2   0.215041 0.551170 0.722149 -0.180357
C16   C     C_2   0.667372 0.663960 0.327408 -0.102615
C17   C     C_2   0.629855 0.662286 0.156516 -0.108310
C18   C     C_2   0.707489 0.573349 0.208309 -0.020780
C19   C     C_2   0.636672 0.599293 0.276277 -0.131820
C20   C     C_2   0.577949 0.311516 0.314023 -0.133252
C21   C     C_2   0.652764 0.145611 0.179562 0.027348
C22   C     C_2   0.525036 0.253124 0.199128 -0.146881
C23   C     C_R   0.628225 0.227693 0.602066 0.555901
C24   C     C_2   0.487067 0.296009 0.273233 -0.161588
C25   C     C_2   0.187177 0.661444 0.326524 -0.095596
C26   C     C_2   0.182967 0.645559 0.173127 -0.115097
C27   C     C_2   0.233963 0.717229 0.206978 -0.166975
C28   C     C_2   0.258149 0.701865 0.282555 -0.154891
C29   C     C_R   0.703515 0.101917 0.897383 0.548639
C30   C     C_R   0.716017 0.685044 0.891402 0.539407
C31   C     C_R   0.118261 0.706831 0.907053 0.545882
C32   C     C_R   0.675563 0.105695 0.105091 0.559108
C33   C     C_R   0.692638 0.688142 0.094431 0.537835
C34   C     C_R   0.225064 0.648072 0.400292 0.544460
C35   C     C_R   0.100346 0.705042 0.110227 0.542817
C36   C     C_R   0.647584 0.628463 0.397986 0.537138
C37   C     C_R   0.572697 0.307997 0.390870 0.585549
C38   C     C_3   0.522292 0.764204 0.793481 -0.095302
C39   C     C_3   0.516926 0.769363 0.709750 -0.072505
C40   C     C_3   0.775400 0.721418 0.771523 -0.217525
Cr1   Cr    Cr6+3 0.393010 0.398050 0.501480 1.004659
Cr2   Cr    Cr6+3 0.398820 0.707980 0.501630 0.991971
Cr3   Cr    Cr6+3 0.708140 0.393940 0.496850 1.004724
Cr4   Cr    Cr6+3 0.937950 0.938450 0.008940 1.001042
Cr5   Cr    Cr6+3 0.626180 0.937030 0.994750 0.988882
Cr6   Cr    Cr6+3 0.937790 0.625760 0.001410 0.994619
H1    H     H_    0.885517 0.672244 0.791696 0.139540
H2    H     H_    0.885467 0.586296 0.680720 0.135814
H3    H     H_    0.857421 0.177018 0.680285 0.141824
H4    H     H_    0.583409 0.232681 0.807398 0.103638
H5    H     H_    0.606761 0.124493 0.697013 0.095283
H6    H     H_    0.150852 0.495666 0.821978 0.150486
H7    H     H_    0.230417 0.729109 0.815231 0.093278
H8    H     H_    0.472704 0.700168 0.809064 0.114148
H9    H     H_    0.568982 0.554740 0.286131 0.121063
H10   H     H_    0.518470 0.736702 0.166200 0.089888
H11   H     H_    0.443722 0.308141 0.159320 0.126644
H12   H     H_    0.390144 0.305336 0.294750 0.153038
H13   H     H_    0.669438 0.309548 0.289792 0.101816
H14   H     H_    0.432380 0.745104 0.694727 0.154671
H15   H     H_    0.114520 0.627519 0.308153 0.076649
H16   H     H_    0.729851 0.837378 0.776200 0.126758
H17   H     H_    0.679535 0.477666 0.833656 0.114588
H18   H     H_    0.609299 0.486825 0.717403 0.120910
O1    O     O_R   0.507110 0.256280 0.580300 -0.521130
O2    O     O_R   0.524640 0.695370 0.425100 -0.499534
O3    O     O_R   0.735890 0.504390 0.415980 -0.523637
O4    O     O_R   0.690560 0.277820 0.422350 -0.502545
O5    O     O_3   0.499990 0.499990 0.499980 -0.273374
O6    O     O_R   0.089190 0.825870 0.932320 -0.533938
O7    O     O_R   0.819070 0.053960 0.931440 -0.492397
O8    O     O_R   0.607070 0.076440 0.916460 -0.531779
O9    O     O_R   0.647110 0.806550 0.917690 -0.506947
O10   O     O_R   0.837080 0.593860 0.915300 -0.528167
O11   O     O_R   0.064770 0.636080 0.932550 -0.495795
O12   O     O_R   0.280830 0.527190 0.577940 -0.495726
O13   O     O_R   0.068250 0.829200 0.092940 -0.517683
O14   O     O_R   0.799650 0.057040 0.080330 -0.502189
O15   O     O_R   0.586130 0.079760 0.077080 -0.516286
O16   O     O_R   0.627700 0.809630 0.066580 -0.504682
O17   O     O_R   0.816140 0.597180 0.075920 -0.527260
O18   O     O_R   0.045360 0.639170 0.081440 -0.513354
O19   O     O_3   0.833980 0.833750 0.001700 -0.243359
O20   O     O_R   0.261360 0.738990 0.584270 -0.531328
O21   O     O_R   0.532590 0.694780 0.574370 -0.513672
O22   O     O_R   0.744470 0.503750 0.577000 -0.527609
O23   O     O_R   0.698520 0.277230 0.571620 -0.494024
O24   O     O_R   0.498530 0.256920 0.419280 -0.509513
O25   O     O_R   0.272880 0.527780 0.428680 -0.519719
O26   O     O_R   0.252780 0.739630 0.423250 -0.510459
C41   C     C_3   0.425665 0.910555 0.829565 -0.272298
C42   C     C_3   0.357295 0.901623 0.899669 -0.400961
H19   H     H_    0.256394 0.904654 0.887938 0.149134
H20   H     H_    0.424924 0.803411 0.929525 0.163316
H21   H     H_    0.333693 0.993512 0.934068 0.140142
H22   H     H_    0.483127 0.969522 0.836742 0.191785
H23   H     H_    0.335227 0.977862 0.795118 0.132923
H24   H     H_    0.793204 0.415589 0.696832 0.147719
H25   H     H_    0.908342 0.055557 0.803365 0.148626
H26   H     H_    0.267691 0.445563 0.699710 0.154472
H27   H     H_    0.123967 0.769787 0.703114 0.104078
C43   C     C_3   0.865925 0.467776 0.202337 -0.241097
C44   C     C_3   0.932313 0.374002 0.267471 -0.437374
H28   H     H_    0.935206 0.436746 0.313284 0.171415
H29   H     H_    0.873983 0.318876 0.282349 0.165425
H30   H     H_    0.042979 0.293322 0.254649 0.127168
H31   H     H_    0.883320 0.396374 0.156469 0.170940
H32   H     H_    0.924385 0.525542 0.192983 0.167258
H33   H     H_    0.740532 0.702567 0.318233 0.083817
C45   C     C_3   0.765800 0.041483 0.230748 -0.267753
C46   C     C_3   0.785076 0.893696 0.223096 -0.403706
H34   H     H_    0.683325 0.896735 0.233722 0.152074
H35   H     H_    0.822345 0.850502 0.168850 0.186700
H36   H     H_    0.864850 0.821834 0.261928 0.117662
H37   H     H_    0.867830 0.037339 0.219162 0.155588
H38   H     H_    0.742737 0.067723 0.287719 0.161447
H39   H     H_    0.242247 0.801790 0.181212 0.149852
H40   H     H_    0.329533 0.735790 0.303115 0.157214
H41   H     H_    0.184545 0.554144 0.196740 0.093996
C47   C     C_3   0.478718 0.915518 0.675793 -0.259443
C48   C     C_3   0.326042 0.997938 0.649025 -0.430413
H42   H     H_    0.315818 0.951905 0.598166 0.190239
H43   H     H_    0.249461 0.996899 0.687690 0.129930
H44   H     H_    0.297541 0.108865 0.638823 0.133340
H45   H     H_    0.499435 0.981617 0.713105 0.128735
H46   H     H_    0.546092 0.902496 0.628723 0.158114
H47   H     H_    0.772835 0.766488 0.658103 0.106905
H48   H     H_    0.849043 0.451964 0.806684 0.146026

loop_
_geom_bond_atom_site_label_1
_geom_bond_atom_site_label_2
_ccdc_geom_bond_type
C7    C10   D    
Cr1   O25   S    
C8    H4    S    
C40   H1    S    
C37   O24   A    
C46   H34   S    
C1    C11   S    
C15   H26   S    
Cr4   O19   S    
C22   H11   S    
C21   C45   S    
C36   O3    A    
Cr5   O19   S    
C47   C48   S    
C1    O20   A    
C26   C27   D    
C12   O21   A    
C8    C29   S    
C6    H24   S    
C27   C28   S    
Cr4   O13   S    
C38   C39   S    
C30   O10   A    
C36   O2    A    
C39   C47   S    
C37   O4    A    
C40   H16   S    
Cr4   O7    S    
Cr5   O9    S    
C18   C19   S    
C18   C43   S    
C6    H18   S    
C45   C46   S    
C48   H44   S    
C41   H22   S    
Cr6   O18   S    
C11   C15   D    
C44   H29   S    
C31   O6    A    
C14   H6    S    
C20   C24   D    
C3    C38   S    
C8    C9    D    
C43   H32   S    
C46   H36   S    
C9    C10   S    
C25   C34   S    
C29   O8    A    
C11   H27   S    
C9    H25   S    
C23   O23   A    
C13   C14   D    
Cr5   O8    S    
C1    O12   A    
C2    C6    S    
C17   C33   S    
Cr6   O11   S    
C21   C32   S    
C35   O18   A    
C16   H33   S    
C13   H7    S    
C27   H39   S    
C5    H2    S    
Cr2   O20   S    
C26   H41   S    
C46   H35   S    
C41   C42   S    
C30   O9    A    
C47   H45   S    
Cr3   O4    S    
Cr1   O1    S    
C38   C41   S    
C35   O13   A    
Cr2   O5    S    
C25   C28   D    
C44   H30   S    
C3    C30   S    
C34   O26   A    
Cr3   O3    S    
Cr6   O17   S    
C31   O11   A    
C38   H8    S    
C4    C39   S    
C5    H47   S    
C42   H20   S    
C17   C18   D    
C43   H31   S    
Cr5   O15   S    
Cr2   O21   S    
C25   H15   S    
C41   H23   S    
C20   H13   S    
Cr4   O6    S    
C17   H10   S    
C48   H42   S    
C4    C6    S    
C3    C40   S    
C22   C24   S    
C4    C12   S    
C45   H38   S    
Cr6   O10   S    
C2    H17   S    
Cr1   O5    S    
C19   H9    S    
Cr1   O24   S    
Cr3   O22   S    
C13   C31   S    
Cr3   O5    S    
C4    C5    S    
C33   O16   A    
C12   O22   A    
Cr3   O23   S    
C23   O1    A    
Cr4   O14   S    
C2    C3    S    
C34   O25   A    
C7    H5    S    
C28   H40   S    
C16   C36   S    
C32   O15   A    
C20   C37   S    
C16   C19   D    
C7    C23   S    
C39   H14   S    
C42   H19   S    
Cr1   O12   S    
Cr5   O16   S    
C47   H46   S    
C42   H21   S    
C43   C44   S    
C48   H43   S    
C32   O14   A    
Cr6   O19   S    
C26   C35   S    
C24   H12   S    
C5    C40   S    
C44   H28   S    
Cr2   O2    S    
C14   C15   S    
Cr2   O26   S    
C21   C22   D    
C10   H3    S    
C33   O17   A    
C45   H37   S    
C29   O7    A    
C2    H48   S    
