data_mof_unit_pretest_1458.cif
_audit_creation_date              2012-12-10T16:58:56-0500
_audit_creation_method            fapswitch 2.2
_symmetry_space_group_name_H-M    P1
_symmetry_Int_Tables_number       1
_space_group_crystal_system       triclinic
_cell_length_a                    9.693345
_cell_length_b                    10.881131
_cell_length_c                    17.151099
_cell_angle_alpha                 90.30329
_cell_angle_beta                  85.130575
_cell_angle_gamma                 91.036374
_cell_volume                      1802.16770741

loop_
_atom_site_label
_atom_site_type_symbol
_atom_type_description
_atom_site_fract_x
_atom_site_fract_y
_atom_site_fract_z
_atom_type_partial_charge
C1    C     C_R   0.501878 0.734679 0.497088 0.810449
C2    C     C_R   0.394756 0.601487 0.775981 0.094326
C3    C     C_R   0.501309 0.638437 0.152217 0.014635
C4    C     C_R   0.478179 0.614329 0.232195 -0.278816
C5    C     C_R   0.616271 0.429033 0.217820 -0.021509
C6    C     C_R   0.637214 0.451725 0.137443 -0.114746
C7    C     C_R   0.579687 0.554271 0.104267 0.114167
C8    C     C_2   0.471320 0.541274 0.983144 -0.250687
C9    C     C_2   0.588901 0.560557 0.018348 0.016220
C10   C     C_R   0.534845 0.511281 0.265092 -0.093225
C11   C     C_2   0.605941 0.069144 0.464080 -0.163392
C12   C     C_R   0.480883 0.500897 0.650204 0.863310
C13   C     C_2   0.493380 0.133008 0.487749 -0.334003
C14   C     C_2   0.597839 0.935437 0.451026 0.182268
C15   C     C_2   0.506275 0.867414 0.497429 -0.332809
C16   C     C_2   0.073721 0.580813 0.537767 -0.070417
C17   C     C_2   0.917566 0.576549 0.541303 -0.059156
C18   C     C_R   0.498882 0.265145 0.497144 0.915541
C19   C     C_R   0.519317 0.499947 0.349940 0.759823
C20   C     C_R   0.468571 0.505037 0.735850 -0.083286
C21   C     C_R   0.537171 0.416862 0.778779 -0.033964
C22   C     C_R   0.537684 0.430708 0.859672 -0.264692
C23   C     C_R   0.468376 0.527504 0.898470 0.100301
C24   C     C_R   0.393745 0.609664 0.857437 -0.119177
Cu1   Cu    Cu3+1 0.361370 0.499980 0.499980 0.955355
Cu2   Cu    Cu3+1 0.638630 0.500020 0.500020 0.961582
H1    H     H_    0.694874 0.387094 0.099598 0.187419
H2    H     H_    0.704665 0.116222 0.449861 0.167087
H3    H     H_    0.391609 0.089128 0.494400 0.150216
H4    H     H_    0.435811 0.909869 0.541721 0.128059
H5    H     H_    0.121594 0.654705 0.569071 0.157540
H6    H     H_    0.108392 0.428056 0.474006 0.198291
H7    H     H_    0.861989 0.642256 0.579351 0.152070
H8    H     H_    0.898670 0.443235 0.461768 0.196599
H9    H     H_    0.419539 0.678640 0.269881 0.140839
H10   H     H_    0.338844 0.683306 0.888771 0.165677
H11   H     H_    0.372849 0.532577 0.018286 0.173263
H12   H     H_    0.591114 0.365025 0.893151 0.140433
N1    N     N_2   0.152990 0.501340 0.500850 -0.276125
N2    N     N_2   0.846850 0.501370 0.500880 -0.277536
O1    O     O_R   0.382960 0.678040 0.499990 -0.578642
O2    O     O_R   0.617100 0.678080 0.500010 -0.582832
O3    O     O_R   0.369350 0.500000 0.613580 -0.569559
O4    O     O_R   0.603500 0.500040 0.613610 -0.554365
O5    O     O_R   0.382900 0.321920 0.499990 -0.583544
O6    O     O_R   0.617040 0.321960 0.500010 -0.554822
O7    O     O_R   0.396500 0.499960 0.386390 -0.565101
O8    O     O_R   0.630650 0.500000 0.386420 -0.592140
C25   C     C_2   0.607176 0.307335 0.742895 0.368221
H13   H     H_    0.681961 0.259274 0.774629 0.072801
O9    O     O_2   0.578629 0.266081 0.679830 -0.545518
C26   C     C_3   0.694640 0.882055 0.385441 -0.396833
C27   C     C_3   0.664464 0.933854 0.306175 -0.778224
H14   H     H_    0.555397 0.913012 0.294650 0.241310
H15   H     H_    0.682731 0.034845 0.304478 0.270563
H16   H     H_    0.733828 0.891131 0.259173 0.260333
H17   H     H_    0.803436 0.904893 0.396550 0.203022
H18   H     H_    0.685646 0.780836 0.380590 0.227451
C28   C     C_2   0.674853 0.317153 0.250850 0.360745
H19   H     H_    0.648232 0.291400 0.311341 0.054188
O10   O     O_2   0.753376 0.251488 0.210578 -0.540368
C29   C     C_2   0.726001 0.581611 0.974108 0.408397
H20   H     H_    0.735089 0.589296 0.910860 0.074961
O11   O     O_2   0.830786 0.592688 0.008508 -0.533609
C30   C     C_2   0.444151 0.753209 0.122393 0.364114
H21   H     H_    0.370066 0.805240 0.159714 0.072360
O12   O     O_2   0.481266 0.793284 0.057495 -0.528970
C31   C     C_3   0.321059 0.700616 0.734643 -0.409799
C32   C     C_3   0.165338 0.674609 0.739824 -0.785889
H22   H     H_    0.113555 0.747430 0.708520 0.226198
H23   H     H_    0.143300 0.584293 0.712624 0.262851
H24   H     H_    0.121955 0.673830 0.801891 0.257779
H25   H     H_    0.340473 0.791306 0.762238 0.206498
H26   H     H_    0.360868 0.710519 0.672435 0.196494

loop_
_geom_bond_atom_site_label_1
_geom_bond_atom_site_label_2
_ccdc_geom_bond_type
C32   H24   S    
C23   C24   A    
C6    C7    A    
C1    C15   S    
Cu1   O5    S    
Cu1   O7    S    
C3    C7    A    
C6    H1    S    
C14   C15   D    
Cu2   O8    S    
C10   C19   S    
C9    C29   S    
C7    C9    S    
Cu1   O3    S    
C29   H20   S    
C21   C25   S    
C31   H25   S    
C4    H9    S    
Cu2   O4    S    
C28   H19   S    
C12   O4    A    
C3    C30   S    
C27   H14   S    
Cu1   N1    S    
C16   H5    S    
C11   C13   D    
Cu2   N2    S    
C24   H10   S    
C17   H7    S    
C12   C20   S    
C8    C23   S    
H8    N2    S    
C5    C6    A    
C13   C18   S    
C13   H3    S    
C25   H13   S    
C12   O3    A    
C2    C31   S    
C27   H15   S    
C2    C24   A    
C32   H22   S    
C26   H18   S    
C11   C14   S    
C19   O7    A    
C28   O10   D    
C16   C17   S    
C8    H11   S    
C5    C28   S    
C16   N1    D    
C31   H26   S    
C3    C4    A    
C22   H12   S    
C18   O5    A    
C18   O6    A    
C1    O2    A    
C5    C10   A    
C11   H2    S    
C26   C27   S    
Cu2   O2    S    
C15   H4    S    
C20   C21   A    
C30   H21   S    
C26   H17   S    
C27   H16   S    
Cu1   O1    S    
C32   H23   S    
C2    C20   A    
Cu2   O6    S    
C19   O8    A    
C31   C32   S    
C29   O11   D    
H6    N1    S    
C30   O12   D    
Cu1   Cu2   S    
C21   C22   A    
C4    C10   A    
C22   C23   A    
C14   C26   S    
C1    O1    A    
C8    C9    D    
C25   O9    D    
C17   N2    D    
