data_mof_unit_pretest_1495.cif
_audit_creation_date              2013-03-05T15:41:56-0500
_audit_creation_method            fapswitch 2.2
_symmetry_space_group_name_H-M    P1
_symmetry_Int_Tables_number       1
_space_group_crystal_system       triclinic
_cell_length_a                    19.439287
_cell_length_b                    7.24531
_cell_length_c                    17.71283
_cell_angle_alpha                 90.012274
_cell_angle_beta                  107.647275
_cell_angle_gamma                 89.931075
_cell_volume                      2377.33774648

loop_
_atom_site_label
_atom_site_type_symbol
_atom_site_description
_atom_site_fract_x
_atom_site_fract_y
_atom_site_fract_z
_atom_type_partial_charge
O1    O     O_R   0.414820 0.494320 0.416790 -0.551963
O2    O     O_R   0.585180 0.994320 0.583210 -0.546174
O3    O     O_R   0.560270 0.819500 0.430140 -0.550226
O4    O     O_R   0.439730 0.319500 0.569860 -0.562739
C1    C     C_R   0.582246 0.655250 0.416189 0.823792
C2    C     C_R   0.417840 0.155946 0.583865 0.822091
O5    O     O_R   0.413840 0.823740 0.407440 -0.560979
O6    O     O_R   0.586160 0.323740 0.592560 -0.565643
O7    O     O_R   0.437710 0.998590 0.560350 -0.548648
O8    O     O_R   0.562290 0.498590 0.439650 -0.560145
C3    C     C_R   0.386812 0.655417 0.386673 0.813925
C4    C     C_R   0.613203 0.155285 0.613322 0.813081
O9    O     O_3   0.508000 0.662290 0.550200 -0.282085
O10   O     O_3   0.492000 0.162290 0.449800 -0.281072
V1    V     V_3+5 0.498520 0.935380 0.490690 1.172115
V2    V     V_3+5 0.501480 0.435380 0.509310 1.154486
C5    C     C_2   0.787920 0.264517 0.784037 -0.141314
C6    C     C_2   0.212869 0.764731 0.214801 -0.144401
C7    C     C_2   0.813351 0.110571 0.827285 0.199590
C8    C     C_2   0.186558 0.609633 0.172972 0.194804
H1    H     H_    0.821187 0.387819 0.794361 0.119829
H2    H     H_    0.180433 0.889640 0.203161 0.126219
C9    C     C_2   0.716122 0.281498 0.722337 -0.043199
C10   C     C_2   0.284686 0.781013 0.276488 -0.035759
C11   C     C_2   0.683447 0.140299 0.675783 -0.154569
C12   C     C_2   0.316502 0.640852 0.324358 -0.155022
H3    H     H_    0.691893 0.417963 0.712387 0.129996
H4    H     H_    0.309753 0.916414 0.285186 0.129836
H5    H     H_    0.709881 0.006898 0.681713 0.129949
H6    H     H_    0.289379 0.508759 0.319609 0.124087
C13   C     C_R   0.304877 0.273274 0.610181 0.051259
C14   C     C_R   0.693453 0.518647 0.391572 0.052016
C15   C     C_R   0.365029 0.151672 0.629198 -0.101530
C16   C     C_R   0.634558 0.644332 0.370268 -0.097735
C17   C     C_R   0.374819 0.025636 0.691390 -0.069234
C18   C     C_R   0.626178 0.763180 0.305777 -0.059649
C19   C     C_R   0.326382 0.019351 0.735857 0.106171
C20   C     C_R   0.675009 0.759544 0.261814 0.099670
C21   C     C_R   0.269613 0.149563 0.721827 -0.005003
C22   C     C_R   0.730513 0.625599 0.278480 -0.006604
C23   C     C_R   0.261148 0.285608 0.661948 -0.023349
C24   C     C_R   0.737236 0.495792 0.340379 -0.023212
C25   C     C_R   0.334193 0.884204 0.794526 -0.036316
C26   C     C_R   0.668770 0.888224 0.200965 -0.048988
C27   C     C_R   0.285849 0.875516 0.838686 -0.086829
C28   C     C_R   0.717274 0.886070 0.156881 -0.087727
C29   C     C_R   0.229236 0.003217 0.825758 0.059678
C30   C     C_R   0.772734 0.754505 0.172462 0.056133
C31   C     C_R   0.221015 0.141773 0.767620 0.032557
C32   C     C_R   0.779580 0.623184 0.233230 0.030819
C33   C     C_R   0.164095 0.270877 0.754883 0.003542
C34   C     C_R   0.835611 0.491049 0.249121 0.002547
C35   C     C_R   0.160295 0.414514 0.700382 -0.131378
C36   C     C_R   0.837612 0.353251 0.305634 -0.131354
C37   C     C_R   0.208925 0.427131 0.656192 0.330946
C38   C     C_R   0.788058 0.349816 0.348856 0.331561
C39   C     C_R   0.181659 0.995513 0.871246 -0.117833
C40   C     C_R   0.820314 0.750530 0.126875 -0.119193
C41   C     C_R   0.124643 0.122029 0.859416 -0.091286
C42   C     C_R   0.876441 0.620533 0.141832 -0.099224
C43   C     C_R   0.113512 0.256613 0.798385 0.032794
C44   C     C_R   0.886909 0.495810 0.206417 0.031540
H7    H     H_    0.419829 0.929855 0.704307 0.086117
H8    H     H_    0.582172 0.862086 0.290861 0.086228
H9    H     H_    0.377452 0.783664 0.805768 0.078376
H10   H     H_    0.626444 0.991600 0.187699 0.079136
H11   H     H_    0.292893 0.768779 0.883256 0.081287
H12   H     H_    0.711275 0.987410 0.110325 0.086310
H13   H     H_    0.189735 0.891741 0.917275 0.091292
H14   H     H_    0.812806 0.847385 0.078340 0.104434
H15   H     H_    0.121652 0.525240 0.694490 0.125719
H16   H     H_    0.875260 0.239540 0.313609 0.125691
O11   O     O_R   0.937810 0.773680 0.060480 -0.552848
O12   O     O_R   0.062190 0.273680 0.939520 -0.548759
O13   O     O_R   0.086190 0.439740 0.092580 -0.513493
O14   O     O_R   0.913810 0.939740 0.907420 -0.510901
C45   C     C_R   0.113647 0.607529 0.113217 0.750356
C46   C     C_R   0.886349 0.107711 0.886819 0.749864
O15   O     O_R   0.939760 0.444210 0.069890 -0.560281
O16   O     O_R   0.060240 0.944210 0.930110 -0.564161
O17   O     O_R   0.914790 0.269640 0.916760 -0.573074
O18   O     O_R   0.085210 0.769640 0.083240 -0.571264
C47   C     C_R   0.921407 0.612775 0.087307 0.817811
C48   C     C_R   0.078924 0.112814 0.913064 0.817075
O19   O     O_3   0.992050 0.601530 0.949880 -0.280314
O20   O     O_3   0.007950 0.101530 0.050120 -0.279498
V3    V     V_3+5 0.001480 0.328340 0.009300 1.177590
V4    V     V_3+5 0.998520 0.828340 0.990700 1.180222
C49   C     C_3   0.046244 0.376554 0.775981 -0.349799
H17   H     H_    0.021676 0.378211 0.710628 0.121593
H18   H     H_    0.003129 0.323637 0.799127 0.113604
H19   H     H_    0.060335 0.519508 0.797756 0.130821
C50   C     C_3   0.954369 0.377106 0.233326 -0.344836
H20   H     H_    0.976755 0.379793 0.298916 0.121637
H21   H     H_    0.941378 0.232766 0.212946 0.128918
H22   H     H_    0.998718 0.429285 0.211947 0.115919
N1    N     N_R   0.209239 0.595179 0.613264 0.070259
O21   O     O_R   0.269334 0.684744 0.623680 -0.402106
O22   O     O_R   0.148675 0.675421 0.575396 -0.358892
N2    N     N_R   0.785155 0.186144 0.393535 0.069775
O23   O     O_R   0.723959 0.101423 0.382676 -0.400503
O24   O     O_R   0.844518 0.103691 0.433588 -0.359874
N3    N     N_R   0.767431 0.952875 0.823699 0.075955
O25   O     O_R   0.790530 0.787417 0.816011 -0.369732
O26   O     O_R   0.705216 0.972959 0.836156 -0.365290
N4    N     N_R   0.231500 0.449006 0.178352 0.077870
O27   O     O_R   0.207524 0.286109 0.188342 -0.373027
O28   O     O_R   0.293784 0.463440 0.165605 -0.362938
C51   C     C_3   0.281895 0.361933 0.528628 -0.261645
H23   H     H_    0.291947 0.266535 0.483996 0.073171
H24   H     H_    0.223034 0.389314 0.507302 0.138972
H25   H     H_    0.312583 0.490912 0.528629 0.160059
C52   C     C_3   0.715790 0.437341 0.474537 -0.258109
H26   H     H_    0.706328 0.538161 0.517603 0.075919
H27   H     H_    0.684460 0.310525 0.476504 0.159035
H28   H     H_    0.774492 0.407859 0.496355 0.135675

loop_
_geom_bond_atom_site_label_1
_geom_bond_atom_site_label_2
_geom_bond_distance
_ccdc_geom_bond_type
O15   C47   1.334005 A    
O4    V2    2.019770 S    
C50   H20   1.110388 S    
C26   H10   1.083776 S    
O1    C3    1.328910 A    
O16   C48   1.335315 A    
O2    C4    1.329080 A    
C2    O7    1.311019 A    
O15   V3    2.018415 S    
N1    O21   1.300360 A    
C29   C31   1.412107 A    
C20   C26   1.402329 A    
C5    C9    1.494097 S    
C8    C45   1.489914 S    
C6    C10   1.494082 S    
C17   C19   1.399553 A    
C10   C12   1.346706 D    
C51   H24   1.108463 S    
C42   C47   1.487173 S    
C22   C32   1.419863 A    
C39   C41   1.403365 A    
N4    O27   1.301125 A    
C40   C42   1.403602 A    
C42   C44   1.423221 A    
O6    V2    2.015929 S    
C27   C29   1.401600 A    
C23   C37   1.423788 A    
C24   C38   1.422950 A    
C7    N3    1.440259 S    
C43   C49   1.518350 S    
C31   C33   1.412953 A    
C33   C43   1.425115 A    
C27   H11   1.083760 S    
C32   C34   1.412038 A    
C13   C15   1.419793 A    
C9    H3    1.085868 S    
O12   V3    1.990072 S    
C49   H18   1.107562 S    
O14   V4    2.015837 S    
C8    N4    1.440088 S    
O6    C4    1.335169 A    
C52   H28   1.108686 S    
C30   C32   1.412385 A    
C50   H21   1.110384 S    
N1    O22   1.301430 A    
C34   C36   1.406065 A    
C28   C30   1.401558 A    
C35   C37   1.401269 A    
C11   H5    1.084157 S    
C36   C38   1.400678 A    
C41   C43   1.422813 A    
C41   C48   1.486446 S    
C21   C23   1.420498 A    
C51   H25   1.109277 S    
O12   C48   1.332345 A    
O20   V3    1.784360 S    
C40   H14   1.084770 S    
C26   C28   1.394750 A    
C3    C12   1.477547 S    
C5    H1    1.085982 S    
C33   C35   1.406212 A    
C14   C16   1.420605 A    
C19   C25   1.402203 A    
C7    C46   1.489550 S    
O5    C3    1.335226 A    
O11   V4    1.990743 S    
C28   H12   1.083741 S    
C29   C39   1.399873 A    
O13   C45   1.333968 A    
C25   H9    1.083751 S    
C1    C16   1.484344 S    
C37   N1    1.436631 S    
N2    O24   1.301538 A    
C13   C51   1.518989 S    
N3    O26   1.301507 A    
O1    V2    2.007639 S    
C49   H19   1.110415 S    
O2    V1    2.008351 S    
C25   C27   1.394564 A    
O17   V3    2.008525 S    
O13   V3    2.017170 S    
C21   C31   1.420686 A    
C12   H6    1.084119 S    
C50   H22   1.108315 S    
C14   C52   1.519197 S    
C44   C50   1.518228 S    
O4    C2    1.308503 A    
C38   N2    1.436440 S    
C5    C7    1.358217 D    
C35   H15   1.081587 S    
O3    V1    2.018379 S    
C52   H26   1.110784 S    
O19   V4    1.784353 S    
C13   C23   1.429587 A    
C6    H2    1.085827 S    
C10   H4    1.085888 S    
O14   C46   1.334063 A    
C22   C24   1.420196 A    
O3    C1    1.312405 A    
C17   H7    1.084768 S    
C30   C40   1.400398 A    
C2    C15   1.483093 S    
C4    C11   1.477865 S    
C18   C20   1.398659 A    
O7    V1    2.003090 S    
C1    O8    1.307867 A    
C19   C21   1.414556 A    
C34   C44   1.423101 A    
C51   H23   1.110869 S    
C20   C22   1.413365 A    
C46   O17   1.336746 A    
N4    O28   1.301501 A    
C45   O18   1.337091 A    
O18   V4    2.007815 S    
O5    V1    2.017264 S    
N2    O23   1.300744 A    
C15   C17   1.398760 A    
C16   C18   1.400053 A    
C6    C8    1.358155 D    
C9    C11   1.346718 D    
C36   H16   1.081773 S    
O16   V4    2.019805 S    
O9    V2    1.785447 S    
N3    O25   1.301148 A    
C14   C24   1.428839 A    
O10   V1    1.785452 S    
O8    V2    2.003861 S    
C39   H13   1.084917 S    
C49   H17   1.110418 S    
C18   H8    1.084749 S    
O11   C47   1.334010 A    
C52   H27   1.109330 S    
