data_mof_unit_pretest_851.cif
_audit_creation_date              2012-12-11T21:06:18-0500
_audit_creation_method            fapswitch 2.2
_symmetry_space_group_name_H-M    P1
_symmetry_Int_Tables_number       1
_space_group_crystal_system       triclinic
_cell_length_a                    36.504918
_cell_length_b                    39.452679
_cell_length_c                    8.419279
_cell_angle_alpha                 90.0
_cell_angle_beta                  93.575252
_cell_angle_gamma                 89.895696
_cell_volume                      12101.9676845

loop_
_atom_site_label
_atom_site_type_symbol
_atom_type_description
_atom_site_fract_x
_atom_site_fract_y
_atom_site_fract_z
_atom_type_partial_charge
Ba1   Ba    Ba6+2 0.000060 0.523150 0.844950 1.666223
Ba2   Ba    Ba6+2 0.000060 0.476850 0.344950 1.672269
Ba3   Ba    Ba6+2 0.500060 0.023150 0.844950 1.703775
Ba4   Ba    Ba6+2 0.500060 0.976850 0.344950 1.705342
C1    C     C_3   0.987731 0.690453 0.558456 0.217420
C2    C     C_2   0.906641 0.633807 0.287973 -0.094687
C3    C     C_R   0.652931 0.843665 0.598474 0.597075
C4    C     C_2   0.096729 0.630859 0.417829 -0.105238
C5    C     C_2   0.089016 0.364232 0.885235 -0.070176
C6    C     C_2   0.596530 0.130932 0.418141 -0.106308
C7    C     C_2   0.596689 0.868298 0.904499 -0.086384
C8    C     C_3   0.061393 0.611597 0.427843 -0.048299
C9    C     C_3   0.056120 0.386777 0.908961 -0.092283
C10   C     C_3   0.561045 0.111881 0.427472 -0.049098
C11   C     C_3   0.560779 0.887602 0.919649 -0.133440
C12   C     C_1   0.081209 0.575635 0.210722 0.034078
C13   C     C_2   0.405040 0.869844 0.776826 -0.070112
C14   C     C_1   0.080284 0.424500 0.707181 0.023877
C15   C     C_1   0.581157 0.075498 0.211887 0.015383
C16   C     C_1   0.581816 0.924998 0.709056 0.023202
C17   C     C_2   0.105794 0.598905 0.173207 -0.117532
C18   C     C_2   0.107054 0.403183 0.676827 -0.088643
C19   C     C_2   0.606430 0.098267 0.176334 -0.124606
C20   C     C_2   0.613002 0.908344 0.698388 -0.092768
C21   C     C_2   0.115950 0.627720 0.285909 0.201872
C22   C     C_2   0.112345 0.371148 0.770644 0.211097
C23   C     C_2   0.616345 0.127216 0.288357 0.209032
C24   C     C_2   0.405890 0.133317 0.283071 -0.091249
C25   C     C_2   0.620532 0.876918 0.793714 0.221956
C26   C     C_R   0.744359 0.283371 0.100260 0.019841
C27   C     C_R   0.753205 0.739434 0.446804 0.021834
C28   C     C_R   0.240665 0.785699 0.088330 0.019474
C29   C     C_R   0.248200 0.235076 0.432310 0.021143
C30   C     C_R   0.780268 0.272432 0.068583 0.049003
C31   C     C_R   0.779034 0.727125 0.566677 0.050180
C32   C     C_R   0.276107 0.775134 0.047853 0.048325
C33   C     C_R   0.274551 0.224092 0.553151 0.049600
C34   C     C_R   0.789338 0.237334 0.073863 0.020719
C35   C     C_3   0.943266 0.387103 0.776295 -0.075888
C36   C     C_R   0.779452 0.740318 0.724218 0.016210
C37   C     C_R   0.285357 0.740071 0.047655 0.020907
C38   C     C_R   0.274249 0.237606 0.709843 0.017001
C39   C     C_3   0.895899 0.522773 0.139804 0.298044
C40   C     C_3   0.895802 0.477983 0.651370 0.299427
C41   C     C_3   0.394831 0.022166 0.142810 0.302133
C42   C     C_3   0.355768 0.022707 0.611422 0.279233
C43   C     C_R   0.736115 0.318342 0.084256 -0.101274
C44   C     C_R   0.753434 0.724796 0.293145 -0.110393
C45   C     C_R   0.232165 0.820705 0.077938 -0.100985
C46   C     C_3   0.940893 0.612768 0.268786 -0.083889
C47   C     C_R   0.249459 0.220345 0.279211 -0.110921
C48   C     C_R   0.852444 0.252086 0.017615 -0.068060
C49   C     C_R   0.830796 0.702197 0.799764 -0.045159
C50   C     C_R   0.347465 0.755453 0.979497 -0.079228
C51   C     C_R   0.327287 0.201774 0.788439 -0.047700
C52   C     C_R   0.264794 0.680005 0.069041 -0.101527
C53   C     C_R   0.245661 0.276631 0.899935 -0.109541
C54   C     C_R   0.768050 0.177493 0.095855 -0.101316
C55   C     C_R   0.752467 0.779859 0.917308 -0.109068
C56   C     C_R   0.238481 0.656198 0.106645 -0.061738
C57   C     C_3   0.440250 0.889827 0.767620 -0.108640
C58   C     C_R   0.219388 0.300754 0.933542 -0.074983
C59   C     C_R   0.741071 0.154014 0.129636 -0.063028
C60   C     C_R   0.727011 0.804669 0.952799 -0.074526
C61   C     C_R   0.826042 0.228012 0.049949 -0.102645
C62   C     C_R   0.805845 0.727145 0.838509 -0.108617
C63   C     C_R   0.321650 0.731082 0.014762 -0.105755
C64   C     C_R   0.301136 0.225735 0.825305 -0.109499
C65   C     C_3   0.862399 0.545805 0.127534 -0.353449
C66   C     C_3   0.862367 0.454955 0.641706 -0.337393
C67   C     C_3   0.360713 0.044465 0.134323 -0.372986
C68   C     C_3   0.440272 0.112376 0.266057 -0.076476
C69   C     C_3   0.325719 0.996440 0.624503 -0.316564
C70   C     C_3   0.106248 0.479276 0.025217 0.301207
C71   C     C_3   0.104753 0.522764 0.549084 0.295674
C72   C     C_3   0.623216 0.996159 0.971881 0.373920
C73   C     C_3   0.604045 0.023011 0.547159 0.277187
C74   C     C_3   0.139226 0.455660 0.043989 -0.327635
C75   C     C_3   0.138512 0.545339 0.563021 -0.353430
C76   C     C_3   0.656006 0.972378 0.993613 -0.370370
C77   C     C_3   0.638503 0.044471 0.540830 -0.365926
C78   C     C_3   0.992950 0.651780 0.575511 0.362819
C79   C     C_1   0.920038 0.423931 0.983401 0.030054
C80   C     C_3   0.011050 0.340611 0.146087 0.326568
C81   C     C_3   0.492294 0.151387 0.577586 0.362835
C82   C     C_3   0.543503 0.848970 0.251494 0.422667
C83   C     C_R   0.825396 0.355430 0.980668 0.592004
C84   C     C_R   0.830550 0.662820 0.336485 0.584590
C85   C     C_R   0.319999 0.858870 0.961962 0.597109
C86   C     C_R   0.329148 0.161229 0.328241 0.580555
C87   C     C_3   0.931211 0.718286 0.444164 -0.261886
C88   C     C_3   0.985584 0.247585 0.152853 -0.238859
C89   C     C_3   0.431048 0.217467 0.439463 -0.263518
C90   C     C_1   0.919074 0.575118 0.476210 0.026505
C91   C     C_3   0.508892 0.778287 0.273825 -0.277271
C92   C     C_3   0.023696 0.743153 0.558992 -0.208784
C93   C     C_3   0.076081 0.272135 0.209208 -0.233899
C94   C     C_3   0.524029 0.242354 0.551158 -0.207065
C95   C     C_3   0.580118 0.791669 0.587976 -0.207827
C96   C     C_3   0.073947 0.691926 0.916088 -0.163292
C97   C     C_3   0.002933 0.251283 0.720609 -0.239632
C98   C     C_3   0.573724 0.191661 0.914668 -0.162492
C99   C     C_3   0.385095 0.793112 0.369122 -0.205158
C100  C     C_1   0.419658 0.923295 0.990679 0.038138
C101  C     C_3   0.016718 0.302772 0.181919 0.246851
C102  C     C_1   0.418420 0.074995 0.474372 -0.030002
C103  C     C_2   0.895488 0.400968 0.021728 -0.092784
C104  C     C_2   0.892402 0.596382 0.508976 -0.085247
C105  C     C_2   0.390709 0.903687 0.008751 -0.133832
C106  C     C_2   0.392698 0.097090 0.509534 -0.109599
C107  C     C_2   0.888739 0.370022 0.920270 0.215342
C108  C     C_2   0.884987 0.627508 0.409943 0.210484
C109  C     C_2   0.383083 0.874191 0.899049 0.207911
C110  C     C_2   0.384498 0.127468 0.406286 0.222212
C111  C     C_R   0.807404 0.296876 0.031400 -0.080147
C112  C     C_3   0.487527 0.190031 0.556592 0.216282
C113  C     C_R   0.804806 0.701367 0.528394 -0.078058
C114  C     C_R   0.302632 0.799919 0.007744 -0.083354
C115  C     C_R   0.301572 0.199329 0.516827 -0.078303
C116  C     C_R   0.798415 0.331595 0.019407 -0.033645
C117  C     C_R   0.804637 0.687910 0.373219 -0.034148
C118  C     C_R   0.293496 0.834658 0.002067 -0.036773
C119  C     C_R   0.302185 0.185538 0.362576 -0.033020
C120  C     C_R   0.762501 0.341792 0.044684 -0.060130
C121  C     C_R   0.778535 0.699755 0.257591 -0.074242
C122  C     C_R   0.257952 0.844513 0.035737 -0.060882
C123  C     C_3   0.541921 0.827394 0.403498 0.260984
C124  C     C_R   0.275776 0.196242 0.245583 -0.074930
C125  C     C_R   0.843527 0.286601 0.006387 -0.025958
C126  C     C_R   0.830776 0.689082 0.645214 -0.040648
C127  C     C_R   0.338361 0.789967 0.974322 -0.030576
C128  C     C_R   0.328009 0.188363 0.634779 -0.039225
C129  C     C_3   0.012253 0.646341 0.075674 0.372049
C130  C     C_3   0.995277 0.341456 0.572991 0.267671
C131  C     C_3   0.511938 0.146672 0.076980 0.375261
C132  C     C_3   0.446661 0.869171 0.352975 0.332616
C133  C     C_2   0.942407 0.419837 0.867090 -0.267046
C134  C     C_R   0.870179 0.311045 0.971930 0.581145
C135  C     C_2   0.941811 0.580107 0.361688 -0.271472
C136  C     C_2   0.446615 0.914482 0.902055 -0.201064
C137  C     C_2   0.440330 0.079366 0.356202 -0.257674
C138  C     C_2   0.059922 0.579379 0.331770 -0.279163
C139  C     C_2   0.055974 0.419047 0.814381 -0.252930
C140  C     C_2   0.559215 0.079774 0.330306 -0.271450
C141  C     C_2   0.554931 0.915031 0.796014 -0.192629
C142  C     C_R   0.214918 0.761119 0.136738 0.020192
C143  C     C_R   0.221571 0.260160 0.468017 0.018866
C144  C     C_R   0.717891 0.259179 0.145556 0.020569
C145  C     C_R   0.856645 0.664275 0.604876 0.570461
C146  C     C_R   0.728110 0.765733 0.483876 0.017784
C147  C     C_R   0.258351 0.715302 0.081664 0.019062
C148  C     C_R   0.247333 0.262369 0.746053 0.021125
C149  C     C_R   0.761717 0.212875 0.104095 0.019584
C150  C     C_R   0.753692 0.766036 0.762292 0.021629
C151  C     C_R   0.223534 0.725982 0.129544 0.048805
C152  C     C_R   0.221157 0.273546 0.624903 0.050133
C153  C     C_R   0.726364 0.223972 0.143378 0.048715
C154  C     C_R   0.728264 0.778702 0.641693 0.051329
C155  C     C_R   0.180761 0.770462 0.194336 -0.104120
C156  C     C_R   0.364627 0.814734 0.939746 0.564263
C157  C     C_R   0.195245 0.272650 0.351642 -0.109902
C158  C     C_R   0.683117 0.268996 0.195078 -0.103727
C159  C     C_R   0.702780 0.779845 0.367848 -0.113321
C160  C     C_R   0.155605 0.746279 0.237774 -0.069394
C161  C     C_R   0.169442 0.297003 0.387947 -0.061374
C162  C     C_R   0.657266 0.245177 0.235299 -0.070287
C163  C     C_R   0.678779 0.805667 0.404773 -0.048855
C164  C     C_R   0.163159 0.711582 0.225559 -0.027609
C165  C     C_R   0.168270 0.309939 0.542289 -0.039847
C166  C     C_R   0.664717 0.210393 0.227726 -0.027136
C167  C     C_R   0.355009 0.164481 0.596659 0.566922
C168  C     C_R   0.678157 0.818216 0.560034 -0.044865
C169  C     C_R   0.197045 0.701284 0.171134 -0.080216
C170  C     C_R   0.194249 0.298427 0.661068 -0.075866
C171  C     C_R   0.699182 0.199633 0.181378 -0.079984
C172  C     C_R   0.702625 0.804622 0.679292 -0.081288
C173  C     C_R   0.204477 0.666339 0.159091 -0.036713
C174  C     C_R   0.193378 0.311881 0.815905 -0.034452
C175  C     C_R   0.706496 0.164595 0.173895 -0.035342
C176  C     C_R   0.701579 0.817114 0.835803 -0.034847
C177  C     C_3   0.024512 0.683257 0.099529 -0.085601
C178  C     C_2   0.909908 0.365168 0.795710 -0.083194
C179  C     C_3   0.982868 0.305260 0.605304 -0.077937
C180  C     C_3   0.524197 0.183656 0.098349 -0.083597
C181  C     C_3   0.425376 0.838412 0.287523 -0.048216
C182  C     C_R   0.177731 0.642240 0.199186 0.593839
C183  C     C_R   0.166563 0.336304 0.850147 0.583877
C184  C     C_R   0.679075 0.140856 0.210500 0.592904
C185  C     C_R   0.674978 0.841683 0.872323 0.579744
C186  C     C_R   0.137238 0.687122 0.266738 0.560656
C187  C     C_R   0.141476 0.334071 0.580232 0.579658
C188  C     C_R   0.638168 0.186298 0.266064 0.560106
H1    H     H_    0.967259 0.640341 0.615225 0.050001
H2    H     H_    0.869410 0.430012 0.696121 0.077059
H3    H     H_    0.462615 0.061818 0.338461 0.066498
H4    H     H_    0.036421 0.563026 0.344099 0.075929
H5    H     H_    0.032864 0.435954 0.826331 0.073820
H6    H     H_    0.535112 0.064024 0.339312 0.071855
H7    H     H_    0.529042 0.928475 0.791440 0.067196
H8    H     H_    0.032263 0.632015 0.007713 0.082614
H9    H     H_    0.021156 0.340934 0.510938 0.086894
H10   H     H_    0.532180 0.132033 0.011628 0.080734
H11   H     H_    0.460255 0.881518 0.254040 0.020497
H12   H     H_    0.012797 0.635184 0.196758 -0.129837
H13   H     H_    0.367597 0.070123 0.180579 0.086779
H14   H     H_    0.002188 0.354160 0.689051 -0.036484
H15   H     H_    0.511967 0.136026 0.198962 -0.133956
H16   H     H_    0.468184 0.860197 0.442954 -0.044762
H17   H     H_    0.001443 0.698508 0.141136 0.106995
H18   H     H_    0.972875 0.293076 0.491661 0.089224
H19   H     H_    0.501101 0.199058 0.138700 0.107227
H20   H     H_    0.443363 0.822715 0.215167 0.085159
H21   H     H_    0.905750 0.520555 0.266191 0.006974
H22   H     H_    0.904484 0.482087 0.777831 0.010452
H23   H     H_    0.404835 0.019447 0.268882 0.002307
H24   H     H_    0.299189 0.009378 0.645453 0.068805
H25   H     H_    0.348091 0.039361 0.507912 -0.041270
H26   H     H_    0.917489 0.534380 0.070219 0.071374
H27   H     H_    0.918188 0.465489 0.589873 0.076327
H28   H     H_    0.416063 0.034582 0.073869 0.064581
H29   H     H_    0.357486 0.037808 0.723326 0.023589
H30   H     H_    0.961327 0.681150 0.328892 0.175986
H31   H     H_    0.916625 0.724325 0.327905 0.112928
H32   H     H_    0.938606 0.742418 0.505942 0.118927
H33   H     H_    0.912725 0.703523 0.517034 0.124551
H34   H     H_    0.960384 0.294302 0.147320 0.221692
H35   H     H_    0.851470 0.547548 0.001678 0.138871
H36   H     H_    0.959293 0.236032 0.106904 0.115595
H37   H     H_    0.989055 0.243040 0.283202 0.091631
H38   H     H_    0.008039 0.235038 0.092029 0.118585
H39   H     H_    0.461447 0.180137 0.326895 0.176507
H40   H     H_    0.416578 0.223171 0.322572 0.113379
H41   H     H_    0.438302 0.241777 0.499943 0.119477
H42   H     H_    0.412518 0.202854 0.512747 0.129611
H43   H     H_    0.502239 0.796744 0.502270 0.184825
H44   H     H_    0.481659 0.765752 0.271159 0.124851
H45   H     H_    0.530304 0.758871 0.302927 0.115350
H46   H     H_    0.852764 0.450954 0.515318 0.137876
H47   H     H_    0.512409 0.788908 0.153783 0.102902
H48   H     H_    0.038200 0.697420 0.455923 0.220158
H49   H     H_    0.052568 0.752104 0.566674 0.116826
H50   H     H_    0.010599 0.751437 0.668140 0.102696
H51   H     H_    0.009131 0.754733 0.452571 0.124761
H52   H     H_    0.046879 0.284196 0.992563 0.218220
H53   H     H_    0.101336 0.268022 0.144755 0.101832
H54   H     H_    0.064430 0.247140 0.238862 0.090916
H55   H     H_    0.083643 0.286145 0.320859 0.148476
H56   H     H_    0.538303 0.195817 0.455016 0.217144
H57   H     H_    0.349564 0.046855 0.009047 0.126838
H58   H     H_    0.552989 0.251059 0.558227 0.117145
H59   H     H_    0.510902 0.251424 0.658899 0.102855
H60   H     H_    0.509678 0.253421 0.443003 0.125224
H61   H     H_    0.583876 0.793783 0.341792 0.186738
H62   H     H_    0.608379 0.781375 0.605720 0.097255
H63   H     H_    0.560522 0.770276 0.593275 0.093758
H64   H     H_    0.575616 0.809870 0.685461 0.097466
H65   H     H_    0.017335 0.697863 0.861660 0.248084
H66   H     H_    0.078429 0.702270 0.796265 0.124458
H67   H     H_    0.079950 0.664352 0.916091 0.120568
H68   H     H_    0.332970 0.978896 0.725919 0.138793
H69   H     H_    0.093180 0.704937 0.002618 0.122523
H70   H     H_    0.036615 0.286477 0.620393 0.194053
H71   H     H_    0.026505 0.238903 0.787300 0.101631
H72   H     H_    0.995857 0.236414 0.610878 0.095657
H73   H     H_    0.979192 0.251405 0.796954 0.153152
H74   H     H_    0.517121 0.197730 0.859629 0.248369
H75   H     H_    0.578293 0.201757 0.794466 0.122708
H76   H     H_    0.579608 0.164066 0.915838 0.122067
H77   H     H_    0.592996 0.204747 0.000823 0.125728
H78   H     H_    0.433081 0.808825 0.492748 0.198498
H79   H     H_    0.101558 0.485825 0.898406 0.021959
H80   H     H_    0.376402 0.779591 0.476108 0.114368
H81   H     H_    0.396671 0.774409 0.287106 0.111278
H82   H     H_    0.360519 0.805469 0.309888 0.115044
H83   H     H_    0.095367 0.520448 0.422253 0.019147
H84   H     H_    0.631709 0.018083 0.900017 0.025422
H85   H     H_    0.984117 0.349173 0.185691 0.037874
H86   H     H_    0.591002 0.020662 0.425712 0.035747
H87   H     H_    0.081745 0.466248 0.067085 0.054104
H88   H     H_    0.082994 0.534638 0.617100 0.070803
H89   H     H_    0.600171 0.982278 0.910185 0.009252
H90   H     H_    0.584946 0.035640 0.625991 0.068433
H91   H     H_    0.163475 0.467774 0.994480 0.114217
H92   H     H_    0.160480 0.534495 0.492804 0.136866
H93   H     H_    0.679540 0.985833 0.055016 0.120169
H94   H     H_    0.656869 0.033529 0.453753 0.143165
H95   H     H_    0.133324 0.431565 0.979833 0.075610
H96   H     H_    0.466652 0.140508 0.620648 0.053745
H97   H     H_    0.131617 0.571013 0.517262 0.071584
H98   H     H_    0.664132 0.963604 0.875493 0.076525
H99   H     H_    0.631204 0.070669 0.504417 0.075267
H100  H     H_    0.145633 0.449936 0.171893 0.153772
H101  H     H_    0.148716 0.547476 0.689701 0.130717
H102  H     H_    0.649081 0.949936 0.065152 0.159725
H103  H     H_    0.653350 0.045415 0.659888 0.115918
H104  H     H_    0.997622 0.641512 0.455917 -0.116744
H105  H     H_    0.010247 0.343739 0.014540 -0.058273
H106  H     H_    0.496228 0.140339 0.458787 -0.117630
H107  H     H_    0.514864 0.855491 0.210012 -0.107307
H108  H     H_    0.555664 0.833810 0.156846 -0.072203
H109  H     H_    0.975131 0.699523 0.667733 0.077377
H110  H     H_    0.019597 0.299594 0.313085 0.059119
H111  H     H_    0.475009 0.199771 0.664845 0.076719
H112  H     H_    0.538421 0.845356 0.503580 0.055397
H113  H     H_    0.046938 0.684238 0.193835 0.120160
H114  H     H_    0.959721 0.306283 0.684945 0.123393
H115  H     H_    0.546582 0.184919 0.192712 0.120777
H116  H     H_    0.401810 0.847427 0.209354 0.109261
H117  H     H_    0.880470 0.404236 0.128017 0.115272
H118  H     H_    0.840777 0.535620 0.201376 0.122929
H119  H     H_    0.874714 0.590713 0.604551 0.108720
H120  H     H_    0.374653 0.906909 0.112008 0.117089
H121  H     H_    0.376782 0.092997 0.612369 0.096131
H122  H     H_    0.754533 0.368208 0.034178 0.122438
H123  H     H_    0.777389 0.689674 0.137653 0.120572
H124  H     H_    0.249840 0.870941 0.030208 0.121048
H125  H     H_    0.275330 0.185978 0.126085 0.119730
H126  H     H_    0.103584 0.650236 0.506168 0.114742
H127  H     H_    0.091692 0.340688 0.951624 0.107402
H128  H     H_    0.603181 0.150582 0.505394 0.111816
H129  H     H_    0.839907 0.466586 0.706361 0.130287
H130  H     H_    0.600986 0.845052 0.971898 0.082083
H131  H     H_    0.129884 0.755040 0.280952 0.118730
H132  H     H_    0.150263 0.305755 0.293335 0.141011
H133  H     H_    0.631101 0.254286 0.272332 0.118723
H134  H     H_    0.660112 0.815448 0.310493 0.149991
H135  H     H_    0.172759 0.796436 0.210910 0.067591
H136  H     H_    0.193714 0.264317 0.229820 0.065683
H137  H     H_    0.675127 0.295087 0.207794 0.068101
H138  H     H_    0.700696 0.771702 0.245819 0.067149
H139  H     H_    0.709124 0.328529 0.098135 0.068166
H140  H     H_    0.339396 0.033204 0.206706 0.114755
H141  H     H_    0.734355 0.731856 0.196273 0.068831
H142  H     H_    0.205413 0.830671 0.098716 0.067460
H143  H     H_    0.230323 0.226647 0.181324 0.068077
H144  H     H_    0.905379 0.343415 0.718111 0.092586
H145  H     H_    0.902542 0.656619 0.216953 0.101905
H146  H     H_    0.399840 0.849290 0.693114 0.121373
H147  H     H_    0.401457 0.155703 0.209355 0.101737
H148  H     H_    0.880123 0.243404 0.000874 0.109681
H149  H     H_    0.850393 0.693253 0.892474 0.140683
H150  H     H_    0.374886 0.747011 0.956308 0.116126
H151  H     H_    0.322468 0.981537 0.511803 0.124942
H152  H     H_    0.347183 0.193794 0.882010 0.139835
H153  H     H_    0.289794 0.669758 0.027222 0.068191
H154  H     H_    0.264326 0.269845 0.998710 0.069514
H155  H     H_    0.793501 0.166933 0.060377 0.067128
H156  H     H_    0.770777 0.772062 0.015600 0.068901
H157  H     H_    0.245002 0.629560 0.094303 0.121731
H158  H     H_    0.219605 0.310765 0.053444 0.120875
H159  H     H_    0.747536 0.127288 0.120988 0.119776
H160  H     H_    0.727463 0.814242 0.073469 0.118632
H161  H     H_    0.118229 0.597499 0.059627 0.121333
H162  H     H_    0.869946 0.571601 0.169998 0.084368
H163  H     H_    0.125850 0.409136 0.585783 0.103802
H164  H     H_    0.619616 0.096377 0.064629 0.111419
H165  H     H_    0.633057 0.916897 0.617200 0.105083
H166  H     H_    0.835620 0.202213 0.058701 0.064673
H167  H     H_    0.808313 0.735643 0.960074 0.067755
H168  H     H_    0.331414 0.705313 0.018684 0.067168
H169  H     H_    0.303068 0.234465 0.946522 0.068065
H170  H     H_    0.964184 0.437796 0.848585 0.071418
H171  H     H_    0.965056 0.563404 0.348535 0.077607
H172  H     H_    0.472240 0.928210 0.907897 0.071374
N1    N     N_R   0.860971 0.345125 0.957863 -0.422931
N2    N     N_2   0.984958 0.283576 0.119430 -0.426579
N3    N     N_2   0.463853 0.198030 0.415799 -0.443517
N4    N     N_2   0.510271 0.804792 0.393233 -0.473116
N5    N     N_2   0.023174 0.706601 0.546175 -0.409499
N6    N     N_2   0.049909 0.291547 0.110125 -0.410200
N7    N     N_2   0.523156 0.205747 0.543159 -0.410057
N8    N     N_2   0.575832 0.808435 0.434945 -0.377028
N9    N     N_2   0.036540 0.698410 0.955354 -0.416452
N10   N     N_2   0.012749 0.285534 0.679806 -0.439271
N11   N     N_2   0.536318 0.198365 0.953354 -0.416578
N12   N     N_R   0.856683 0.651635 0.451114 -0.428234
N13   N     N_2   0.412341 0.818296 0.416432 -0.418530
N14   N     N_R   0.355303 0.848897 0.932107 -0.426296
N15   N     N_R   0.355596 0.151255 0.444207 -0.429287
N16   N     N_R   0.144151 0.652643 0.250789 -0.420827
N17   N     N_R   0.140754 0.346949 0.733086 -0.429412
N18   N     N_R   0.645029 0.151732 0.254810 -0.420477
N19   N     N_R   0.650278 0.854093 0.754664 -0.431793
N20   N     N_2   0.963914 0.698841 0.418629 -0.443202
O1    O     O_2   0.072110 0.546320 0.923350 -0.468994
O2    O     O_3   0.968164 0.357739 0.472660 -0.602266
O3    O     O_3   0.476976 0.144673 0.995262 -0.584555
O4    O     O_3   0.421904 0.892561 0.412668 -0.582435
O5    O     O_3   0.958050 0.483830 0.034350 -0.499434
O6    O     O_3   0.958050 0.516170 0.534350 -0.492633
O7    O     O_3   0.458050 0.983830 0.034350 -0.492121
O8    O     O_3   0.458050 0.016170 0.534350 -0.444707
O9    O     O_2   0.817056 0.385325 0.965467 -0.598449
O10   O     O_2   0.829684 0.650779 0.202520 -0.592797
O11   O     O_2   0.311511 0.888815 0.952535 -0.593643
O12   O     O_2   0.072110 0.453680 0.423350 -0.436462
O13   O     O_2   0.328871 0.148742 0.195294 -0.595087
O14   O     O_2   0.108129 0.696763 0.314814 -0.639271
O15   O     O_2   0.118425 0.343242 0.477526 -0.573745
O16   O     O_2   0.608614 0.196309 0.307914 -0.639846
O17   O     O_2   0.632772 0.856060 0.492591 -0.554052
O18   O     O_2   0.901740 0.301952 0.955762 -0.624916
O19   O     O_2   0.879783 0.654590 0.706072 -0.576024
O20   O     O_2   0.396102 0.805858 0.919604 -0.622827
O21   O     O_2   0.378577 0.156086 0.698696 -0.580171
O22   O     O_2   0.184649 0.612011 0.190282 -0.596538
O23   O     O_2   0.572110 0.046320 0.923350 -0.494491
O24   O     O_2   0.166356 0.348279 0.984017 -0.589794
O25   O     O_2   0.685798 0.110540 0.205215 -0.603019
O26   O     O_2   0.673995 0.852172 0.008582 -0.592202
O27   O     O_3   0.042000 0.516250 0.155330 -0.488521
O28   O     O_3   0.042000 0.483750 0.655330 -0.500552
O29   O     O_3   0.542000 0.016250 0.155330 -0.458719
O30   O     O_3   0.542000 0.983750 0.655330 -0.501271
O31   O     O_3   0.012540 0.574900 0.645500 -0.468727
O32   O     O_3   0.012540 0.425100 0.145500 -0.477355
O33   O     O_3   0.512540 0.074900 0.645500 -0.471353
O34   O     O_2   0.572110 0.953680 0.423350 -0.406616
O35   O     O_3   0.512540 0.925100 0.145500 -0.498111
O36   O     O_2   0.075672 0.601448 0.762310 -0.504819
O37   O     O_2   0.083384 0.410350 0.209005 -0.450159
O38   O     O_2   0.575635 0.101512 0.762081 -0.506466
O39   O     O_2   0.583832 0.935307 0.146596 -0.450234
O40   O     O_3   0.113921 0.508665 0.113494 -0.622685
O41   O     O_3   0.114323 0.490772 0.609921 -0.638840
O42   O     O_3   0.612751 0.006975 0.120888 -0.610390
O43   O     O_3   0.614093 0.991020 0.606327 -0.650717
O44   O     O_3   0.022123 0.644424 0.689207 -0.594954
O45   O     O_3   0.886307 0.508954 0.579156 -0.634039
O46   O     O_3   0.039058 0.359233 0.229695 -0.567369
O47   O     O_3   0.521794 0.144263 0.690084 -0.594668
O48   O     O_3   0.564596 0.878466 0.282333 -0.550875
O49   O     O_2   0.928110 0.546600 0.766510 -0.460282
O50   O     O_2   0.928110 0.453400 0.266510 -0.449094
O51   O     O_2   0.428110 0.046600 0.766510 -0.463966
O52   O     O_2   0.428110 0.953400 0.266510 -0.438536
O53   O     O_3   0.987780 0.574950 0.044470 -0.485929
O54   O     O_3   0.987780 0.425050 0.544470 -0.463115
O55   O     O_3   0.487780 0.074950 0.044470 -0.487248
O56   O     O_3   0.885937 0.490754 0.080052 -0.624520
O57   O     O_3   0.487780 0.925050 0.544470 -0.495820
O58   O     O_2   0.923262 0.601045 0.935912 -0.434519
O59   O     O_2   0.918874 0.405911 0.462469 -0.486469
O60   O     O_2   0.423445 0.100981 0.933122 -0.442266
O61   O     O_2   0.421649 0.947022 0.588851 -0.425853
O62   O     O_3   0.389094 0.005942 0.588903 -0.562693
O63   O     O_3   0.385590 0.990309 0.079433 -0.619227
O64   O     O_3   0.977047 0.644571 0.995890 -0.583179
P1    P     P_3+3 0.075650 0.535480 0.098240 0.994775
P2    P     P_3+3 0.953499 0.394611 0.564211 0.959296
P3    P     P_3+3 0.455573 0.107626 0.057996 0.990501
P4    P     P_3+3 0.442827 0.913232 0.577849 1.002107
P5    P     P_3+3 0.048215 0.395848 0.122644 1.007934
P6    P     P_3+3 0.044427 0.607391 0.632402 0.948549
P7    P     P_3+3 0.555598 0.906289 0.122215 1.003742
P8    P     P_3+3 0.544321 0.107434 0.632426 0.946444
P9    P     P_3+3 0.075650 0.464520 0.598240 0.982845
P10   P     P_3+3 0.575650 0.035480 0.098240 1.006270
P11   P     P_3+3 0.575650 0.964520 0.598240 0.994784
P12   P     P_3+3 0.924520 0.535770 0.591580 0.987646
P13   P     P_3+3 0.924520 0.464230 0.091580 0.991388
P14   P     P_3+3 0.424520 0.035770 0.591580 1.041437
P15   P     P_3+3 0.424520 0.964230 0.091580 1.024218
P16   P     P_3+3 0.955626 0.607636 0.059726 0.993504

loop_
_geom_bond_atom_site_label_1
_geom_bond_atom_site_label_2
_ccdc_geom_bond_type
C44   H141  S    
C182  N16   Am   
Ba4   O29   S    
C65   H118  S    
C121  H123  S    
C88   N2    S    
C122  H124  S    
Ba4   O35   S    
C37   C63   A    
C146  C159  A    
C89   N3    S    
C40   H22   S    
C110  N15   S    
O7    P15   S    
C52   H153  S    
C163  H134  S    
C150  C154  A    
C25   N19   S    
C93   H53   S    
C94   H59   S    
C181  N13   S    
C82   H107  S    
O50   P13   D    
C164  C186  A    
C33   C38   A    
C5    C9    S    
C187  O15   D    
C114  C127  A    
C29   C143  A    
C13   C57   S    
C44   C121  A    
C7    C11   S    
C148  C152  A    
O60   P3    D    
C181  H116  S    
O55   P3    S    
C165  C170  A    
C40   C66   S    
C99   H80   S    
C147  C151  A    
C73   H90   S    
O52   P15   D    
H43   N4    S    
C42   O62   S    
C186  N16   Am   
O51   P14   D    
C43   H139  S    
C79   P13   S    
C42   H25   S    
C3    C168  A    
C90   C135  D    
O64   P16   S    
C94   N7    S    
O36   P6    D    
C5    C22   D    
Ba3   O7    S    
C55   H156  S    
C161  C165  A    
C139  H5    S    
C10   C140  S    
Ba3   O33   S    
C160  C164  A    
O53   P16   S    
C134  N1    Am   
C27   C146  A    
C175  C184  A    
C104  H119  S    
C3    N19   Am   
C93   N6    S    
C107  C178  D    
C173  C182  A    
C100  C136  D    
C129  O64   S    
C3    O17   D    
C15   C19   D    
Ba2   O27   S    
C54   C149  A    
O37   P5    D    
C70   O40   S    
C80   C101  S    
C91   H47   S    
C52   C147  A    
C27   C44   A    
C67   H140  S    
C179  H114  S    
C59   H159  S    
C39   O56   S    
Ba2   O54   S    
Ba3   O51   S    
C69   H151  S    
C71   H83   S    
Ba1   O49   S    
C81   C112  S    
C99   H82   S    
O2    P2    S    
C93   H55   S    
O1    P1    D    
C141  H7    S    
C37   C147  A    
C115  C119  A    
C89   H42   S    
C84   N12   Am   
C112  H111  S    
Ba4   O8    S    
C144  C158  A    
C31   C36   A    
O12   P9    D    
C75   H101  S    
C1    C78   S    
C76   H98   S    
C107  N1    S    
Ba4   O52   S    
C41   H23   S    
C63   H168  S    
C78   O44   S    
O47   P8    S    
C87   N20   S    
C67   H13   S    
C40   O45   S    
C51   C128  A    
C87   H32   S    
C10   P8    S    
C67   H57   S    
C15   P10   S    
C157  C161  A    
C48   C61   A    
Ba4   O57   S    
C132  O4    S    
C53   C148  A    
C12   C17   D    
C98   H77   S    
C41   C67   S    
C86   C119  A    
C131  O3    S    
C167  O21   D    
C12   C138  D    
C112  N7    S    
C13   C109  D    
C123  N4    S    
Ba2   P13   S    
C45   C122  A    
O45   P12   S    
C156  O20   D    
C47   C124  A    
C28   C32   A    
C14   C139  D    
C176  C185  A    
C58   H158  S    
Ba4   O34   S    
C92   N5    S    
C85   C118  A    
C158  H137  S    
O5    P13   S    
Ba1   O6    S    
Ba4   P15   S    
C114  C118  A    
C78   H1    S    
C18   H163  S    
Ba3   O8    S    
Ba3   P14   S    
C69   H24   S    
C83   N1    Am   
C88   H38   S    
C106  C110  S    
Ba3   O23   S    
Ba2   O12   S    
C96   H67   S    
C39   C65   S    
H78   N13   S    
C149  C153  A    
C81   O47   S    
C82   O48   S    
C74   H91   S    
C21   N16   S    
C162  H133  S    
C26   C30   A    
H39   N3    S    
C6    C10   S    
C123  H112  S    
H65   N9    S    
C30   C111  A    
O56   P13   S    
C73   H86   S    
C117  C121  A    
C95   H64   S    
O27   P1    S    
C33   C115  A    
C34   C61   A    
C4    C8    S    
C68   P3    S    
C155  H135  S    
O49   P12   D    
C2    C46   S    
Ba2   O6    S    
C24   C110  D    
C66   H129  S    
O54   P2    S    
C129  C177  S    
C153  C171  A    
C162  C166  A    
C178  H144  S    
C98   H75   S    
C18   C22   S    
C39   H26   S    
C91   H44   S    
C165  C187  A    
O48   P7    S    
Ba3   Ba4   S    
C130  H9    S    
C131  H15   S    
C80   H105  S    
C154  C172  A    
C48   H148  S    
C17   C21   S    
C12   P1    S    
C14   C18   D    
C103  C107  S    
C41   O63   S    
C72   C76   S    
C85   O11   D    
C71   O41   S    
Ba3   O30   S    
C57   C136  S    
O32   P5    S    
C54   H155  S    
Ba1   O1    S    
O58   P16   D    
C71   H88   S    
C56   H157  S    
C50   C63   A    
C49   C62   A    
C24   H147  S    
C94   H60   S    
C1    H109  S    
C88   H37   S    
C83   O9    D    
C82   H108  S    
H70   N10   S    
C144  C153  A    
C180  N11   S    
O38   P8    D    
C92   H49   S    
O42   P10   S    
C35   C178  S    
C167  N15   Am   
C101  N6    S    
Ba1   O31   S    
C96   H69   S    
C97   H72   S    
O4    P4    S    
C41   H28   S    
Ba1   O53   S    
C184  O25   D    
O29   P10   S    
C66   H46   S    
C34   C149  A    
C42   C69   S    
C168  C172  A    
C6    C23   D    
Ba1   P1    S    
C15   C140  D    
C81   H96   S    
H30   N20   S    
C183  N17   Am   
C11   P7    S    
C73   O43   S    
C51   C64   A    
C179  H18   S    
C72   O42   S    
C57   P4    S    
C152  C170  A    
C186  O14   D    
C48   C125  A    
C95   H62   S    
C111  C125  A    
C130  H14   S    
C28   C142  A    
C99   N13   S    
C137  H3    S    
C20   C25   S    
C188  O16   D    
C158  C162  A    
O62   P14   S    
O31   P6    S    
C142  C151  A    
C179  N10   S    
C106  H121  S    
H34   N2    S    
C145  N12   Am   
C32   C114  A    
C170  C174  A    
C160  H131  S    
C36   C62   A    
C4    C21   D    
C32   C37   A    
C24   C68   S    
C55   C150  A    
C14   P9    S    
C96   H66   S    
C166  C171  A    
C68   C137  S    
C177  N9    S    
C74   H100  S    
C72   H89   S    
C99   H81   S    
C143  C157  A    
C93   H54   S    
C94   H58   S    
Ba3   P10   S    
C46   C135  S    
C49   H149  S    
C96   N9    S    
C89   H41   S    
C75   H92   S    
Ba1   P12   S    
C29   C33   A    
C98   N11   S    
C104  C108  S    
C4    H126  S    
C46   P16   S    
C101  N2    S    
C92   H51   S    
C73   C77   S    
C66   H2    S    
C84   O10   D    
C55   C60   A    
C120  H122  S    
C143  C152  A    
C77   H99   S    
C97   N10   S    
C89   H40   S    
H48   N5    S    
O40   P1    S    
C23   N18   S    
C27   C31   A    
C87   H31   S    
C156  N14   Am   
C79   C133  D    
C45   H142  S    
C102  C137  D    
C132  H16   S    
C13   H146  S    
C51   H152  S    
C97   H73   S    
C146  C154  A    
O33   P8    S    
C82   C123  S    
C2    C108  D    
O3    P3    S    
C109  N14   S    
C182  O22   D    
C84   C117  A    
C70   H79   S    
C26   C144  A    
C163  C168  A    
C29   C47   A    
C56   C173  A    
C180  H19   S    
C65   H162  S    
O8    P14   S    
O61   P4    D    
C43   C120  A    
Ba1   O5    S    
C105  H120  S    
C8    C138  S    
C188  N18   Am   
C101  H110  S    
C9    C139  S    
C135  H171  S    
C53   H154  S    
C123  N8    S    
C52   C56   A    
C88   H36   S    
C70   C74   S    
C95   N8    S    
C108  N12   S    
O39   P7    D    
C16   C141  D    
Ba1   O28   S    
C35   C133  S    
C132  C181  S    
C17   H161  S    
C130  C179  S    
C184  N18   Am   
C69   H68   S    
C53   C58   A    
C50   C127  A    
C90   C104  D    
C76   H93   S    
C42   H29   S    
Ba4   O7    S    
C61   H166  S    
C103  H117  S    
C91   H45   S    
C100  C105  D    
C60   C176  A    
C90   P12   S    
C64   H169  S    
C166  C188  A    
C59   C175  A    
C72   H84   S    
H61   N8    S    
C177  H17   S    
Ba1   Ba2   S    
C113  C117  A    
C95   H63   S    
H74   N11   S    
C1    N5    S    
C5    H127  S    
C62   H167  S    
C6    H128  S    
C125  C134  A    
C16   C20   D    
C16   P11   S    
C177  H113  S    
C102  P14   S    
O44   P6    S    
C128  C167  A    
C19   C23   S    
C38   C148  A    
C105  C109  S    
C151  C169  A    
C129  H12   S    
O35   P7    S    
C98   H76   S    
C87   H33   S    
C60   H160  S    
C38   C64   A    
O30   P11   S    
C36   C150  A    
C20   H165  S    
C40   H27   S    
C131  C180  S    
C134  O18   D    
O28   P9    S    
C65   H35   S    
C1    N20   S    
C35   P2    S    
C131  H10   S    
C164  C169  A    
C28   C45   A    
C47   H143  S    
C70   H87   S    
C86   O13   D    
C161  H132  S    
C26   C43   A    
Ba2   O32   S    
C11   C141  S    
C8    P6    S    
C30   C34   A    
C171  C175  A    
C142  C155  A    
Ba2   O50   S    
C157  H136  S    
Ba3   O55   S    
C180  H115  S    
C118  C122  A    
C159  C163  A    
C86   N15   Am   
C172  C176  A    
C81   H106  S    
C169  C173  A    
C80   H85   S    
C126  C145  A    
C115  C128  A    
C181  H20   S    
C159  H138  S    
O63   P15   S    
C113  C126  A    
C92   H50   S    
C9    P5    S    
C75   H97   S    
C76   H102  S    
C111  C116  A    
C129  H8    S    
C91   N4    S    
C97   H71   S    
O59   P2    D    
C31   C113  A    
C71   C75   S    
C85   N14   Am   
C174  C183  A    
O57   P4    S    
C39   H21   S    
C74   H95   S    
C102  C106  D    
C100  P15   S    
C54   C59   A    
C136  H172  S    
O46   P5    S    
C133  H170  S    
C155  C160  A    
C58   C174  A    
O6    P12   S    
C77   H94   S    
C7    H130  S    
O34   P11   D    
C130  O2    S    
C185  O26   D    
C19   H164  S    
C77   H103  S    
C83   C116  A    
C185  N19   Am   
C2    H145  S    
C78   H104  S    
C183  O24   D    
C112  N3    S    
C119  C124  A    
C187  N17   Am   
Ba2   P9    S    
C80   O46   S    
C145  O19   D    
C79   C103  D    
C132  H11   S    
O43   P11   S    
C127  C156  A    
H52   N6    S    
O23   P10   D    
Ba2   O5    S    
O41   P9    S    
C140  H6    S    
C7    C25   D    
C124  H125  S    
C50   H150  S    
C138  H4    S    
Ba4   P11   S    
C49   C126  A    
H56   N7    S    
C116  C120  A    
C22   N17   S    
