data_mof_unit_pretest_1677.cif
_audit_creation_date              2012-12-10T20:33:55-0500
_audit_creation_method            fapswitch 2.2
_symmetry_space_group_name_H-M    P1
_symmetry_Int_Tables_number       1
_space_group_crystal_system       monoclinic
_cell_length_a                    28.206628
_cell_length_b                    28.206629
_cell_length_c                    27.736483
_cell_angle_alpha                 90.0
_cell_angle_beta                  90.0
_cell_angle_gamma                 90.000016
_cell_volume                      22067.5311716

loop_
_atom_site_label
_atom_site_type_symbol
_atom_type_description
_atom_site_fract_x
_atom_site_fract_y
_atom_site_fract_z
_atom_type_partial_charge
C1    C     C_R   0.198740 0.698741 0.750000 0.017826
C2    C     C_R   0.801257 0.698743 0.750000 0.018836
C3    C     C_R   0.788193 0.349422 0.249460 -0.032020
C4    C     C_R   0.349422 0.211806 0.750541 -0.032020
C5    C     C_R   0.650578 0.788193 0.249457 -0.032020
C6    C     C_R   0.788193 0.349422 0.750540 -0.032020
C7    C     C_R   0.211806 0.650578 0.249460 -0.032019
C8    C     C_R   0.115207 0.676579 0.749555 -0.075129
C9    C     C_R   0.884792 0.323420 0.250449 -0.075130
C10   C     C_R   0.676580 0.884792 0.749551 -0.075129
C11   C     C_R   0.323420 0.115208 0.250449 -0.075130
C12   C     C_R   0.884792 0.323420 0.749552 -0.075130
C13   C     C_R   0.698743 0.198743 0.250000 0.018839
C14   C     C_R   0.115208 0.676580 0.250449 -0.075130
C15   C     C_R   0.323420 0.115208 0.749550 -0.075130
C16   C     C_R   0.676580 0.884792 0.250451 -0.075130
C17   C     C_R   0.145087 0.353295 0.294115 -0.072900
C18   C     C_R   0.854908 0.646699 0.705885 -0.072899
C19   C     C_R   0.646704 0.145088 0.294115 -0.072900
C20   C     C_R   0.353296 0.854912 0.705885 -0.072900
C21   C     C_R   0.854914 0.646706 0.294115 -0.072901
C22   C     C_R   0.145086 0.353294 0.705885 -0.072900
C23   C     C_R   0.353296 0.854912 0.294115 -0.072900
C24   C     C_R   0.301257 0.801257 0.750000 0.018838
C25   C     C_R   0.646703 0.145088 0.705885 -0.072900
C26   C     C_R   0.645088 0.146704 0.205885 -0.072900
C27   C     C_R   0.354912 0.853295 0.794115 -0.072900
C28   C     C_R   0.146704 0.354913 0.205885 -0.072900
C29   C     C_R   0.853300 0.645092 0.794115 -0.072898
C30   C     C_R   0.354912 0.853296 0.205885 -0.072900
C31   C     C_R   0.645088 0.146703 0.794115 -0.072900
C32   C     C_R   0.853294 0.645086 0.205885 -0.072900
C33   C     C_R   0.146706 0.354914 0.794115 -0.072901
C34   C     C_R   0.615208 0.823420 0.750449 -0.075130
C35   C     C_R   0.801257 0.698743 0.250000 0.018839
C36   C     C_R   0.384792 0.176579 0.249551 -0.075130
C37   C     C_R   0.176579 0.615207 0.750445 -0.075129
C38   C     C_R   0.823420 0.384792 0.249551 -0.075130
C39   C     C_R   0.384792 0.176579 0.750450 -0.075130
C40   C     C_R   0.615208 0.823420 0.249549 -0.075131
C41   C     C_R   0.823420 0.384792 0.750448 -0.075130
C42   C     C_R   0.176579 0.615208 0.249551 -0.075130
C43   C     C_R   0.128067 0.628067 0.750000 -0.118363
C44   C     C_R   0.871933 0.371933 0.250000 -0.118366
C45   C     C_R   0.628067 0.871933 0.750000 -0.118366
C46   C     C_R   0.198743 0.301257 0.750000 0.018839
C47   C     C_R   0.371933 0.128067 0.250000 -0.118366
C48   C     C_R   0.871933 0.371933 0.750000 -0.118366
C49   C     C_R   0.128067 0.628067 0.250000 -0.118366
C50   C     C_R   0.371933 0.128067 0.750000 -0.118367
C51   C     C_R   0.628067 0.871933 0.250000 -0.118368
C52   C     C_R   0.128068 0.371932 0.250000 -0.113138
C53   C     C_R   0.871932 0.628068 0.750000 -0.113132
C54   C     C_R   0.628068 0.128068 0.250000 -0.113137
C55   C     C_R   0.371932 0.871932 0.750000 -0.113137
C56   C     C_R   0.871932 0.628068 0.250000 -0.113139
C57   C     C_R   0.301257 0.801257 0.250000 0.018838
C58   C     C_R   0.128068 0.371932 0.750000 -0.113138
C59   C     C_R   0.371932 0.871932 0.250000 -0.113137
C60   C     C_R   0.628068 0.128068 0.750000 -0.113136
C61   C     C_1   0.137440 0.761578 0.749059 0.196913
C62   C     C_1   0.862559 0.238422 0.250950 0.196912
C63   C     C_1   0.761578 0.862559 0.749050 0.196912
C64   C     C_1   0.238422 0.137441 0.250950 0.196912
C65   C     C_1   0.862559 0.238422 0.749051 0.196912
C66   C     C_1   0.137441 0.761578 0.250950 0.196912
C67   C     C_1   0.238422 0.137441 0.749047 0.196912
C68   C     C_R   0.698743 0.198743 0.750000 0.018838
C69   C     C_1   0.761578 0.862559 0.250956 0.196912
C70   C     C_1   0.197843 0.298821 0.339237 0.197887
C71   C     C_1   0.802147 0.701168 0.660762 0.197889
C72   C     C_1   0.701178 0.197844 0.339238 0.197886
C73   C     C_1   0.298821 0.802157 0.660763 0.197887
C74   C     C_1   0.802160 0.701181 0.339237 0.197886
C75   C     C_1   0.197841 0.298819 0.660763 0.197886
C76   C     C_1   0.298822 0.802157 0.339237 0.197887
C77   C     C_1   0.701176 0.197845 0.660762 0.197887
C78   C     C_1   0.697843 0.201178 0.160762 0.197886
C79   C     C_1   0.234938 0.734939 0.750000 -0.001960
C80   C     C_1   0.302157 0.798821 0.839237 0.197887
C81   C     C_1   0.201178 0.302157 0.160763 0.197887
C82   C     C_1   0.798832 0.697853 0.839237 0.197889
C83   C     C_1   0.302157 0.798822 0.160763 0.197887
C84   C     C_1   0.697845 0.201177 0.839238 0.197887
C85   C     C_1   0.798819 0.697840 0.160763 0.197887
C86   C     C_1   0.201181 0.302159 0.839237 0.197886
C87   C     C_1   0.637441 0.738422 0.750950 0.196912
C88   C     C_1   0.362559 0.261578 0.249050 0.196912
C89   C     C_1   0.261578 0.637440 0.750942 0.196913
C90   C     C_1   0.765061 0.265061 0.250000 -0.001960
C91   C     C_1   0.738422 0.362559 0.249050 0.196912
C92   C     C_1   0.362559 0.261578 0.750953 0.196912
C93   C     C_1   0.637441 0.738422 0.249044 0.196911
C94   C     C_1   0.738422 0.362559 0.750949 0.196912
C95   C     C_1   0.261578 0.637441 0.249050 0.196912
C96   C     C_1   0.065660 0.690470 0.750802 0.212862
C97   C     C_1   0.934340 0.309529 0.249206 0.212867
C98   C     C_1   0.690471 0.934340 0.750794 0.212867
C99   C     C_1   0.309529 0.065660 0.249206 0.212867
C100  C     C_1   0.934340 0.309529 0.750795 0.212866
C101  C     C_1   0.734939 0.765061 0.750000 -0.001959
C102  C     C_1   0.065660 0.690471 0.249206 0.212866
C103  C     C_1   0.309529 0.065660 0.750791 0.212869
C104  C     C_1   0.690471 0.934340 0.249211 0.212870
C105  C     C_1   0.127620 0.371473 0.339745 0.216044
C106  C     C_1   0.872371 0.628517 0.660255 0.216035
C107  C     C_1   0.628526 0.127620 0.339745 0.216044
C108  C     C_1   0.371473 0.872380 0.660255 0.216044
C109  C     C_1   0.872382 0.628529 0.339745 0.216047
C110  C     C_1   0.127618 0.371471 0.660255 0.216047
C111  C     C_1   0.371474 0.872379 0.339745 0.216043
C112  C     C_R   0.801259 0.301259 0.250000 0.017827
C113  C     C_1   0.265061 0.234938 0.250000 -0.001960
C114  C     C_1   0.628525 0.127622 0.660255 0.216041
C115  C     C_1   0.627620 0.128526 0.160255 0.216043
C116  C     C_1   0.372380 0.871473 0.839745 0.216043
C117  C     C_1   0.128527 0.372380 0.160255 0.216044
C118  C     C_1   0.871483 0.627629 0.839745 0.216036
C119  C     C_1   0.372379 0.871474 0.160255 0.216044
C120  C     C_1   0.627622 0.128525 0.839745 0.216042
C121  C     C_1   0.871470 0.627617 0.160255 0.216047
C122  C     C_1   0.128529 0.372382 0.839745 0.216046
C123  C     C_1   0.565660 0.809529 0.749206 0.212867
C124  C     C_1   0.765061 0.265061 0.750000 -0.001960
C125  C     C_1   0.434340 0.190471 0.250794 0.212867
C126  C     C_1   0.190470 0.565660 0.749198 0.212861
C127  C     C_1   0.809529 0.434340 0.250794 0.212867
C128  C     C_1   0.434340 0.190471 0.749209 0.212868
C129  C     C_1   0.565660 0.809529 0.250789 0.212870
C130  C     C_1   0.809529 0.434340 0.749205 0.212867
C131  C     C_1   0.190471 0.565660 0.250794 0.212866
C132  C     C_1   0.234938 0.734939 0.250000 -0.001960
C133  C     C_1   0.265061 0.234938 0.750000 -0.001960
C134  C     C_1   0.734939 0.765061 0.250000 -0.001960
C135  C     C_1   0.234941 0.265059 0.250000 -0.001581
C136  C     C_1   0.765059 0.734940 0.750000 -0.001581
C137  C     C_1   0.734940 0.234941 0.250000 -0.001581
C138  C     C_1   0.265059 0.765059 0.750000 -0.001581
C139  C     C_1   0.765059 0.734941 0.250000 -0.001581
C140  C     C_R   0.698741 0.801259 0.750000 0.017827
C141  C     C_1   0.234941 0.265059 0.750000 -0.001581
C142  C     C_1   0.265059 0.765059 0.250000 -0.001581
C143  C     C_1   0.734940 0.234941 0.750000 -0.001581
C144  C     C_1   0.500000 1.000000 0.930948 -0.120437
C145  C     C_1   0.500000 0.000000 0.069052 -0.120436
C146  C     C_1   1.000000 0.500000 0.930948 -0.120436
C147  C     C_1   1.000000 0.500000 0.069052 -0.120437
C148  C     C_1   1.000000 0.500000 0.430948 -0.120437
C149  C     C_1   1.000000 0.500000 0.569052 -0.120436
C150  C     C_1   0.500000 1.000000 0.430948 -0.120437
C151  C     C_R   0.301259 0.198741 0.250000 0.017827
C152  C     C_1   0.500000 0.000000 0.569052 -0.120436
C153  C     C_1   0.500000 1.000000 0.974488 0.020840
C154  C     C_1   0.500000 1.000000 0.025512 0.020840
C155  C     C_1   1.000000 0.500000 0.974488 0.020840
C156  C     C_1   1.000000 0.500000 0.025512 0.020840
C157  C     C_1   1.000000 0.500000 0.474488 0.020840
C158  C     C_1   1.000000 0.500000 0.525512 0.020840
C159  C     C_1   0.500000 0.000000 0.474488 0.020840
C160  C     C_1   0.500000 0.000000 0.525512 0.020840
C161  C     C_R   0.500000 1.000000 0.620913 0.821620
C162  C     C_R   0.801259 0.301259 0.750000 0.017827
C163  C     C_R   0.500000 0.000000 0.379087 0.821620
C164  C     C_R   1.000000 0.500000 0.620913 0.821621
C165  C     C_R   1.000000 0.500000 0.379087 0.821619
C166  C     C_R   1.000000 0.500000 0.120913 0.821619
C167  C     C_R   1.000000 0.500000 0.879087 0.821621
C168  C     C_R   0.500000 0.000000 0.120913 0.821620
C169  C     C_R   0.500000 0.000000 0.879087 0.821620
C170  C     C_R   0.590944 0.909056 0.750000 0.810087
C171  C     C_R   0.409056 0.090944 0.250000 0.810087
C172  C     C_R   0.909056 0.409056 0.750000 0.810087
C173  C     C_R   0.198741 0.698741 0.250000 0.017827
C174  C     C_R   0.090944 0.590944 0.250000 0.810087
C175  C     C_R   0.409056 0.090944 0.750000 0.810086
C176  C     C_R   0.590944 0.909056 0.250000 0.810086
C177  C     C_R   0.090944 0.590944 0.750000 0.810088
C178  C     C_R   0.909056 0.409055 0.250000 0.810087
C179  C     C_R   0.590945 0.090945 0.250000 0.815081
C180  C     C_R   0.409055 0.909055 0.750000 0.815081
C181  C     C_R   0.909055 0.590945 0.250000 0.815081
C182  C     C_R   0.090945 0.409055 0.750000 0.815081
C183  C     C_R   0.409055 0.909055 0.250000 0.815081
C184  C     C_R   0.301259 0.198741 0.750000 0.017827
C185  C     C_R   0.590945 0.090945 0.750000 0.815081
C186  C     C_R   0.090945 0.409055 0.250000 0.815081
C187  C     C_R   0.909055 0.590944 0.750000 0.815086
C188  C     C_R   0.150578 0.711806 0.749464 -0.032019
C189  C     C_R   0.849422 0.288193 0.250540 -0.032020
C190  C     C_R   0.711807 0.849422 0.749460 -0.032020
C191  C     C_R   0.288193 0.150578 0.250540 -0.032020
C192  C     C_R   0.849422 0.288193 0.749460 -0.032019
C193  C     C_R   0.150578 0.711807 0.250540 -0.032020
C194  C     C_R   0.288193 0.150578 0.749459 -0.032020
C195  C     C_R   0.698741 0.801259 0.250000 0.017828
C196  C     C_R   0.711807 0.849422 0.250543 -0.032020
C197  C     C_R   0.180322 0.317933 0.294012 -0.030989
C198  C     C_R   0.819673 0.682061 0.705988 -0.030987
C199  C     C_R   0.682066 0.180323 0.294012 -0.030989
C200  C     C_R   0.317934 0.819677 0.705988 -0.030989
C201  C     C_R   0.819679 0.682068 0.294012 -0.030989
C202  C     C_R   0.180321 0.317932 0.705988 -0.030989
C203  C     C_R   0.317934 0.819677 0.294012 -0.030989
C204  C     C_R   0.682065 0.180323 0.705988 -0.030989
C205  C     C_R   0.680323 0.182066 0.205988 -0.030989
C206  C     C_R   0.198743 0.301257 0.250000 0.018838
C207  C     C_R   0.319677 0.817934 0.794012 -0.030989
C208  C     C_R   0.182066 0.319678 0.205988 -0.030989
C209  C     C_R   0.817939 0.680327 0.794012 -0.030987
C210  C     C_R   0.319677 0.817934 0.205988 -0.030989
C211  C     C_R   0.680323 0.182065 0.794012 -0.030989
C212  C     C_R   0.817932 0.680321 0.205988 -0.030990
C213  C     C_R   0.182068 0.319679 0.794012 -0.030989
C214  C     C_R   0.650578 0.788193 0.750540 -0.032020
C215  C     C_R   0.349422 0.211806 0.249460 -0.032020
C216  C     C_R   0.211806 0.650578 0.750536 -0.032019
N1    N     N_1   0.126999 0.801256 0.748734 -0.167417
N2    N     N_1   0.788160 0.716415 0.624731 -0.167963
N3    N     N_1   0.716430 0.211826 0.375269 -0.167962
N4    N     N_1   0.283569 0.788174 0.624732 -0.167963
N5    N     N_1   0.788178 0.716435 0.375268 -0.167962
N6    N     N_1   0.211822 0.283566 0.624732 -0.167962
N7    N     N_1   0.283570 0.788174 0.375268 -0.167962
N8    N     N_1   0.716428 0.211828 0.624731 -0.167962
N9    N     N_1   0.711826 0.216430 0.124731 -0.167962
N10   N     N_1   0.288174 0.783569 0.875268 -0.167962
N11   N     N_1   0.216430 0.288174 0.124732 -0.167963
N12   N     N_1   0.873000 0.198744 0.251278 -0.167418
N13   N     N_1   0.783584 0.711840 0.875268 -0.167963
N14   N     N_1   0.288174 0.783570 0.124732 -0.167962
N15   N     N_1   0.711828 0.216428 0.875269 -0.167962
N16   N     N_1   0.783565 0.711822 0.124732 -0.167962
N17   N     N_1   0.216434 0.288178 0.875268 -0.167962
N18   N     N_1   0.627000 0.698744 0.751277 -0.167417
N19   N     N_1   0.373000 0.301256 0.248722 -0.167417
N20   N     N_1   0.301255 0.626999 0.751266 -0.167417
N21   N     N_1   0.698744 0.373000 0.248722 -0.167417
N22   N     N_1   0.373000 0.301256 0.751282 -0.167417
N23   N     N_1   0.801256 0.873000 0.748722 -0.167417
N24   N     N_1   0.627000 0.698744 0.248714 -0.167417
N25   N     N_1   0.698744 0.373000 0.751277 -0.167417
N26   N     N_1   0.301256 0.627000 0.248723 -0.167417
N27   N     N_1   0.026160 0.701548 0.751812 -0.174747
N28   N     N_1   0.973840 0.298451 0.248199 -0.174745
N29   N     N_1   0.701549 0.973840 0.751801 -0.174745
N30   N     N_1   0.298451 0.026160 0.248198 -0.174745
N31   N     N_1   0.973840 0.298451 0.751803 -0.174745
N32   N     N_1   0.026160 0.701548 0.248198 -0.174745
N33   N     N_1   0.298451 0.026160 0.751798 -0.174744
N34   N     N_1   0.198744 0.127000 0.251277 -0.167417
N35   N     N_1   0.701549 0.973840 0.248205 -0.174743
N36   N     N_1   0.113713 0.385971 0.376132 -0.173066
N37   N     N_1   0.886274 0.614015 0.623869 -0.173072
N38   N     N_1   0.614028 0.113714 0.376132 -0.173066
N39   N     N_1   0.385971 0.886286 0.623868 -0.173066
N40   N     N_1   0.886290 0.614033 0.376132 -0.173064
N41   N     N_1   0.113710 0.385968 0.623868 -0.173064
N42   N     N_1   0.385972 0.886286 0.376132 -0.173066
N43   N     N_1   0.614026 0.113716 0.623868 -0.173067
N44   N     N_1   0.613714 0.114028 0.123868 -0.173066
N45   N     N_1   0.873000 0.198744 0.748723 -0.167417
N46   N     N_1   0.386286 0.885971 0.876132 -0.173066
N47   N     N_1   0.114029 0.386286 0.123868 -0.173066
N48   N     N_1   0.885985 0.613726 0.876131 -0.173071
N49   N     N_1   0.386286 0.885972 0.123868 -0.173066
N50   N     N_1   0.613716 0.114026 0.876132 -0.173066
N51   N     N_1   0.885967 0.613710 0.123868 -0.173064
N52   N     N_1   0.114032 0.386290 0.876132 -0.173065
N53   N     N_1   0.526160 0.798451 0.748199 -0.174744
N54   N     N_1   0.473840 0.201548 0.251802 -0.174745
N55   N     N_1   0.201548 0.526160 0.748188 -0.174748
N56   N     N_1   0.127000 0.801256 0.251277 -0.167417
N57   N     N_1   0.798451 0.473840 0.251801 -0.174745
N58   N     N_1   0.473840 0.201549 0.748202 -0.174744
N59   N     N_1   0.526160 0.798451 0.251795 -0.174743
N60   N     N_1   0.798451 0.473840 0.748197 -0.174745
N61   N     N_1   0.201548 0.526160 0.251802 -0.174745
N62   N     N_1   0.198744 0.127000 0.748719 -0.167417
N63   N     N_1   0.801256 0.873000 0.251286 -0.167417
N64   N     N_1   0.211826 0.283569 0.375268 -0.167963
O1    O     O_3   0.500000 1.000000 0.750000 -0.493617
O2    O     O_R   0.460660 1.000000 0.356100 -0.627377
O3    O     O_R   0.000000 0.460660 0.643900 -0.627377
O4    O     O_R   1.000000 0.539340 0.356100 -0.627377
O5    O     O_R   0.960660 0.500000 0.143900 -0.627377
O6    O     O_R   0.039340 0.500000 0.856100 -0.627377
O7    O     O_R   0.500000 0.039340 0.143900 -0.627377
O8    O     O_R   0.500000 0.960660 0.856100 -0.627377
O9    O     O_R   0.039340 0.500000 0.143900 -0.627377
O10   O     O_R   0.960660 0.500000 0.856100 -0.627377
O11   O     O_R   0.500000 0.960660 0.143900 -0.627377
O12   O     O_3   0.500000 0.000000 0.250000 -0.493617
O13   O     O_R   0.500000 0.039340 0.856100 -0.627377
O14   O     O_R   0.594350 0.944820 0.722300 -0.630996
O15   O     O_R   0.405650 0.055180 0.277700 -0.630996
O16   O     O_R   0.944820 0.405650 0.722300 -0.630996
O17   O     O_R   0.055180 0.594350 0.277700 -0.630996
O18   O     O_R   0.405650 0.055180 0.722300 -0.630996
O19   O     O_R   0.594350 0.944820 0.277700 -0.630996
O20   O     O_R   0.055180 0.594350 0.722300 -0.630996
O21   O     O_R   0.944820 0.405650 0.277700 -0.630996
O22   O     O_R   0.594350 0.055180 0.277700 -0.628202
O23   O     O_3   1.000000 0.500000 0.750000 -0.493618
O24   O     O_R   0.405650 0.944820 0.722300 -0.628202
O25   O     O_R   0.944820 0.594350 0.277700 -0.628202
O26   O     O_R   0.055180 0.405650 0.722300 -0.628202
O27   O     O_R   0.405650 0.944820 0.277700 -0.628202
O28   O     O_R   0.594350 0.055180 0.722300 -0.628202
O29   O     O_R   0.055180 0.405650 0.277700 -0.628202
O30   O     O_R   0.944820 0.594350 0.722300 -0.628202
O31   O     O_R   0.094350 0.444820 0.222300 -0.628202
O32   O     O_R   0.905650 0.555180 0.777700 -0.628202
O33   O     O_R   0.444820 0.905650 0.222300 -0.628202
O34   O     O_3   1.000000 0.500000 0.250000 -0.493617
O35   O     O_R   0.555180 0.094350 0.777700 -0.628202
O36   O     O_R   0.905650 0.555180 0.222300 -0.628202
O37   O     O_R   0.094350 0.444820 0.777700 -0.628203
O38   O     O_R   0.555180 0.094350 0.222300 -0.628202
O39   O     O_R   0.444820 0.905650 0.777700 -0.628202
O40   O     O_R   0.094350 0.555180 0.777700 -0.630995
O41   O     O_R   0.905650 0.444820 0.222300 -0.630996
O42   O     O_R   0.444820 0.094350 0.777700 -0.630996
O43   O     O_R   0.555180 0.905650 0.222300 -0.630996
O44   O     O_R   0.905650 0.444820 0.777700 -0.630996
O45   O     O_R   0.460660 0.000000 0.643900 -0.627377
O46   O     O_R   0.094350 0.555180 0.222300 -0.630996
O47   O     O_R   0.555180 0.905650 0.777700 -0.630996
O48   O     O_R   0.444820 0.094350 0.222300 -0.630996
O49   O     O_R   0.539340 1.000000 0.356100 -0.627377
O50   O     O_R   0.000000 0.539340 0.643900 -0.627378
O51   O     O_R   1.000000 0.460660 0.356100 -0.627377
O52   O     O_R   0.539340 0.000000 0.643900 -0.627377
Zn1   Zn    Zn3+2 0.500000 0.943960 0.789960 1.006092
Zn2   Zn    Zn3+2 0.000000 0.556040 0.710040 1.006093
Zn3   Zn    Zn3+2 0.443960 1.000000 0.289960 1.006092
Zn4   Zn    Zn3+2 0.556040 1.000000 0.710040 1.006092
Zn5   Zn    Zn3+2 1.000000 0.556040 0.289960 1.006092
Zn6   Zn    Zn3+2 1.000000 0.443960 0.710040 1.006092
Zn7   Zn    Zn3+2 0.556040 1.000000 0.289960 1.006092
Zn8   Zn    Zn3+2 0.443960 1.000000 0.710040 1.006092
Zn9   Zn    Zn3+2 0.500000 0.056040 0.210040 1.006092
Zn10  Zn    Zn3+2 0.943960 0.500000 0.789960 1.006093
Zn11  Zn    Zn3+2 0.056040 0.500000 0.210040 1.006092
Zn12  Zn    Zn3+2 0.500000 0.056040 0.789960 1.006092
Zn13  Zn    Zn3+2 0.500000 0.943960 0.210040 1.006092
Zn14  Zn    Zn3+2 0.056040 0.500000 0.789960 1.006093
Zn15  Zn    Zn3+2 0.943960 0.500000 0.210040 1.006092
Zn16  Zn    Zn3+2 1.000000 0.443960 0.289960 1.006092

loop_
_geom_bond_atom_site_label_1
_geom_bond_atom_site_label_2
_ccdc_geom_bond_type
C157  C158  S    
C182  O37   A    
O1    Zn4   S    
C55   C180  S    
C113  C151  S    
C25   C204  A    
C45   C170  S    
C64   C191  S    
C162  C192  A    
C150  C163  S    
C60   C185  S    
C89   N20   T    
C61   N1    T    
C36   C215  A    
C63   N23   T    
C27   C55   A    
C174  O46   A    
O12   Zn7   S    
C119  N49   T    
C70   N64   T    
C68   C143  S    
O23   Zn6   S    
C35   C139  S    
C112  C189  A    
C16   C104  S    
C6    C94   S    
C185  O28   A    
C17   C197  A    
C25   C60   A    
C82   C209  S    
C151  C215  A    
C148  C165  S    
C106  N37   T    
C197  C206  A    
C9    C189  A    
C17   C52   A    
C75   C202  S    
C46   C141  S    
C12   C192  A    
O38   Zn9   S    
C185  O35   A    
C86   N17   T    
C150  C159  T    
C21   C201  A    
O18   Zn8   S    
C98   N29   T    
O34   Zn5   S    
C33   C213  A    
C35   C201  A    
C144  C169  S    
C61   C188  S    
C182  O26   A    
C107  N38   T    
C168  O7    A    
C161  O45   A    
C3    C112  A    
C91   N21   T    
C99   N30   T    
C135  C206  S    
C64   N34   T    
C83   N14   T    
C82   N13   T    
C108  N39   T    
C1    C79   S    
C77   C204  S    
O26   Zn6   S    
O39   Zn1   S    
C32   C121  S    
C166  O5    A    
O12   Zn3   S    
C22   C58   A    
C47   C171  S    
C74   C201  S    
O12   Zn9   S    
C180  O24   A    
C24   C207  A    
O2    Zn3   S    
C58   C182  S    
C78   C205  S    
C100  N31   T    
C25   C114  S    
O14   Zn4   S    
C51   C176  S    
C31   C120  S    
C14   C102  S    
C195  C196  A    
C24   C200  A    
C113  C135  T    
C155  C156  S    
C50   C175  S    
C93   N24   T    
C15   C103  S    
O28   Zn4   S    
C13   C137  S    
C20   C108  S    
C145  C168  S    
C69   N63   T    
C40   C129  S    
C68   C204  A    
C176  O19   A    
O44   Zn10  S    
C16   C51   A    
O34   Zn11  S    
C121  N51   T    
O9    Zn11  S    
C84   C211  S    
C122  N52   T    
C167  O10   A    
C23   C59   A    
C74   N5    T    
C92   N22   T    
C71   N2    T    
C57   C142  S    
C36   C47   A    
O1    Zn1   S    
C176  O43   A    
C7    C42   A    
O43   Zn13  S    
C11   C99   S    
O10   Zn10  S    
O35   Zn12  S    
C20   C200  A    
C15   C194  A    
C177  O20   A    
C4    C39   A    
C42   C131  S    
C114  N43   T    
C37   C216  A    
C152  C161  S    
C165  O4    A    
C187  O32   A    
C52   C186  S    
C127  N57   T    
C26   C54   A    
C120  N50   T    
C103  N33   T    
O23   Zn10  S    
C44   C178  S    
C134  C139  T    
C177  O40   A    
C12   C100  S    
C186  O31   A    
C187  O30   A    
C35   C212  A    
C18   C106  S    
O32   Zn10  S    
C46   C213  A    
C30   C59   A    
C1    C216  A    
C149  C164  S    
C59   C183  S    
C179  O38   A    
O51   Zn16  S    
C89   C216  S    
C145  C154  T    
C19   C54   A    
C33   C122  S    
C130  N60   T    
O5    Zn15  S    
C71   C198  S    
C37   C126  S    
O29   Zn16  S    
O41   Zn15  S    
C88   N19   T    
C2    C209  A    
C39   C128  S    
C13   C199  A    
O4    Zn5   S    
C183  O27   A    
C65   N45   T    
C105  N36   T    
C21   C109  S    
C29   C209  A    
C28   C52   A    
C63   C190  S    
C23   C111  S    
C29   C118  S    
C109  N40   T    
C19   C199  A    
C125  N54   T    
C72   C199  S    
C164  O50   A    
C184  C194  A    
C87   C214  S    
C11   C191  A    
C148  C157  T    
C10   C45   A    
C80   N10   T    
O49   Zn7   S    
C19   C107  S    
O12   Zn13  S    
C33   C58   A    
O7    Zn9   S    
C88   C215  S    
C11   C47   A    
C8    C43   A    
C12   C48   A    
O48   Zn9   S    
C76   C203  S    
C8    C188  A    
C186  O29   A    
C94   N25   T    
O42   Zn12  S    
C41   C130  S    
C178  O41   A    
C206  C208  A    
O36   Zn15  S    
C56   C181  S    
C169  O8    A    
C73   C200  S    
O19   Zn7   S    
C54   C179  S    
C3    C91   S    
C26   C115  S    
C18   C53   A    
C166  O9    A    
C146  C155  T    
C75   N6    T    
C22   C110  S    
C18   C198  A    
C124  C143  T    
O40   Zn14  S    
C67   C194  S    
C81   N11   T    
O34   Zn15  S    
C123  N53   T    
C78   N9    T    
C49   C174  S    
C62   C189  S    
C124  C162  S    
C76   N7    T    
C22   C202  A    
O16   Zn6   S    
C126  N55   T    
C34   C214  A    
O1    Zn12  S    
C73   N4    T    
C31   C60   A    
C37   C43   A    
C179  O22   A    
C96   N27   T    
C38   C44   A    
C16   C196  A    
C175  O42   A    
C159  C160  S    
C163  O2    A    
C57   C203  A    
C147  C156  T    
C128  N58   T    
C81   C208  S    
O11   Zn13  S    
C134  C195  S    
C14   C193  A    
C173  C193  A    
O23   Zn14  S    
C13   C205  A    
C129  N59   T    
C26   C205  A    
C40   C51   A    
O47   Zn1   S    
C66   C193  S    
C7    C95   S    
C172  O16   A    
C57   C210  A    
C43   C177  S    
C9    C97   S    
C169  O13   A    
C21   C56   A    
C116  N46   T    
C171  O15   A    
C133  C141  T    
C115  N44   T    
C167  O6    A    
O31   Zn11  S    
C131  N61   T    
C83   C210  S    
C95   N26   T    
C117  N47   T    
O24   Zn8   S    
C46   C202  A    
C79   C138  T    
C118  N48   T    
C168  O11   A    
C5    C40   A    
C163  O49   A    
O23   Zn2   S    
C32   C56   A    
C4    C92   S    
C152  C160  T    
C34   C123  S    
C140  C190  A    
O13   Zn12  S    
C36   C125  S    
C8    C96   S    
C90   C112  S    
O6    Zn14  S    
C38   C127  S    
C10   C190  A    
C87   N18   T    
O33   Zn13  S    
C178  O21   A    
C170  O47   A    
C28   C117  S    
C32   C212  A    
C62   N12   T    
C14   C49   A    
C30   C119  S    
C175  O18   A    
C15   C50   A    
O25   Zn5   S    
C144  C153  T    
C10   C98   S    
O21   Zn16  S    
C77   N8    T    
O8    Zn1   S    
C48   C172  S    
C6    C162  A    
C3    C38   A    
C6    C41   A    
C181  O25   A    
C171  O48   A    
C140  C214  A    
C5    C195  A    
C27   C116  S    
C151  C191  A    
C104  N35   T    
C85   N16   T    
C20   C55   A    
O46   Zn11  S    
C172  O44   A    
C101  C136  T    
C101  C140  S    
C132  C142  T    
C102  N32   T    
C110  N41   T    
C24   C138  S    
C69   C196  S    
C2    C136  S    
C164  O3    A    
C23   C203  A    
C67   N62   T    
O15   Zn3   S    
C147  C166  S    
C17   C105  S    
O1    Zn8   S    
C146  C167  S    
C65   C192  S    
O17   Zn5   S    
C80   C207  S    
C165  O51   A    
C34   C45   A    
C4    C184  A    
C133  C184  S    
C70   C197  S    
C85   C212  S    
C90   C137  T    
O37   Zn14  S    
C149  C158  T    
C1    C188  A    
C72   N3    T    
C9    C44   A    
C111  N42   T    
C2    C198  A    
C181  O36   A    
O3    Zn6   S    
O52   Zn4   S    
C30   C210  A    
C5    C93   S    
C97   N28   T    
C161  O52   A    
C174  O17   A    
O20   Zn2   S    
C53   C187  S    
C86   C213  S    
O45   Zn8   S    
C84   N15   T    
C29   C53   A    
C28   C208  A    
C7    C173  A    
C41   C48   A    
C27   C207  A    
C132  C173  S    
C183  O33   A    
O27   Zn3   S    
C66   N56   T    
C42   C49   A    
O22   Zn7   S    
C39   C50   A    
C31   C211  A    
O50   Zn2   S    
C153  C154  S    
C68   C211  A    
O34   Zn16  S    
C170  O14   A    
O30   Zn2   S    
C180  O39   A    
