data_mof_unit_pretest_1302.cif
_audit_creation_date              2012-12-10T18:31:59-0500
_audit_creation_method            fapswitch 2.2
_symmetry_space_group_name_H-M    P1
_symmetry_Int_Tables_number       1
_space_group_crystal_system       triclinic
_cell_length_a                    10.632671
_cell_length_b                    14.973461
_cell_length_c                    15.467687
_cell_angle_alpha                 82.006967
_cell_angle_beta                  89.705614
_cell_angle_gamma                 103.748278
_cell_volume                      2366.91725869

loop_
_atom_site_label
_atom_site_type_symbol
_atom_type_description
_atom_site_fract_x
_atom_site_fract_y
_atom_site_fract_z
_atom_type_partial_charge
C1    C     C_R   0.481447 0.441717 0.661978 0.875124
C2    C     C_R   0.531547 0.452156 0.896810 0.072272
C3    C     C_R   0.567826 0.367616 0.923610 0.135763
C4    C     C_R   0.742031 0.500225 0.500138 0.822822
C5    C     C_R   0.556076 0.522020 0.951525 0.069993
C6    C     C_R   0.579353 0.497462 0.040249 0.064862
C7    C     C_R   0.607617 0.410370 0.067388 -0.230098
C8    C     C_R   0.606596 0.347927 0.008650 -0.223087
C9    C     C_R   0.566208 0.616532 0.919107 -0.228442
C10   C     C_R   0.576721 0.682330 0.975502 -0.250652
C11   C     C_R   0.573760 0.654665 0.065475 0.179963
C12   C     C_3   0.121425 0.499266 0.500249 0.182588
C13   C     C_R   0.574131 0.561493 0.098374 0.093809
C14   C     C_R   0.567264 0.718047 0.123175 -0.206670
C15   C     C_R   0.552313 0.688007 0.212918 -0.201360
C16   C     C_R   0.520842 0.558379 0.337923 0.861830
C17   C     C_R   0.558247 0.532920 0.188225 -0.274275
C18   C     C_R   0.700096 0.843751 0.631503 -0.306342
C19   C     C_R   0.661013 0.752973 0.614726 0.009143
C20   C     C_R   0.518890 0.795166 0.507144 -0.050505
C21   C     C_R   0.554728 0.888877 0.520710 -0.007095
C22   C     C_R   0.648851 0.912300 0.583535 0.129156
C23   C     C_3   0.098591 0.575644 0.427636 -0.402808
C24   C     C_R   0.501578 0.959368 0.474336 0.041040
C25   C     C_R   0.543194 0.052562 0.492353 0.069446
C26   C     C_R   0.654032 0.075148 0.544148 0.184585
C27   C     C_R   0.697909 0.004521 0.593850 -0.227686
C28   C     C_R   0.258068 0.499560 0.500190 0.824065
C29   C     C_R   0.409912 0.940058 0.409578 -0.234028
C30   C     C_R   0.356093 0.008477 0.366372 -0.206308
C31   C     C_R   0.383750 0.097600 0.390097 0.149791
C32   C     C_R   0.473397 0.118816 0.456578 -0.035704
C33   C     C_R   0.321700 0.165733 0.350211 0.106805
C34   C     C_3   0.078089 0.518619 0.590381 -0.396824
C35   C     C_R   0.347750 0.251944 0.379590 -0.002753
C36   C     C_R   0.483529 0.203863 0.488230 -0.095695
C37   C     C_3   0.896939 0.403845 0.485018 -0.397910
C38   C     C_3   0.039434 0.403657 0.482700 -0.391683
C39   C     C_3   0.953878 0.575141 0.426671 -0.395732
C40   C     C_3   0.934527 0.521332 0.589717 -0.403097
C41   C     C_3   0.878988 0.500405 0.500287 0.178282
C42   C     C_3   0.370825 0.520347 0.802102 -0.911860
C43   C     C_3   0.743354 0.170520 0.537446 -0.977709
C44   C     C_3   0.229743 0.148976 0.276961 -0.962051
C45   C     C_R   0.487874 0.406812 0.754124 -0.070435
C46   C     C_R   0.544056 0.594487 0.245178 -0.061612
C47   C     C_R   0.565720 0.304388 0.864604 -0.212468
C48   C     C_R   0.532352 0.326342 0.778779 -0.256075
C49   C     C_R   0.471261 0.463043 0.816448 0.131903
H1    H     H_    0.137113 0.586202 0.605610 0.184470
H2    H     H_    0.846883 0.351172 0.539605 0.186567
H3    H     H_    0.638224 0.391231 0.132364 0.146602
H4    H     H_    0.569424 0.640724 0.849847 0.167953
H5    H     H_    0.569304 0.789824 0.098756 0.134991
H6    H     H_    0.778123 0.022381 0.636425 0.152775
H7    H     H_    0.535604 0.220336 0.545667 0.160466
H8    H     H_    0.772337 0.860692 0.679653 0.141019
H9    H     H_    0.702344 0.699551 0.649388 0.129315
H10   H     H_    0.449976 0.770126 0.460196 0.121192
H11   H     H_    0.055939 0.347032 0.532905 0.179857
H12   H     H_    0.941703 0.645106 0.435750 0.180199
H13   H     H_    0.378445 0.872663 0.389274 0.132746
H14   H     H_    0.067116 0.388851 0.417542 0.177401
H15   H     H_    0.915223 0.560276 0.362068 0.159486
H16   H     H_    0.131237 0.563381 0.362742 0.155145
H17   H     H_    0.925374 0.591093 0.601938 0.180121
H18   H     H_    0.879449 0.469294 0.643495 0.156547
H19   H     H_    0.854521 0.384600 0.422517 0.184114
H20   H     H_    0.333001 0.533365 0.865006 0.247494
H21   H     H_    0.410833 0.587692 0.760208 0.255498
H22   H     H_    0.286046 0.481612 0.769837 0.226307
H23   H     H_    0.155634 0.645295 0.439193 0.175834
H24   H     H_    0.305149 0.306710 0.349060 0.140039
H25   H     H_    0.288286 0.989272 0.316332 0.158060
H26   H     H_    0.729272 0.215682 0.476956 0.251675
H27   H     H_    0.729868 0.201818 0.596775 0.231018
H28   H     H_    0.846060 0.166127 0.533049 0.249271
H29   H     H_    0.193136 0.211287 0.253395 0.241617
H30   H     H_    0.280188 0.131533 0.220889 0.249299
H31   H     H_    0.144847 0.091047 0.299991 0.248699
H32   H     H_    0.092448 0.463445 0.642869 0.154644
H33   H     H_    0.633836 0.283358 0.030314 0.145291
H34   H     H_    0.549041 0.461021 0.214622 0.162226
H35   H     H_    0.543462 0.736997 0.256584 0.154833
H36   H     H_    0.581448 0.753979 0.948862 0.146707
H37   H     H_    0.596653 0.240735 0.883480 0.143077
H38   H     H_    0.543909 0.281658 0.731421 0.162834
N1    N     N_R   0.573860 0.731700 0.552730 -0.101349
N2    N     N_R   0.426060 0.268290 0.447230 -0.121814
O1    O     O_R   0.462770 0.383110 0.605620 -0.617650
O2    O     O_R   0.510160 0.531900 0.639510 -0.609556
O3    O     O_R   0.661510 0.425600 0.483070 -0.624769
O4    O     O_R   0.708900 0.574390 0.516960 -0.623793
O5    O     O_R   0.489840 0.468100 0.360490 -0.621080
O6    O     O_R   0.537230 0.616890 0.394380 -0.616103
O7    O     O_R   0.291100 0.425610 0.483040 -0.626267
O8    O     O_R   0.338490 0.574400 0.516930 -0.626816
Zn1   Zn    Zn3+2 0.468350 0.400660 0.477370 0.923975
Zn2   Zn    Zn3+2 0.531650 0.599340 0.522630 0.927552

loop_
_geom_bond_atom_site_label_1
_geom_bond_atom_site_label_2
_ccdc_geom_bond_type
C36   N2    A    
C28   O8    A    
C10   H36   S    
C1    O1    A    
O3    Zn1   S    
C7    C8    A    
C39   C41   S    
C39   H15   S    
C12   C23   S    
C26   C27   A    
C37   C38   S    
C12   C28   S    
C8    H33   S    
C32   C36   A    
C7    H3    S    
C37   H2    S    
C30   C31   A    
C30   H25   S    
C11   C14   A    
C27   H6    S    
C4    C41   S    
O5    Zn1   S    
C37   H19   S    
C42   H21   S    
C18   C19   A    
C24   C29   A    
C47   C48   A    
C40   H18   S    
O7    Zn1   S    
C31   C33   A    
C34   H32   S    
C9    C10   A    
O4    Zn2   S    
C25   C32   A    
C1    O2    A    
C40   H17   S    
C21   C22   A    
C12   C38   S    
O8    Zn2   S    
C26   C43   S    
C19   H9    S    
C43   H26   S    
C39   H12   S    
C34   H1    S    
C47   H37   S    
C44   H31   S    
C17   C46   A    
C19   N1    A    
C16   C46   S    
C25   C26   A    
C42   H20   S    
C17   H34   S    
C5    C9    A    
C29   C30   A    
C36   H7    S    
C2    C49   A    
C18   H8    S    
C31   C32   A    
C45   C49   A    
C48   H38   S    
C24   C25   A    
C20   H10   S    
C6    C7    A    
C38   H11   S    
C35   N2    A    
C40   C41   S    
C14   H5    S    
C3    C8    A    
C22   C27   A    
C34   C40   S    
C2    C5    A    
C9    H4    S    
C12   C34   S    
C38   H14   S    
C45   C48   A    
C43   H27   S    
C29   H13   S    
C35   H24   S    
C16   O6    A    
C18   C22   A    
C33   C44   S    
C23   H23   S    
C44   H30   S    
C15   H35   S    
C43   H28   S    
C16   O5    A    
C13   C17   A    
N2    Zn1   S    
C28   O7    A    
C23   H16   S    
C44   H29   S    
C2    C3    A    
C6    C13   A    
C11   C13   A    
C1    C45   S    
C5    C6    A    
C23   C39   S    
C20   N1    A    
C3    C47   A    
C42   H22   S    
C33   C35   A    
O6    Zn2   S    
C37   C41   S    
N1    Zn2   S    
C10   C11   A    
C42   C49   S    
C4    O4    A    
C20   C21   A    
C21   C24   A    
C14   C15   A    
C15   C46   A    
O2    Zn2   S    
O1    Zn1   S    
C4    O3    A    
