data_mof_unit_pretest_282.cif
_audit_creation_date              2012-12-10T16:35:52-0500
_audit_creation_method            fapswitch 2.2
_symmetry_space_group_name_H-M    P1
_symmetry_Int_Tables_number       1
_space_group_crystal_system       triclinic
_cell_length_a                    14.198575
_cell_length_b                    16.475597
_cell_length_c                    13.054561
_cell_angle_alpha                 90.155418
_cell_angle_beta                  106.86347
_cell_angle_gamma                 89.903221
_cell_volume                      2922.52182977

loop_
_atom_site_label
_atom_site_type_symbol
_atom_type_description
_atom_site_fract_x
_atom_site_fract_y
_atom_site_fract_z
_atom_type_partial_charge
C1    C     C_R   0.315008 0.844543 0.477000 0.766187
C2    C     C_R   0.685567 0.843577 0.522925 0.796448
C3    C     C_R   0.185913 0.655777 0.522076 0.821187
C4    C     C_R   0.185567 0.343576 0.522924 0.796383
C5    C     C_R   0.546547 0.998526 0.785967 0.890333
C6    C     C_R   0.046546 0.498525 0.785967 0.890337
C7    C     C_R   0.453855 0.999946 0.214630 0.771537
C8    C     C_R   0.953854 0.499946 0.214630 0.771524
C9    C     C_2   0.440730 0.999359 0.098442 0.292951
C10   C     C_2   0.940728 0.499363 0.098441 0.292926
C11   C     C_2   0.512545 0.965918 0.063065 0.245850
C12   C     C_R   0.314521 0.155009 0.475736 0.791076
C13   C     C_2   0.012530 0.465904 0.063058 0.245847
C14   C     C_2   0.564350 0.993234 0.902447 -0.439353
C15   C     C_2   0.064344 0.493222 0.902446 -0.439372
C16   C     C_2   0.497035 0.961014 0.945254 0.463913
C17   C     C_2   0.997017 0.461012 0.945245 0.463897
C18   C     C_2   0.762295 0.214918 0.521848 0.201704
C19   C     C_2   0.757670 0.778441 0.532535 0.175874
C20   C     C_2   0.262299 0.714908 0.521831 0.201725
C21   C     C_2   0.257673 0.278442 0.532521 0.175955
C22   C     C_3   0.392540 0.851129 0.900054 0.056981
C23   C     C_R   0.815005 0.344545 0.476993 0.766099
C24   C     C_3   0.446173 0.795358 0.841006 -0.366231
C25   C     C_3   0.424286 0.706171 0.855448 -0.871112
C26   C     C_3   0.892429 0.351181 0.900038 0.056978
C27   C     C_3   0.946048 0.295363 0.841031 -0.366338
C28   C     C_3   0.924088 0.206193 0.855478 -0.871068
C29   C     C_3   0.638523 0.870987 0.109139 0.071424
C30   C     C_3   0.730667 0.847259 0.198106 -0.291032
C31   C     C_3   0.775288 0.768609 0.170990 -0.930411
C32   C     C_3   0.138491 0.370952 0.109095 0.071416
C33   C     C_3   0.230614 0.347189 0.198069 -0.291101
C34   C     C_R   0.814525 0.655013 0.475740 0.791086
C35   C     C_3   0.275250 0.268563 0.170902 -0.930512
C36   C     C_3   0.275431 0.042172 0.057063 0.097385
C37   C     C_3   0.224084 0.959342 0.044762 -0.381162
C38   C     C_3   0.127553 0.964752 0.073502 -0.986779
C39   C     C_3   0.775450 0.542233 0.057071 0.097359
C40   C     C_3   0.724063 0.459421 0.044766 -0.381204
C41   C     C_3   0.627534 0.464866 0.073505 -0.986760
C42   C     C_3   0.411382 0.661321 0.519889 0.097980
C43   C     C_3   0.411005 0.568973 0.532893 -0.342207
C44   C     C_3   0.479535 0.528125 0.477550 -1.008024
C45   C     C_2   0.238041 0.784968 0.466269 0.216316
C46   C     C_3   0.412966 0.328910 0.601335 0.067263
C47   C     C_3   0.512458 0.308827 0.681131 -0.313305
C48   C     C_3   0.593037 0.365962 0.669148 -0.927218
C49   C     C_3   0.911424 0.161361 0.520014 0.098063
C50   C     C_3   0.911164 0.069019 0.533129 -0.342325
C51   C     C_3   0.979733 0.028189 0.477819 -1.007926
C52   C     C_3   0.912956 0.828880 0.601461 0.067096
C53   C     C_3   0.012341 0.809002 0.681592 -0.313311
C54   C     C_3   0.092963 0.866063 0.669555 -0.927494
C55   C     C_3   0.626474 0.369671 0.343728 0.091411
C56   C     C_2   0.238685 0.215882 0.462251 0.225709
C57   C     C_3   0.519301 0.372827 0.276462 -0.816169
C58   C     C_3   0.634556 0.640416 0.321792 0.098207
C59   C     C_3   0.536121 0.645312 0.235621 -0.824045
C60   C     C_3   0.126454 0.869672 0.343779 0.091586
C61   C     C_3   0.019266 0.872838 0.276566 -0.816259
C62   C     C_3   0.134573 0.140383 0.321783 0.098151
C63   C     C_3   0.036128 0.145248 0.235624 -0.824004
C64   C     C_2   0.738042 0.284965 0.466254 0.216459
C65   C     C_2   0.738694 0.715891 0.462250 0.225691
C66   C     C_R   0.685914 0.155778 0.522077 0.821147
H1    H     H_    0.634279 0.014941 0.954213 0.139797
H2    H     H_    0.812347 0.338904 0.869511 0.164918
H3    H     H_    0.913434 0.336674 0.986996 0.098455
H4    H     H_    0.922410 0.310261 0.754300 0.263935
H5    H     H_    0.026738 0.305244 0.872139 0.187026
H6    H     H_    0.948267 0.189837 0.941704 0.237817
H7    H     H_    0.964387 0.167496 0.812416 0.278991
H8    H     H_    0.844012 0.194140 0.822224 0.275307
H9    H     H_    0.659607 0.876913 0.033930 0.133283
H10   H     H_    0.582731 0.821994 0.099988 0.139848
H11   H     H_    0.786168 0.896552 0.209712 0.213065
H12   H     H_    0.134282 0.514911 0.954217 0.139784
H13   H     H_    0.711569 0.839612 0.274162 0.254423
H14   H     H_    0.719954 0.719128 0.154406 0.257140
H15   H     H_    0.838688 0.750498 0.239391 0.290183
H16   H     H_    0.801621 0.777345 0.099543 0.261047
H17   H     H_    0.159599 0.376906 0.033904 0.133317
H18   H     H_    0.082684 0.321964 0.099892 0.139806
H19   H     H_    0.286118 0.396485 0.209743 0.213093
H20   H     H_    0.211486 0.339496 0.274100 0.254449
H21   H     H_    0.219915 0.219082 0.154250 0.257078
H22   H     H_    0.338635 0.250426 0.239305 0.290195
H23   H     H_    0.312468 0.838808 0.869562 0.164866
H24   H     H_    0.301610 0.277346 0.099482 0.261102
H25   H     H_    0.224885 0.085722 0.003045 0.179737
H26   H     H_    0.287857 0.067345 0.138938 0.117879
H27   H     H_    0.208762 0.938074 0.960637 0.245969
H28   H     H_    0.272490 0.914088 0.097905 0.204064
H29   H     H_    0.141730 0.985692 0.157529 0.247885
H30   H     H_    0.092411 0.903981 0.065204 0.277404
H31   H     H_    0.076294 0.007773 0.019356 0.273115
H32   H     H_    0.724924 0.585798 0.003057 0.179740
H33   H     H_    0.787887 0.567407 0.138948 0.117940
H34   H     H_    0.413586 0.836614 0.987011 0.098408
H35   H     H_    0.708732 0.438153 0.960641 0.245969
H36   H     H_    0.772447 0.414154 0.097908 0.204052
H37   H     H_    0.641721 0.485801 0.157535 0.247892
H38   H     H_    0.592360 0.404108 0.065196 0.277423
H39   H     H_    0.576299 0.507906 0.019366 0.273118
H40   H     H_    0.488626 0.683187 0.548654 0.184323
H41   H     H_    0.384327 0.677223 0.433145 0.132304
H42   H     H_    0.434880 0.553219 0.619360 0.237916
H43   H     H_    0.335467 0.545257 0.496821 0.213709
H44   H     H_    0.458627 0.544771 0.391524 0.271643
H45   H     H_    0.422492 0.810264 0.754278 0.263903
H46   H     H_    0.473705 0.461394 0.483118 0.264635
H47   H     H_    0.556959 0.546166 0.516843 0.280813
H48   H     H_    0.393991 0.393137 0.612885 0.169862
H49   H     H_    0.419862 0.321004 0.518805 0.136805
H50   H     H_    0.506742 0.313780 0.764069 0.232932
H51   H     H_    0.532988 0.245341 0.667772 0.213901
H52   H     H_    0.599350 0.363096 0.586516 0.298576
H53   H     H_    0.664587 0.347614 0.725282 0.260574
H54   H     H_    0.576705 0.429324 0.687842 0.270301
H55   H     H_    0.988639 0.183295 0.548763 0.184304
H56   H     H_    0.526857 0.805279 0.872084 0.187020
H57   H     H_    0.884358 0.177198 0.433248 0.132295
H58   H     H_    0.935071 0.053325 0.619615 0.237889
H59   H     H_    0.835655 0.045234 0.497101 0.213788
H60   H     H_    0.958758 0.044745 0.391761 0.271614
H61   H     H_    0.974035 0.961454 0.483511 0.264757
H62   H     H_    0.057131 0.046339 0.517041 0.280870
H63   H     H_    0.893846 0.893126 0.612700 0.169723
H64   H     H_    0.920081 0.820806 0.519050 0.137120
H65   H     H_    0.006408 0.814220 0.764420 0.232984
H66   H     H_    0.032973 0.745466 0.668645 0.213968
H67   H     H_    0.448507 0.689807 0.941669 0.237804
H68   H     H_    0.099593 0.862844 0.587067 0.298578
H69   H     H_    0.164414 0.847939 0.726068 0.260560
H70   H     H_    0.076448 0.929504 0.687706 0.270409
H71   H     H_    0.672983 0.363092 0.288583 0.136390
H72   H     H_    0.644106 0.427488 0.389456 0.142729
H73   H     H_    0.470336 0.373737 0.329075 0.253864
H74   H     H_    0.505588 0.428325 0.226324 0.203769
H75   H     H_    0.501623 0.318689 0.223513 0.266541
H76   H     H_    0.628971 0.593378 0.380659 0.130784
H77   H     H_    0.691650 0.622181 0.283182 0.121723
H78   H     H_    0.464592 0.667508 0.812356 0.278984
H79   H     H_    0.540618 0.689352 0.173003 0.245948
H80   H     H_    0.516274 0.584830 0.197981 0.199014
H81   H     H_    0.477794 0.665210 0.271373 0.260660
H82   H     H_    0.172923 0.863035 0.288599 0.136324
H83   H     H_    0.144131 0.927512 0.389446 0.142762
H84   H     H_    0.970333 0.873793 0.329214 0.253876
H85   H     H_    0.005552 0.928319 0.226395 0.203761
H86   H     H_    0.001547 0.818685 0.223648 0.266529
H87   H     H_    0.129044 0.093298 0.380616 0.130790
H88   H     H_    0.191680 0.122231 0.283151 0.121772
H89   H     H_    0.344217 0.694080 0.822223 0.275349
H90   H     H_    0.040569 0.189348 0.173049 0.245996
H91   H     H_    0.016350 0.084777 0.197924 0.199000
H92   H     H_    0.977782 0.165053 0.271402 0.260637
O1    O     O_3   0.500010 0.000000 0.500000 -0.493910
O2    O     O_R   0.103010 0.337110 0.452470 -0.592279
O3    O     O_R   0.316670 0.095240 0.537470 -0.642091
O4    O     O_R   0.316670 0.904760 0.537470 -0.644900
O5    O     O_R   0.816670 0.595240 0.537470 -0.642084
O6    O     O_R   0.816670 0.404760 0.537470 -0.644947
O7    O     O_R   0.703490 0.904800 0.585920 -0.644093
O8    O     O_R   0.703490 0.095200 0.585920 -0.644763
O9    O     O_R   0.203490 0.404800 0.585920 -0.644081
O10   O     O_R   0.203490 0.595200 0.585920 -0.644743
O11   O     O_R   0.458050 0.000000 0.725250 -0.562210
O12   O     O_3   0.000010 0.500000 0.500000 -0.493900
O13   O     O_R   0.958050 0.500000 0.725250 -0.562199
O14   O     O_R   0.461630 0.932310 0.264690 -0.639870
O15   O     O_R   0.461630 0.067690 0.264690 -0.641749
O16   O     O_R   0.961630 0.432310 0.264690 -0.639840
O17   O     O_R   0.961630 0.567690 0.264690 -0.641780
O18   O     O_R   0.618750 0.000000 0.745380 -0.654403
O19   O     O_R   0.118750 0.500000 0.745380 -0.654401
O20   O     O_3   0.407295 0.933602 0.878882 -0.575672
O21   O     O_3   0.907260 0.433639 0.878864 -0.575643
O22   O     O_3   0.601948 0.945095 0.136900 -0.675321
O23   O     O_R   0.376880 0.837120 0.424150 -0.670594
O24   O     O_3   0.101923 0.445052 0.136891 -0.675306
O25   O     O_3   0.362377 0.038642 0.024853 -0.629086
O26   O     O_3   0.862394 0.538673 0.024861 -0.629082
O27   O     O_3   0.358254 0.699544 0.583339 -0.680251
O28   O     O_3   0.340893 0.276983 0.620489 -0.647191
O29   O     O_3   0.858238 0.199576 0.583410 -0.680290
O30   O     O_3   0.840849 0.776957 0.620548 -0.647149
O31   O     O_3   0.639240 0.303272 0.414707 -0.611757
O32   O     O_3   0.656661 0.717215 0.371437 -0.611594
O33   O     O_3   0.139231 0.803317 0.414829 -0.611815
O34   O     O_R   0.376880 0.162880 0.424150 -0.664976
O35   O     O_3   0.156598 0.217168 0.371490 -0.611596
O36   O     O_R   0.876880 0.337120 0.424150 -0.670562
O37   O     O_R   0.876880 0.662880 0.424150 -0.664963
O38   O     O_R   0.603010 0.162890 0.452470 -0.592144
O39   O     O_R   0.603010 0.837110 0.452470 -0.592288
O40   O     O_R   0.103010 0.662890 0.452470 -0.592195
Zn1   Zn    Zn3+2 0.485630 0.096680 0.411850 0.972994
Zn2   Zn    Zn3+2 0.485630 0.903320 0.411850 0.973703
Zn3   Zn    Zn3+2 0.985630 0.596680 0.411850 0.972995
Zn4   Zn    Zn3+2 0.985630 0.403320 0.411850 0.973734
Zn5   Zn    Zn3+2 0.399590 0.000000 0.573760 0.995073
Zn6   Zn    Zn3+2 0.899590 0.500000 0.573760 0.995069
Zn7   Zn    Zn3+2 0.629190 0.000000 0.602520 0.963385
Zn8   Zn    Zn3+2 0.129190 0.500000 0.602520 0.963418

loop_
_geom_bond_atom_site_label_1
_geom_bond_atom_site_label_2
_ccdc_geom_bond_type
C34   O37   A    
C26   H2    S    
C40   C41   S    
O10   Zn8   S    
O15   Zn1   S    
C2    O39   A    
C10   O26   S    
C43   H43   S    
C22   O20   S    
C28   H8    S    
C63   H91   S    
C64   O31   S    
C8    O17   A    
C21   O28   S    
C48   H54   S    
C29   H10   S    
C53   C54   S    
C26   C27   S    
C37   C38   S    
C31   H16   S    
C41   H39   S    
C46   H49   S    
C41   H38   S    
C51   H62   S    
C55   O31   S    
C32   O24   S    
C36   C37   S    
C63   H90   S    
O12   Zn8   S    
C38   H31   S    
O2    Zn4   S    
C30   C31   S    
C8    O16   A    
C15   H12   S    
C25   H89   S    
O36   Zn4   S    
C18   O29   S    
O16   Zn4   S    
C3    O40   A    
O19   Zn8   S    
C57   H73   S    
C15   C17   D    
C35   H22   S    
O34   Zn1   S    
O13   Zn6   S    
C33   H19   S    
O12   Zn3   S    
O6    Zn6   S    
C20   O27   S    
C30   H11   S    
C35   H21   S    
C58   H77   S    
C45   O33   S    
C29   O22   S    
C38   H29   S    
C58   O32   S    
C14   H1    S    
O14   Zn2   S    
C53   H65   S    
O8    Zn7   S    
C29   C30   S    
C25   H67   S    
C61   H84   S    
O12   Zn6   S    
C20   C45   D    
C60   H83   S    
C17   O21   S    
O1    Zn1   S    
C6    C15   S    
C54   H70   S    
C7    O14   A    
C63   H92   S    
C28   H6    S    
C24   H45   S    
O38   Zn1   S    
C32   H18   S    
C28   H7    S    
C34   C65   S    
C16   O20   S    
C3    O10   A    
O1    Zn7   S    
C48   H53   S    
C6    O13   A    
C47   H50   S    
C12   O34   A    
O5    Zn6   S    
C22   H34   S    
C46   H48   S    
O9    Zn8   S    
C31   H14   S    
C50   H58   S    
C24   C25   S    
O17   Zn3   S    
C34   O5    A    
C39   C40   S    
C36   O25   S    
C1    O23   A    
C39   H32   S    
C48   H52   S    
C58   C59   S    
C26   O21   S    
C40   H36   S    
C46   O28   S    
C41   H37   S    
C57   H74   S    
C60   C61   S    
O18   Zn7   S    
O39   Zn2   S    
C43   C44   S    
C35   H24   S    
C62   C63   S    
C9    O25   S    
C19   O30   S    
O11   Zn5   S    
C9    C11   D    
C11   C16   S    
C58   H76   S    
O1    Zn5   S    
C47   C48   S    
C49   O29   S    
C49   H55   S    
O40   Zn3   S    
C24   H56   S    
C50   C51   S    
C37   H27   S    
C3    C20   S    
C53   H66   S    
C12   O3    A    
C61   H85   S    
C2    O7    A    
C5    C14   S    
C12   C56   S    
C27   H4    S    
O37   Zn3   S    
C30   H13   S    
C59   H79   S    
C42   O27   S    
C23   C64   S    
C44   H47   S    
C49   C50   S    
C55   C57   S    
C6    O19   A    
C59   H81   S    
C5    O18   A    
C14   C16   D    
C25   H78   S    
C42   C43   S    
C52   H63   S    
C44   H46   S    
C27   H5    S    
C52   C53   S    
C36   H25   S    
C23   O6    A    
C42   H41   S    
C7    C9    S    
C32   H17   S    
C46   C47   S    
O1    Zn2   S    
C2    C19   S    
C51   H60   S    
O3    Zn5   S    
C40   H35   S    
C66   O8    A    
C10   C13   D    
C55   H71   S    
C1    O4    A    
C21   C56   D    
C66   O38   A    
C4    O9    A    
C29   H9    S    
C57   H75   S    
C18   C66   S    
C52   O30   S    
C31   H15   S    
C62   H87   S    
C13   C17   S    
O4    Zn5   S    
C51   H61   S    
C32   C33   S    
C52   H64   S    
C1    C45   S    
C4    C21   S    
C18   C64   D    
C4    O2    A    
C39   O26   S    
C60   O33   S    
C54   H69   S    
C7    O15   A    
C23   O36   A    
C33   C35   S    
C22   H23   S    
C37   H28   S    
C19   C65   D    
C22   C24   S    
C43   H42   S    
C61   H86   S    
O12   Zn4   S    
C36   H26   S    
C55   H72   S    
C56   O35   S    
C42   H40   S    
C59   H80   S    
C62   H88   S    
C39   H33   S    
C47   H51   S    
C65   O32   S    
C49   H57   S    
C8    C10   S    
C13   O24   S    
C38   H30   S    
C27   C28   S    
C26   H3    S    
C5    O11   A    
C11   O22   S    
C60   H82   S    
C62   O35   S    
C50   H59   S    
O23   Zn2   S    
O7    Zn7   S    
C33   H20   S    
C44   H44   S    
C54   H68   S    
