data_mof_unit_pretest_1095.cif
_audit_creation_date              2012-12-10T19:03:41-0500
_audit_creation_method            fapswitch 2.2
_symmetry_space_group_name_H-M    P1
_symmetry_Int_Tables_number       1
_space_group_crystal_system       triclinic
_cell_length_a                    15.875818
_cell_length_b                    10.836993
_cell_length_c                    9.560366
_cell_angle_alpha                 90.581271
_cell_angle_beta                  90.267995
_cell_angle_gamma                 90.40551
_cell_volume                      1644.67956963

loop_
_atom_site_label
_atom_site_type_symbol
_atom_type_description
_atom_site_fract_x
_atom_site_fract_y
_atom_site_fract_z
_atom_type_partial_charge
C1    C     C_R   0.497700 0.262460 0.499221 0.787491
C2    C     C_3   0.952197 0.438882 0.640735 -0.138375
C3    C     C_3   0.917228 0.498615 0.504423 0.267227
C4    C     C_3   0.951958 0.632297 0.491856 -0.370225
C5    C     C_3   0.049522 0.632148 0.491840 -0.379616
C6    C     C_1   0.824898 0.498740 0.502630 -0.081837
C7    C     C_1   0.175038 0.498743 0.499944 -0.099358
C8    C     C_1   0.250590 0.499138 0.499336 -0.159032
C9    C     C_R   0.470839 0.065478 0.619043 0.101025
C10   C     C_R   0.488058 0.129582 0.496589 -0.090423
C11   C     C_R   0.493134 0.063138 0.369971 -0.235549
C12   C     C_R   0.340248 0.499678 0.499770 0.829120
C13   C     C_R   0.493752 0.934566 0.371010 -0.192430
C14   C     C_R   0.489786 0.871118 0.498728 -0.114217
C15   C     C_R   0.471858 0.938233 0.620529 0.096429
C16   C     C_3   0.512145 0.937076 0.762200 -0.226636
C17   C     C_3   0.509452 0.077296 0.761154 -0.496831
C18   C     C_R   0.571224 0.530942 0.074382 0.134774
C19   C     C_R   0.434452 0.449788 0.072752 0.528603
C20   C     C_R   0.433861 0.453481 0.923728 -0.152654
C21   C     C_R   0.571415 0.529201 0.927225 0.224139
C22   C     C_3   0.621064 0.645730 0.920340 -0.506498
C23   C     C_R   0.498420 0.737818 0.500332 0.788063
C24   C     C_3   0.619298 0.649980 0.079613 -0.247171
C25   C     C_R   0.659733 0.499805 0.500310 0.821469
C26   C     C_3   0.050287 0.441090 0.639326 -0.404163
C27   C     C_3   0.047530 0.422258 0.376422 -0.381113
C28   C     C_3   0.949954 0.422774 0.377590 -0.393832
C29   C     C_1   0.749359 0.499145 0.501414 -0.152084
C30   C     C_3   0.082893 0.498477 0.501735 0.302664
Cu1   Cu    Cu3+1 0.500000 0.499980 0.640670 0.948172
Cu2   Cu    Cu3+1 0.500000 0.500020 0.359330 0.980497
H1    H     H_    0.930579 0.341013 0.644050 0.119126
H2    H     H_    0.076463 0.494233 0.730223 0.170250
H3    H     H_    0.928626 0.674415 0.393401 0.184234
H4    H     H_    0.501738 0.109717 0.271314 0.157145
H5    H     H_    0.502113 0.885817 0.272682 0.170641
H6    H     H_    0.577211 0.900241 0.761119 0.140906
H7    H     H_    0.465239 0.119519 0.837527 0.188019
H8    H     H_    0.573103 0.120759 0.759114 0.196205
H9    H     H_    0.073985 0.345069 0.648827 0.151734
H10   H     H_    0.379676 0.418715 0.866669 0.155101
H11   H     H_    0.684274 0.630456 0.873613 0.204274
H12   H     H_    0.584805 0.720240 0.871626 0.200712
H13   H     H_    0.582740 0.728080 0.123963 0.162366
H14   H     H_    0.070511 0.461548 0.276336 0.176499
H15   H     H_    0.070324 0.325505 0.381708 0.163455
H16   H     H_    0.925918 0.326173 0.382408 0.161408
H17   H     H_    0.926214 0.462772 0.278223 0.199034
H18   H     H_    0.073482 0.688459 0.581761 0.168641
H19   H     H_    0.072855 0.676012 0.394484 0.171400
H20   H     H_    0.928983 0.690768 0.579856 0.170943
N1    N     N_R   0.500530 0.500930 0.147930 -0.230255
N2    N     N_R   0.500530 0.500890 0.852020 -0.200433
O1    O     O_R   0.500000 0.319640 0.618810 -0.579756
O2    O     O_R   0.500010 0.319680 0.381230 -0.589603
O3    O     O_R   0.379430 0.499990 0.618840 -0.588773
O4    O     O_R   0.379440 0.500030 0.381260 -0.513483
O5    O     O_R   0.499990 0.680320 0.618770 -0.574819
O6    O     O_R   0.500000 0.680360 0.381190 -0.585868
O7    O     O_R   0.620560 0.499970 0.618740 -0.577079
O8    O     O_R   0.620570 0.500010 0.381160 -0.573066
C31   C     C_1   0.920015 0.499858 0.768593 0.220473
N3    N     N_1   0.894734 0.547551 0.868636 -0.290922
C32   C     C_1   0.456533 0.882204 0.867871 0.269732
N4    N     N_1   0.413047 0.838720 0.951067 -0.301013
O9    O     O_3   0.365730 0.401298 0.141641 -0.582787
C33   C     C_3   0.360160 0.271965 0.119851 0.052786
H21   H     H_    0.364414 0.227202 0.223612 0.174861
H22   H     H_    0.411558 0.232093 0.054253 0.097552
C34   C     C_3   0.274615 0.239232 0.054775 -0.375121
H23   H     H_    0.223636 0.270519 0.125880 0.227128
H24   H     H_    0.267300 0.287387 0.953470 0.211887
C35   C     C_3   0.265756 0.100465 0.029578 -0.885675
H25   H     H_    0.314113 0.068367 0.954206 0.264217
H26   H     H_    0.202448 0.079420 0.985221 0.253183
H27   H     H_    0.273076 0.049961 0.129407 0.261803
C36   C     C_1   0.703566 0.636635 0.141841 0.321607
N5    N     N_1   0.770098 0.626498 0.190139 -0.306299

loop_
_geom_bond_atom_site_label_1
_geom_bond_atom_site_label_2
_ccdc_geom_bond_type
C18   C21   A    
Cu1   O7    S    
C19   C20   A    
Cu2   O4    S    
C3    C6    S    
C7    C8    T    
C23   O5    A    
C35   H26   S    
C4    H20   S    
C18   C24   S    
C24   H13   S    
C3    C28   S    
C1    O2    A    
C21   N2    A    
C15   C16   S    
C17   H7    S    
Cu1   O5    S    
C18   N1    A    
C26   H2    S    
C22   H12   S    
Cu1   Cu2   S    
C16   C17   S    
C35   H27   S    
C19   O9    S    
C9    C10   A    
C13   H5    S    
C12   O4    A    
C19   N1    A    
C4    H3    S    
C7    C30   S    
C13   C14   A    
C27   C30   S    
C25   C29   S    
C23   O6    A    
C35   H25   S    
O9    C33   S    
C20   N2    A    
C34   H24   S    
C36   N5    T    
C33   H21   S    
C17   H8    S    
C11   H4    S    
C14   C23   S    
C28   H17   S    
C22   H11   S    
C8    C12   S    
C2    C26   S    
C25   O7    A    
C12   O3    A    
C27   H14   S    
C9    C17   S    
C26   C30   S    
C22   C24   S    
C5    H18   S    
Cu2   O6    S    
C3    C4    S    
Cu2   N1    S    
C24   C36   S    
C2    C31   S    
C2    H1    S    
C5    C30   S    
C27   H15   S    
C28   H16   S    
C1    C10   S    
C4    C5    S    
C34   C35   S    
C20   H10   S    
Cu1   O3    S    
C2    C3    S    
C1    O1    A    
Cu2   O8    S    
C34   H23   S    
C11   C13   A    
C33   C34   S    
C25   O8    A    
Cu1   N2    S    
C9    C15   A    
C10   C11   A    
C31   N3    T    
C6    C29   T    
C33   H22   S    
C32   N4    T    
C27   C28   S    
C14   C15   A    
C5    H19   S    
C16   C32   S    
Cu1   O1    S    
C21   C22   S    
Cu2   O2    S    
C26   H9    S    
C16   H6    S    
