data_mof_unit_pretest_173.cif
_audit_creation_date              2013-03-05T15:44:14-0500
_audit_creation_method            fapswitch 2.2
_symmetry_space_group_name_H-M    P1
_symmetry_Int_Tables_number       1
_space_group_crystal_system       triclinic
_cell_length_a                    25.495417
_cell_length_b                    29.128866
_cell_length_c                    8.826876
_cell_angle_alpha                 89.933069
_cell_angle_beta                  96.918217
_cell_angle_gamma                 90.007033
_cell_volume                      6507.56930577

loop_
_atom_site_label
_atom_site_type_symbol
_atom_site_description
_atom_site_fract_x
_atom_site_fract_y
_atom_site_fract_z
_atom_type_partial_charge
P1    P     P_3+3 0.893960 0.447890 0.040050 0.471399
P2    P     P_3+3 0.893960 0.552110 0.540050 0.471358
P3    P     P_3+3 0.393960 0.947890 0.040050 0.473536
P4    P     P_3+3 0.393960 0.052110 0.540050 0.472075
O1    O     O_2   0.898940 0.431940 0.867860 -0.338913
O2    O     O_2   0.898940 0.568060 0.367860 -0.338548
O3    O     O_2   0.398940 0.931940 0.867860 -0.339816
O4    O     O_2   0.398940 0.068060 0.367860 -0.332471
O5    O     O_3   0.941140 0.476130 0.123050 -0.412869
O6    O     O_3   0.941140 0.523870 0.623050 -0.412611
O7    O     O_3   0.441140 0.976130 0.123050 -0.409076
O8    O     O_3   0.441140 0.023870 0.623050 -0.413170
O9    O     O_3   0.982430 0.389880 0.635700 -0.394186
O10   O     O_3   0.982430 0.610120 0.135700 -0.394019
O11   O     O_3   0.482430 0.889880 0.635700 -0.394714
O12   O     O_3   0.482430 0.110120 0.135700 -0.380761
O13   O     O_2   0.881137 0.385880 0.637662 -0.399739
O14   O     O_2   0.881051 0.613921 0.137408 -0.399649
O15   O     O_2   0.380834 0.887104 0.636232 -0.399709
O16   O     O_2   0.381323 0.103273 0.121346 -0.396573
O17   O     O_3   0.835572 0.479143 0.038784 -0.613744
O18   O     O_3   0.835579 0.520842 0.538774 -0.613907
O19   O     O_3   0.335323 0.978867 0.039194 -0.616135
O20   O     O_3   0.335605 0.020726 0.538115 -0.614772
O21   O     O_3   0.927554 0.307686 0.692952 -0.536217
O22   O     O_3   0.927263 0.692199 0.191986 -0.536898
O23   O     O_3   0.426302 0.808450 0.694019 -0.540052
O24   O     O_3   0.414917 0.182700 0.211857 -0.547957
C1    C     C_3   0.953798 0.229643 0.712560 -0.951375
C2    C     C_3   0.953226 0.770317 0.210623 -0.951614
C3    C     C_3   0.451632 0.730198 0.715563 -0.953158
C4    C     C_3   0.424512 0.260858 0.277172 -0.960105
H1    H     H_    0.961244 0.231418 0.838830 0.255271
H2    H     H_    0.960646 0.768607 0.336922 0.255177
H3    H     H_    0.459142 0.732226 0.841787 0.255194
H4    H     H_    0.438362 0.251933 0.397431 0.255225
H5    H     H_    0.911820 0.219872 0.680298 0.239226
H6    H     H_    0.911218 0.779974 0.178150 0.239165
H7    H     H_    0.409529 0.720768 0.683659 0.239264
H8    H     H_    0.380745 0.263661 0.265586 0.238113
P5    P     P_3+3 0.105800 0.447360 0.649510 0.436275
P6    P     P_3+3 0.105800 0.552640 0.149510 0.435574
P7    P     P_3+3 0.605800 0.947360 0.649510 0.436049
P8    P     P_3+3 0.605800 0.052640 0.149510 0.438163
P9    P     P_3+3 0.070644 0.349708 0.098156 0.431418
P10   P     P_3+3 0.070508 0.650390 0.597900 0.431537
P11   P     P_3+3 0.570531 0.849655 0.098419 0.431057
P12   P     P_3+3 0.570685 0.150356 0.597102 0.440858
O25   O     O_2   0.100770 0.431440 0.821660 -0.328932
O26   O     O_2   0.100770 0.568560 0.321660 -0.329282
O27   O     O_2   0.600770 0.931440 0.821660 -0.329376
O28   O     O_2   0.600770 0.068560 0.321660 -0.326880
O29   O     O_3   0.017130 0.389790 0.053700 -0.383212
O30   O     O_3   0.017130 0.610210 0.553700 -0.383523
O31   O     O_3   0.517130 0.889790 0.053700 -0.384168
O32   O     O_3   0.517130 0.110210 0.553700 -0.380272
O33   O     O_2   0.110843 0.359379 0.984003 -0.368108
O34   O     O_2   0.110889 0.640603 0.484437 -0.368071
O35   O     O_2   0.610923 0.859399 0.984879 -0.367995
O36   O     O_2   0.611157 0.139817 0.484662 -0.359403
O37   O     O_3   0.157359 0.487082 0.682688 -0.557742
O38   O     O_3   0.157472 0.513021 0.182725 -0.557841
O39   O     O_3   0.657462 0.986985 0.682436 -0.557539
O40   O     O_3   0.657424 0.012972 0.182781 -0.558503
O41   O     O_3   0.047888 0.294655 0.046286 -0.538570
O42   O     O_3   0.047722 0.705376 0.544850 -0.538499
O43   O     O_3   0.547805 0.794640 0.046056 -0.538678
O44   O     O_3   0.548661 0.205401 0.541048 -0.533306
C5    C     C_3   0.020671 0.275395 0.160707 0.327301
C6    C     C_3   0.020436 0.724759 0.658766 0.327365
C7    C     C_3   0.520492 0.775298 0.160116 0.326163
C8    C     C_3   0.525167 0.226689 0.659217 0.312707
H9    H     H_    0.977716 0.281352 0.129260 0.092673
H10   H     H_    0.977486 0.718845 0.627105 0.092597
H11   H     H_    0.477554 0.781323 0.128564 0.092023
H12   H     H_    0.482791 0.216836 0.649333 0.077797
C9    C     C_3   0.032332 0.223745 0.167190 -0.409299
C10   C     C_3   0.032167 0.776399 0.664554 -0.409440
C11   C     C_3   0.532061 0.723627 0.166071 -0.409484
C12   C     C_3   0.530479 0.278876 0.642270 -0.414940
H13   H     H_    0.018157 0.207575 0.055937 0.194083
H14   H     H_    0.017891 0.792539 0.553206 0.193683
H15   H     H_    0.517555 0.707513 0.054985 0.193488
H16   H     H_    0.504896 0.291234 0.540020 0.193962
C13   C     C_3   0.191146 0.518063 0.069019 0.355240
C14   C     C_3   0.191102 0.482180 0.569134 0.355205
C15   C     C_3   0.691080 0.017908 0.068982 0.353405
C16   C     C_3   0.691227 0.981847 0.569043 0.354717
H17   H     H_    0.216859 0.548599 0.093951 0.055663
H18   H     H_    0.217034 0.451799 0.594594 0.055822
H19   H     H_    0.716951 0.048337 0.093991 0.055633
H20   H     H_    0.716928 0.951324 0.594619 0.055759
C17   C     C_3   0.225901 0.475683 0.068352 -0.944461
C18   C     C_3   0.225547 0.524745 0.567928 -0.943887
C19   C     C_3   0.725613 0.975399 0.068045 -0.942523
C20   C     C_3   0.725994 0.024213 0.567903 -0.943367
H21   H     H_    0.252859 0.479265 0.979144 0.220332
H22   H     H_    0.252602 0.521252 0.478968 0.220290
H23   H     H_    0.752622 0.978929 0.978955 0.220242
H24   H     H_    0.753042 0.020544 0.478992 0.220244
H25   H     H_    0.249811 0.471480 0.181322 0.238336
H26   H     H_    0.249348 0.529153 0.680923 0.238172
H27   H     H_    0.749463 0.971032 0.181014 0.238179
H28   H     H_    0.749808 0.028508 0.680939 0.238308
Ba1   Ba    Ba6+2 0.999910 0.465960 0.844870 1.496314
Ba2   Ba    Ba6+2 0.999910 0.534040 0.344870 1.496193
Ba3   Ba    Ba6+2 0.499910 0.965960 0.844870 1.499750
Ba4   Ba    Ba6+2 0.499910 0.034040 0.344870 1.501748
C21   C     C_3   0.829802 0.515483 0.935441 0.262932
C22   C     C_3   0.829939 0.484441 0.435949 0.262888
C23   C     C_3   0.327811 0.013822 0.930780 0.274514
C24   C     C_3   0.329634 0.984946 0.432719 0.267814
H29   H     H_    0.816851 0.502716 0.819002 0.078453
H30   H     H_    0.816967 0.497138 0.319319 0.078673
H31   H     H_    0.315147 0.999649 0.816087 0.074723
H32   H     H_    0.317241 0.998270 0.316502 0.082461
H33   H     H_    0.867519 0.534670 0.935875 0.085959
H34   H     H_    0.867710 0.465317 0.436686 0.086178
H35   H     H_    0.364769 0.033825 0.927746 0.092606
H36   H     H_    0.367119 0.965409 0.433562 0.085765
C25   C     C_3   0.787379 0.547173 0.990370 0.000696
C26   C     C_3   0.787590 0.452708 0.491267 0.000964
C27   C     C_3   0.284174 0.044847 0.982622 0.006993
C28   C     C_3   0.286468 0.953466 0.484776 -0.000932
H37   H     H_    0.806739 0.560105 0.099913 0.175802
H38   H     H_    0.806942 0.439878 0.601099 0.175778
H39   H     H_    0.301891 0.057304 0.094650 0.177106
H40   H     H_    0.304873 0.940562 0.595514 0.174067
O45   O     O_3   0.058810 0.523750 0.066650 -0.443955
O46   O     O_3   0.058810 0.476250 0.566650 -0.443324
O47   O     O_3   0.558810 0.023750 0.066650 -0.444381
O48   O     O_3   0.558810 0.976250 0.566650 -0.443260
P13   P     P_3+3 0.925140 0.642571 0.080138 0.398254
P14   P     P_3+3 0.925254 0.357283 0.580538 0.398432
P15   P     P_3+3 0.422111 0.138715 0.081598 0.397143
P16   P     P_3+3 0.424772 0.857847 0.580778 0.397010
C29   C     C_3   0.964269 0.276360 0.642538 0.628886
C30   C     C_3   0.963875 0.723601 0.141222 0.629296
C31   C     C_3   0.462643 0.776618 0.644369 0.628855
C32   C     C_3   0.440367 0.223131 0.170827 0.638783
H41   H     H_    0.956706 0.271722 0.516677 0.012009
H42   H     H_    0.956319 0.728184 0.015302 0.011649
H43   H     H_    0.455014 0.771704 0.518641 0.012674
H44   H     H_    0.425026 0.233758 0.053132 0.015387
H45   H     H_    0.978675 0.202481 0.669390 0.227873
H46   H     H_    0.978021 0.797522 0.167147 0.227969
H47   H     H_    0.476159 0.702682 0.672923 0.228291
H48   H     H_    0.440189 0.294888 0.248452 0.227823
C33   C     C_R   0.908983 0.387027 0.282960 -0.513839
C34   C     C_R   0.908859 0.612836 0.782766 -0.513970
C35   C     C_R   0.408898 0.887142 0.283069 -0.511771
C36   C     C_R   0.408432 0.112463 0.782298 -0.491702
C37   C     C_R   0.882874 0.391128 0.136653 0.322305
C38   C     C_R   0.882825 0.608810 0.636383 0.322444
C39   C     C_R   0.383166 0.890993 0.136317 0.319534
C40   C     C_R   0.382969 0.108715 0.635412 0.314167
C41   C     C_R   0.844100 0.356368 0.082587 0.017253
C42   C     C_R   0.844001 0.643536 0.582168 0.015633
C43   C     C_R   0.344711 0.855996 0.081929 0.012557
C44   C     C_R   0.344498 0.143417 0.579903 0.021242
C45   C     C_R   0.833120 0.318779 0.180543 -0.008179
C46   C     C_R   0.832846 0.680979 0.680229 -0.008476
C47   C     C_R   0.333108 0.818820 0.180736 -0.006619
C48   C     C_R   0.332581 0.180452 0.678757 0.002171
C49   C     C_R   0.863102 0.316260 0.326267 -0.321325
C50   C     C_R   0.862846 0.683483 0.825887 -0.320488
C51   C     C_R   0.362743 0.816571 0.326993 -0.321050
C52   C     C_R   0.360837 0.182012 0.827132 -0.329529
C53   C     C_R   0.900761 0.350209 0.376655 0.231931
C54   C     C_R   0.900602 0.649609 0.876290 0.232246
C55   C     C_R   0.400500 0.850467 0.377063 0.233503
C56   C     C_R   0.398899 0.148364 0.877752 0.221313
C57   C     C_R   0.808349 0.235505 0.120121 -0.199211
C58   C     C_R   0.807773 0.764370 0.623065 -0.199891
C59   C     C_R   0.307746 0.735342 0.126172 -0.200770
C60   C     C_R   0.308418 0.264211 0.625914 -0.200067
C61   C     C_R   0.271768 0.699179 0.085173 -0.171879
C62   C     C_R   0.272693 0.300696 0.585273 -0.175968
C63   C     C_R   0.772496 0.199269 0.078786 -0.175125
C64   C     C_R   0.771843 0.800606 0.582468 -0.172378
C65   C     C_R   0.217473 0.707919 0.051842 0.120988
C66   C     C_R   0.218283 0.292303 0.550761 0.121808
C67   C     C_R   0.717953 0.207589 0.051189 0.120976
C68   C     C_R   0.717415 0.792077 0.552371 0.121023
C69   C     C_R   0.200145 0.752983 0.064295 -0.210535
C70   C     C_R   0.200599 0.247285 0.562002 -0.212013
C71   C     C_R   0.700292 0.252335 0.069012 -0.194336
C72   C     C_R   0.699922 0.747141 0.567232 -0.209589
C73   C     C_R   0.735335 0.289255 0.107204 0.204715
C74   C     C_R   0.735015 0.710260 0.605322 0.209379
C75   C     C_R   0.235280 0.789777 0.102996 0.210520
C76   C     C_R   0.235370 0.210231 0.600382 0.210141
C77   C     C_R   0.791377 0.281340 0.135080 0.054375
C78   C     C_R   0.790988 0.718349 0.635047 0.054371
C79   C     C_R   0.291161 0.781498 0.135562 0.053534
C80   C     C_R   0.291274 0.218091 0.632812 0.054241
C81   C     C_R   0.149401 0.676892 0.847728 -0.305458
C82   C     C_R   0.150131 0.323592 0.347169 -0.306033
C83   C     C_R   0.650043 0.176458 0.846705 -0.310850
C84   C     C_R   0.649400 0.823175 0.348288 -0.305171
C85   C     C_R   0.106129 0.648443 0.799604 0.203551
C86   C     C_R   0.106571 0.351791 0.299526 0.204362
C87   C     C_R   0.606501 0.148225 0.798857 0.187728
C88   C     C_R   0.606126 0.851619 0.300073 0.203446
C89   C     C_R   0.119979 0.606932 0.043262 0.247134
C90   C     C_R   0.120340 0.393141 0.543272 0.245824
C91   C     C_R   0.620111 0.106887 0.042981 0.245881
C92   C     C_R   0.619941 0.893060 0.543561 0.246648
C93   C     C_R   0.163906 0.635520 0.090184 -0.345321
C94   C     C_R   0.164542 0.364718 0.589812 -0.345733
C95   C     C_R   0.664181 0.135343 0.089675 -0.334855
C96   C     C_R   0.663860 0.864448 0.590612 -0.345230
C97   C     C_R   0.177617 0.671976 0.995341 0.067396
C98   C     C_R   0.178496 0.328465 0.494597 0.068046
C99   C     C_R   0.678139 0.171624 0.994491 0.066457
C100  C     C_R   0.677588 0.828043 0.495852 0.066868
C101  C     C_R   0.089148 0.617219 0.904775 -0.135556
C102  C     C_R   0.089490 0.382826 0.404880 -0.134745
C103  C     C_R   0.589295 0.117220 0.904442 -0.123319
C104  C     C_R   0.589112 0.882797 0.405108 -0.134550
H49   H     H_    0.186753 0.629802 0.200111 0.159976
H50   H     H_    0.187385 0.370385 0.699725 0.159597
H51   H     H_    0.686986 0.129639 0.199679 0.159054
H52   H     H_    0.686709 0.870123 0.700518 0.160056
H53   H     H_    0.286559 0.664573 0.076112 0.122841
H54   H     H_    0.287732 0.335285 0.577925 0.122701
H55   H     H_    0.787530 0.164950 0.065150 0.123793
H56   H     H_    0.786747 0.835095 0.571194 0.123126
H57   H     H_    0.158142 0.759528 0.041383 0.144507
H58   H     H_    0.158538 0.241010 0.539005 0.144720
H59   H     H_    0.658130 0.258571 0.050318 0.134751
H60   H     H_    0.657839 0.740749 0.546461 0.144113
H61   H     H_    0.160683 0.703254 0.771290 0.154698
H62   H     H_    0.161462 0.297356 0.270552 0.154573
H63   H     H_    0.661488 0.202709 0.770119 0.156606
H64   H     H_    0.660692 0.796839 0.271972 0.154979
H65   H     H_    0.854805 0.289277 0.404468 0.158863
H66   H     H_    0.854477 0.710388 0.904080 0.158719
H67   H     H_    0.354131 0.789841 0.405723 0.158354
H68   H     H_    0.350426 0.207797 0.906383 0.149636
H69   H     H_    0.932392 0.415541 0.330738 0.156579
H70   H     H_    0.932260 0.584310 0.830692 0.156354
H71   H     H_    0.432159 0.915742 0.330854 0.156248
H72   H     H_    0.432035 0.083948 0.829573 0.156334
C105  C     C_3   0.022045 0.293850 0.683847 -0.207500
C106  C     C_3   0.065041 0.257402 0.720502 -0.943252
H73   H     H_    0.058058 0.236905 0.822030 0.288499
H74   H     H_    0.067280 0.234161 0.622711 0.224551
H75   H     H_    0.103909 0.274713 0.746129 0.279145
H76   H     H_    0.033081 0.314354 0.586235 0.125252
H77   H     H_    0.023446 0.317613 0.781895 0.279138
C107  C     C_3   0.021703 0.706260 0.182783 -0.207241
C108  C     C_3   0.064551 0.742818 0.219373 -0.943146
H78   H     H_    0.066753 0.766074 0.121429 0.224444
H79   H     H_    0.057431 0.763293 0.320653 0.288310
H80   H     H_    0.103468 0.725606 0.245371 0.279158
H81   H     H_    0.023161 0.682463 0.280934 0.278971
H82   H     H_    0.032850 0.685820 0.085323 0.125188
C109  C     C_3   0.520639 0.793630 0.685112 -0.206135
C110  C     C_3   0.563224 0.756857 0.722366 -0.942919
H83   H     H_    0.555960 0.736511 0.823908 0.288293
H84   H     H_    0.565299 0.733469 0.624923 0.224202
H85   H     H_    0.602261 0.773872 0.748125 0.279011
H86   H     H_    0.531886 0.813803 0.587030 0.125047
H87   H     H_    0.522349 0.817602 0.782663 0.278761
C111  C     C_3   0.501185 0.216299 0.179643 -0.204522
C112  C     C_3   0.533868 0.260407 0.195608 -1.002353
H88   H     H_    0.515674 0.287358 0.117911 0.258220
H89   H     H_    0.536979 0.273339 0.314076 0.289551
H90   H     H_    0.574438 0.253369 0.168036 0.262145
H91   H     H_    0.514941 0.192763 0.274665 0.268271
H92   H     H_    0.509924 0.199236 0.072852 0.122193
H93   H     H_    0.200944 0.444689 0.043425 0.274415
H94   H     H_    0.200372 0.555582 0.542320 0.274902
H95   H     H_    0.700498 0.944522 0.042788 0.274479
H96   H     H_    0.701053 0.055191 0.542258 0.274606
C113  C     C_3   0.736639 0.522278 0.028977 -0.254934
C114  C     C_3   0.701994 0.500852 0.894793 -0.964681
H97   H     H_    0.684392 0.527140 0.813160 0.263433
H98   H     H_    0.725143 0.476011 0.836755 0.257797
H99   H     H_    0.669042 0.481922 0.938143 0.253056
H100  H     H_    0.747807 0.494468 0.112421 0.197833
H101  H     H_    0.711927 0.546923 0.084863 0.192917
C115  C     C_3   0.736750 0.477539 0.529222 -0.255245
C116  C     C_3   0.702223 0.498947 0.394611 -0.964817
H102  H     H_    0.725406 0.523868 0.336798 0.257734
H103  H     H_    0.684803 0.472656 0.312913 0.263521
H104  H     H_    0.669141 0.517785 0.437469 0.253071
H105  H     H_    0.712002 0.452860 0.585036 0.192919
H106  H     H_    0.747789 0.505357 0.612519 0.197668
C117  C     C_3   0.233358 0.019211 0.016268 -0.271947
C118  C     C_3   0.200412 0.997366 0.879827 -0.971884
H107  H     H_    0.183426 0.023383 0.796297 0.263848
H108  H     H_    0.224604 0.972581 0.825078 0.258244
H109  H     H_    0.167021 0.978279 0.920138 0.255119
H110  H     H_    0.244394 0.991489 0.100283 0.200157
H111  H     H_    0.207490 0.043474 0.069670 0.197414
C119  C     C_3   0.235489 0.978690 0.519333 -0.258797
C120  C     C_3   0.202215 0.000465 0.383091 -0.971610
H112  H     H_    0.226457 0.024510 0.325213 0.258746
H113  H     H_    0.184265 0.974250 0.301915 0.263637
H114  H     H_    0.169512 0.020300 0.424055 0.254324
H115  H     H_    0.209879 0.954133 0.572505 0.195633
H116  H     H_    0.246263 0.006332 0.603556 0.200043
C121  C     C_3   0.774816 0.588923 0.887126 -0.333718
C122  C     C_3   0.755680 0.629969 0.974464 -0.911571
H117  H     H_    0.715013 0.624038 0.002973 0.250722
H118  H     H_    0.782600 0.636652 0.080042 0.287354
H119  H     H_    0.756045 0.661700 0.905940 0.250111
H120  H     H_    0.810691 0.599356 0.839128 0.190423
H121  H     H_    0.745334 0.579616 0.789971 0.196478
C123  C     C_3   0.775184 0.410886 0.388581 -0.333345
C124  C     C_3   0.755999 0.369879 0.476311 -0.910681
H122  H     H_    0.782625 0.363443 0.582664 0.287224
H123  H     H_    0.715158 0.375681 0.503534 0.250369
H124  H     H_    0.756816 0.338057 0.408660 0.250139
H125  H     H_    0.745792 0.420125 0.291053 0.196184
H126  H     H_    0.811132 0.400445 0.341069 0.190482
C125  C     C_3   0.272225 0.087179 0.881160 -0.333375
C126  C     C_3   0.255436 0.128411 0.972088 -0.919707
H127  H     H_    0.215819 0.122618 0.008613 0.251662
H128  H     H_    0.284581 0.135022 0.073189 0.287507
H129  H     H_    0.254277 0.160075 0.902838 0.250119
H130  H     H_    0.307832 0.096886 0.829873 0.189056
H131  H     H_    0.241398 0.079065 0.786087 0.198734
C127  C     C_3   0.274400 0.911605 0.381953 -0.333061
C128  C     C_3   0.255839 0.870403 0.470056 -0.916006
H132  H     H_    0.283427 0.863533 0.574191 0.288787
H133  H     H_    0.215480 0.876282 0.501036 0.250911
H134  H     H_    0.255719 0.838766 0.401234 0.250618
H135  H     H_    0.244661 0.920591 0.284991 0.197984
H136  H     H_    0.310336 0.901489 0.333739 0.190155
C129  C     C_3   0.008282 0.198816 0.295444 -0.343526
C130  C     C_3   0.948169 0.196930 0.268932 -0.912264
H137  H     H_    0.931615 0.231899 0.276877 0.243385
H138  H     H_    0.934626 0.181927 0.155302 0.261751
H139  H     H_    0.933303 0.175306 0.358257 0.254861
H140  H     H_    0.023752 0.163112 0.303597 0.210175
H141  H     H_    0.020605 0.215971 0.405461 0.196400
C131  C     C_3   0.008287 0.801403 0.792761 -0.342440
C132  C     C_3   0.948161 0.803138 0.767066 -0.913448
H142  H     H_    0.934373 0.817990 0.653262 0.262052
H143  H     H_    0.931768 0.768135 0.775924 0.243185
H144  H     H_    0.933382 0.824812 0.856240 0.254785
H145  H     H_    0.020848 0.784367 0.902982 0.196293
H146  H     H_    0.023653 0.837143 0.800024 0.210028
C133  C     C_3   0.508320 0.698689 0.294823 -0.341721
C134  C     C_3   0.448196 0.697057 0.269788 -0.915173
H147  H     H_    0.431924 0.732111 0.278216 0.243269
H148  H     H_    0.434240 0.682127 0.156330 0.262280
H149  H     H_    0.433482 0.675501 0.359532 0.254802
H150  H     H_    0.523621 0.662927 0.302317 0.209987
H151  H     H_    0.521031 0.715757 0.404724 0.196283
C135  C     C_3   0.517289 0.305514 0.782188 -0.331022
C136  C     C_3   0.458785 0.302534 0.803247 -0.911911
H152  H     H_    0.434217 0.316336 0.700889 0.259603
H153  H     H_    0.447171 0.266504 0.822349 0.242955
H154  H     H_    0.451107 0.323182 0.903887 0.249472
H155  H     H_    0.542126 0.292573 0.884988 0.200350
H156  H     H_    0.527602 0.342221 0.768049 0.207963
H157  H     H_    0.849956 0.227802 0.136808 0.143029
H158  H     H_    0.849307 0.772256 0.641785 0.142858
H159  H     H_    0.349180 0.727267 0.147341 0.143033
H160  H     H_    0.350076 0.271970 0.650219 0.139647
C137  C     C_3   0.816922 0.356792 0.920789 -0.280411
C138  C     C_3   0.780751 0.398050 0.885039 -0.883135
H161  H     H_    0.766164 0.412494 0.987980 0.270382
H162  H     H_    0.802115 0.425226 0.833471 0.277327
H163  H     H_    0.746690 0.389004 0.800534 0.234085
H164  H     H_    0.847608 0.355101 0.844278 0.256089
H165  H     H_    0.793142 0.325477 0.892726 0.184154
C139  C     C_3   0.817061 0.643276 0.420083 -0.278961
C140  C     C_3   0.781081 0.601945 0.383474 -0.881496
H166  H     H_    0.802619 0.574883 0.332165 0.277652
H167  H     H_    0.766353 0.587287 0.485984 0.270044
H168  H     H_    0.747130 0.610998 0.298549 0.234026
H169  H     H_    0.793202 0.674564 0.392062 0.183855
H170  H     H_    0.847886 0.645196 0.344000 0.256112
C141  C     C_3   0.318773 0.855585 0.918917 -0.273708
C142  C     C_3   0.282557 0.896545 0.879251 -0.881523
H171  H     H_    0.267588 0.911731 0.980442 0.269656
H172  H     H_    0.304126 0.923336 0.826936 0.277349
H173  H     H_    0.248824 0.887009 0.794387 0.235161
H174  H     H_    0.350205 0.853701 0.844723 0.257916
H175  H     H_    0.295370 0.824053 0.890936 0.183336
C143  C     C_3   0.318225 0.142876 0.416657 -0.279578
C144  C     C_3   0.281336 0.102141 0.380746 -0.889739
H176  H     H_    0.302316 0.074928 0.328097 0.276430
H177  H     H_    0.266805 0.087429 0.483437 0.272042
H178  H     H_    0.247420 0.111710 0.296479 0.237911
H179  H     H_    0.295526 0.174708 0.386768 0.183676
H180  H     H_    0.349084 0.142704 0.340029 0.267518
C145  C     C_3   0.710070 0.335617 0.119971 -0.366488
C146  C     C_3   0.672577 0.348802 0.977472 -0.930466
H181  H     H_    0.687867 0.336728 0.871959 0.268342
H182  H     H_    0.632993 0.333333 0.981958 0.247180
H183  H     H_    0.667570 0.386665 0.972309 0.258032
H184  H     H_    0.686886 0.335496 0.218720 0.199984
H185  H     H_    0.740870 0.361607 0.140623 0.212074
C147  C     C_3   0.709797 0.663803 0.616692 -0.365998
C148  C     C_3   0.672610 0.650878 0.473354 -0.932432
H186  H     H_    0.632935 0.666252 0.477260 0.246215
H187  H     H_    0.688134 0.663238 0.368441 0.268577
H188  H     H_    0.667683 0.613018 0.467446 0.258399
H189  H     H_    0.740617 0.637845 0.637705 0.211592
H190  H     H_    0.686354 0.663638 0.714894 0.199885
C149  C     C_3   0.210125 0.836321 0.112543 -0.365105
C150  C     C_3   0.173238 0.849097 0.968327 -0.933150
H191  H     H_    0.188695 0.836163 0.864134 0.268613
H192  H     H_    0.133359 0.834157 0.972586 0.246061
H193  H     H_    0.168764 0.886975 0.960688 0.258942
H194  H     H_    0.186417 0.836708 0.210166 0.199769
H195  H     H_    0.240985 0.862227 0.133618 0.211191
C151  C     C_3   0.209793 0.163911 0.611471 -0.363790
C152  C     C_3   0.172700 0.151132 0.467786 -0.932302
H196  H     H_    0.132989 0.166421 0.471839 0.245750
H197  H     H_    0.188215 0.163725 0.363142 0.268297
H198  H     H_    0.167842 0.113275 0.461224 0.258351
H199  H     H_    0.240375 0.137761 0.633581 0.209883
H200  H     H_    0.186134 0.163985 0.709214 0.198885
C153  C     C_3   0.042370 0.589682 0.852339 -0.436642
C154  C     C_3   0.061285 0.550815 0.757157 -0.430614
H201  H     H_    0.089724 0.561568 0.678301 0.215322
H202  H     H_    0.082320 0.523910 0.827056 0.233062
H203  H     H_    0.026985 0.537023 0.688686 0.292124
H204  H     H_    0.018787 0.578123 0.938605 0.243747
H205  H     H_    0.012018 0.612819 0.797485 0.165559
C155  C     C_3   0.042566 0.410224 0.352549 -0.439417
C156  C     C_3   0.061278 0.449180 0.257152 -0.430851
H206  H     H_    0.082331 0.476051 0.326956 0.233186
H207  H     H_    0.089631 0.438541 0.177972 0.215544
H208  H     H_    0.026891 0.462967 0.189016 0.292075
H209  H     H_    0.012254 0.387044 0.297853 0.165959
H210  H     H_    0.019054 0.421722 0.438932 0.244198
C157  C     C_3   0.542412 0.089777 0.852194 -0.435146
C158  C     C_3   0.561235 0.050835 0.757097 -0.436438
H211  H     H_    0.589635 0.061513 0.678034 0.215920
H212  H     H_    0.582294 0.023950 0.827032 0.233235
H213  H     H_    0.526914 0.037022 0.688824 0.292555
H214  H     H_    0.518890 0.078230 0.938630 0.243816
H215  H     H_    0.512049 0.112959 0.797467 0.164697
C159  C     C_3   0.542334 0.910333 0.352463 -0.438094
C160  C     C_3   0.561258 0.949193 0.257099 -0.431866
H216  H     H_    0.582300 0.976065 0.326932 0.233227
H217  H     H_    0.589681 0.938460 0.178252 0.215438
H218  H     H_    0.526945 0.962990 0.188635 0.292171
H219  H     H_    0.511986 0.887218 0.297633 0.165806
H220  H     H_    0.518772 0.921931 0.438625 0.244189
H221  H     H_    0.032224 0.289911 0.276403 0.016406
H222  H     H_    0.031854 0.710306 0.774728 0.016723
H223  H     H_    0.532011 0.789697 0.275988 0.017612
H224  H     H_    0.544117 0.217147 0.774845 0.039871
H225  H     H_    0.075919 0.219023 0.186789 0.172958
H226  H     H_    0.075764 0.781088 0.683732 0.173136
H227  H     H_    0.575647 0.718827 0.184718 0.173496
H228  H     H_    0.572058 0.286898 0.625599 0.180212
H229  H     H_    0.168864 0.521594 0.953516 0.110505
H230  H     H_    0.168891 0.478477 0.453635 0.110598
H231  H     H_    0.668797 0.021549 0.953529 0.110138
H232  H     H_    0.669022 0.978233 0.453489 0.110264

loop_
_geom_bond_atom_site_label_1
_geom_bond_atom_site_label_2
_geom_bond_distance
_ccdc_geom_bond_type
C105  H76   1.111494 S    
C2    C30   1.530609 S    
C15   H19   1.111147 S    
C7    H223  1.112136 S    
C143  H179  1.107720 S    
P5    O37   1.749334 S    
C6    H222  1.112177 S    
C144  H178  1.106013 S    
C22   H34   1.111885 S    
C43   C141  1.509525 S    
C59   C61   1.415156 A    
O1    Ba1   2.788340 S    
C129  C130  1.523255 S    
C16   H232  1.110438 S    
P12   C87   1.901890 S    
P9    O33   1.546964 D    
P5    Ba1   3.417548 S    
O23   P16   1.748782 S    
C115  C116  1.523813 S    
C25   C113  1.555942 S    
C24   C28   1.543956 S    
C58   H158  1.076692 S    
C19   H23   1.110585 S    
C57   C63   1.415300 A    
C121  H120  1.096077 S    
C1    H1    1.109119 S    
C139  C140  1.524658 S    
C2    H6    1.110978 S    
O14   P13   1.533349 D    
C41   C137  1.510459 S    
C33   C37   1.384825 A    
Ba4   O47   3.044034 S    
C36   C40   1.382736 A    
P14   C53   1.844246 S    
C6    H10   1.110505 S    
C2    H46   1.110196 S    
C127  C128  1.534759 S    
C35   C39   1.384158 A    
P4    O8    1.564243 S    
C3    H47   1.110257 S    
P8    Ba4   3.416804 S    
C145  H185  1.090272 S    
C115  H106  1.108100 S    
C105  C106  1.532176 S    
C141  H175  1.107044 S    
C101  C153  1.465475 S    
C59   C79   1.414981 A    
C74   C78   1.439000 A    
C49   C53   1.412630 A    
P7    O39   1.749239 S    
C126  H129  1.104330 S    
C48   C52   1.417448 A    
C131  C132  1.523183 S    
C14   H18   1.111153 S    
C140  H168  1.106341 S    
C17   H25   1.110964 S    
C24   H36   1.111614 S    
C51   C55   1.412474 A    
O15   P16   1.534285 D    
C9    H225  1.112410 S    
P8    O40   1.749315 S    
P13   C54   1.843644 S    
C147  H189  1.090084 S    
C83   H63   1.083095 S    
C10   H14   1.110093 S    
C136  H152  1.110475 S    
P16   C55   1.842651 S    
C92   C96   1.417143 A    
C95   H51   1.082638 S    
C122  H117  1.109448 S    
O2    Ba2   2.788733 S    
P15   C56   1.846377 S    
P6    Ba2   3.416804 S    
C73   C145  1.506463 S    
C62   C66   1.405410 A    
C110  H84   1.104116 S    
C150  H192  1.110664 S    
C58   C78   1.414860 A    
C20   H28   1.110916 S    
C119  C120  1.523415 S    
C144  H176  1.091476 S    
C82   C98   1.417847 A    
C44   C48   1.443494 A    
C1    C29   1.530597 S    
C158  H211  1.108714 S    
C76   C151  1.506679 S    
C153  H204  1.079060 S    
Ba2   O46   2.864566 S    
C25   C121  1.529465 S    
P7    C92   1.895032 S    
C36   H72   1.079322 S    
C70   H58   1.082674 S    
C50   H66   1.083009 S    
C145  C146  1.533840 S    
C118  H108  1.099063 S    
C116  H103  1.108082 S    
P2    O18   1.743787 S    
C130  H139  1.110331 S    
C21   C25   1.544232 S    
C141  H174  1.095742 S    
C34   C54   1.384612 A    
C135  H156  1.111521 S    
C3    H3    1.109173 S    
C15   H231  1.110336 S    
C134  H147  1.108136 S    
P11   C88   1.899011 S    
C143  C144  1.523724 S    
P8    C91   1.895587 S    
C159  H220  1.078961 S    
C160  H217  1.108749 S    
C11   H227  1.112403 S    
C146  H181  1.109651 S    
C35   H71   1.078925 S    
C18   H26   1.110849 S    
O27   Ba3   2.791688 S    
C38   C42   1.454978 A    
C137  C138  1.524350 S    
C45   C49   1.416748 A    
C64   C68   1.403277 A    
P1    Ba1   3.414756 S    
C142  H171  1.105532 S    
C113  H100  1.108108 S    
C153  C154  1.523195 S    
C94   H50   1.082554 S    
O24   P15   1.746840 S    
C5    C9    1.533319 S    
O20   C24   1.393932 S    
C7    C11   1.533418 S    
C148  H186  1.110618 S    
O42   C6    1.408451 S    
C156  H206  1.096255 S    
C17   H93   1.111283 S    
C89   C101  1.403452 A    
C33   C53   1.384819 A    
C4    H4    1.108221 S    
C30   C107  1.559789 S    
C111  H91   1.106497 S    
C108  H78   1.104442 S    
C36   C56   1.383498 A    
C112  H90   1.109928 S    
C124  H123  1.109476 S    
C129  H141  1.104118 S    
C35   C55   1.384253 A    
C123  C124  1.534502 S    
P6    C89   1.894565 S    
C23   H35   1.110838 S    
O32   Ba4   2.885786 S    
C12   C135  1.530632 S    
C133  H150  1.111497 S    
C31   H43   1.112789 S    
P10   C85   1.899510 S    
C15   C19   1.520056 S    
C82   C86   1.404242 A    
Ba3   Ba4   4.836386 S    
C152  H197  1.109685 S    
C9    C129  1.532988 S    
C22   H30   1.105940 S    
O40   C15   1.404729 S    
C158  H213  1.078960 S    
C151  H200  1.110677 S    
P8    O28   1.609075 D    
C51   H67   1.082979 S    
P9    O29   1.802495 S    
P2    C38   1.895525 S    
C42   C139  1.510634 S    
C113  C114  1.523850 S    
P10   O34   1.547068 D    
C91   C95   1.417182 A    
C19   H27   1.110817 S    
C104  C159  1.465425 S    
C132  H143  1.108136 S    
C139  H169  1.106888 S    
C2    H2    1.109135 S    
C39   C43   1.455505 A    
C10   C131  1.532932 S    
C40   C44   1.451619 A    
P3    O7    1.564988 S    
C128  H133  1.109415 S    
C81   H61   1.083109 S    
C130  H137  1.108159 S    
O11   P16   1.759454 S    
P11   O35   1.547061 D    
P2    Ba2   3.415479 S    
C134  H149  1.110338 S    
O23   C31   1.417502 S    
C74   C147  1.506552 S    
C126  H128  1.107348 S    
O21   C29   1.417186 S    
C25   H37   1.098317 S    
C29   C105  1.559857 S    
C90   C94   1.418499 A    
C27   H39   1.098517 S    
O10   Ba2   2.882911 S    
C84   C88   1.403960 A    
C45   C77   1.542985 S    
C138  H163  1.106490 S    
P6    O26   1.609075 D    
C142  H173  1.105973 S    
C137  H164  1.094514 S    
C136  H153  1.108643 S    
C50   C54   1.412159 A    
P9    O41   1.747955 S    
C154  H201  1.108754 S    
C20   H96   1.111224 S    
C123  H126  1.096056 S    
C134  H148  1.110770 S    
C12   H228  1.112387 S    
C17   H21   1.110637 S    
C24   H32   1.106269 S    
C148  H188  1.110516 S    
C28   C119  1.555128 S    
C155  C156  1.522716 S    
C96   H52   1.082602 S    
C156  H208  1.078928 S    
C102  C155  1.465549 S    
C106  H73   1.108362 S    
C143  H180  1.097607 S    
C147  C148  1.534113 S    
C144  H177  1.105669 S    
C108  H80   1.110638 S    
O17   C21   1.392728 S    
C112  H88   1.106366 S    
C48   C80   1.540114 S    
Ba1   O46   3.043433 S    
O10   P13   1.759020 S    
O19   C23   1.393848 S    
C14   H230  1.110335 S    
C86   C102  1.404015 A    
C44   C143  1.514201 S    
C71   H59   1.083023 S    
C8    C12   1.534883 S    
C127  H136  1.096202 S    
C61   C65   1.403344 A    
C20   H24   1.110624 S    
C84   C100  1.417064 A    
P6    O45   1.571144 S    
O3    Ba3   2.788340 S    
C119  H115  1.109589 S    
C4    C32   1.531712 S    
C63   H55   1.082718 S    
C120  H114  1.110405 S    
C75   C79   1.439408 A    
Ba4   O48   2.864566 S    
C137  H165  1.106890 S    
C61   H53   1.082721 S    
O29   Ba1   2.882555 S    
C154  H203  1.079161 S    
C135  C136  1.527644 S    
C131  H145  1.104179 S    
O7    Ba4   2.867853 S    
C114  H97   1.108088 S    
C107  C108  1.532046 S    
C65   C97   1.502093 S    
C159  C160  1.522538 S    
C26   C115  1.555933 S    
C106  H75   1.110668 S    
C103  C157  1.465680 S    
C155  H209  1.094078 S    
C145  H184  1.110533 S    
C16   C20   1.520075 S    
C153  H205  1.093907 S    
C58   C64   1.414921 A    
O39   C16   1.404715 S    
C93   H49   1.082605 S    
C12   H16   1.107741 S    
C5    H221  1.112204 S    
C21   H33   1.111785 S    
C141  C142  1.523184 S    
C52   H68   1.081646 S    
P4    Ba4   3.415479 S    
C88   C104  1.404102 A    
P1    O1    1.609420 D    
C76   C80   1.437925 A    
P10   O42   1.747868 S    
P3    O3    1.609420 D    
C140  H167  1.105863 S    
C1    H45   1.110188 S    
P5    O46   1.570386 S    
P4    O20   1.744433 S    
C68   C100  1.501512 S    
C18   H22   1.110595 S    
C19   H95   1.111125 S    
C66   C70   1.393929 A    
C34   H70   1.078822 S    
O11   Ba3   2.886141 S    
P5    C90   1.896947 S    
C138  H161  1.106035 S    
C147  H190  1.110598 S    
C46   C50   1.416572 A    
C125  H131  1.104245 S    
P9    C86   1.900026 S    
O18   C22   1.392653 S    
C114  H99   1.110451 S    
C31   C109  1.559912 S    
C122  H118  1.106224 S    
C5    H9    1.110495 S    
C27   C117  1.554438 S    
P4    O4    1.608385 D    
C28   H40   1.098012 S    
C105  H77   1.106042 S    
C83   C87   1.405255 A    
C110  H85   1.110646 S    
C32   C111  1.555938 S    
C158  H212  1.096254 S    
C107  H81   1.106037 S    
C69   C75   1.412347 A    
C122  H119  1.104667 S    
C26   C123  1.529401 S    
O30   Ba2   2.885786 S    
C23   C27   1.545224 S    
P1    O5    1.564988 S    
O9    Ba1   2.886141 S    
C109  H86   1.111601 S    
C30   H42   1.112832 S    
C133  C134  1.522906 S    
C13   H17   1.111259 S    
C110  H83   1.107980 S    
O25   Ba1   2.791688 S    
C10   H226  1.112405 S    
C121  H121  1.104135 S    
C27   C125  1.532062 S    
C64   H56   1.082725 S    
C90   C102  1.403738 A    
C120  H112  1.099393 S    
C116  H102  1.099286 S    
C67   C71   1.394287 A    
C9    H13   1.110114 S    
P10   O30   1.801896 S    
P3    C39   1.896698 S    
P7    Ba3   3.417548 S    
P12   O44   1.749955 S    
P1    C37   1.896158 S    
O21   P14   1.748685 S    
C146  H182  1.110217 S    
P4    C40   1.888352 S    
C115  H105  1.109741 S    
O12   Ba4   2.882911 S    
C57   C77   1.414772 A    
C151  C152  1.534127 S    
C83   C99   1.417423 A    
C41   C45   1.442522 A    
C81   C97   1.417569 A    
C142  H172  1.088509 S    
C157  H214  1.079105 S    
C29   H41   1.112837 S    
C125  H130  1.098919 S    
C118  H107  1.107857 S    
C91   C103  1.403929 A    
C32   H44   1.108813 S    
O22   C30   1.417167 S    
C146  H183  1.110534 S    
C18   H94   1.111149 S    
O8    Ba3   2.865377 S    
C4    H48   1.109216 S    
C13   H229  1.110400 S    
C69   H57   1.082516 S    
Ba1   Ba2   4.836386 S    
C49   H65   1.082984 S    
C117  H110  1.108873 S    
C128  H132  1.106137 S    
C111  H92   1.112188 S    
C22   C26   1.544129 S    
C11   H15   1.110052 S    
C112  H89   1.105717 S    
P7    O27   1.608042 D    
C124  H122  1.106043 S    
C129  H140  1.111500 S    
C131  H146  1.111494 S    
O41   C5    1.408447 S    
O43   C7    1.408350 S    
C37   C41   1.455141 A    
C93   C97   1.420955 A    
O37   C14   1.404715 S    
C125  C126  1.534621 S    
C52   C56   1.413056 A    
C150  H191  1.109633 S    
C121  C122  1.534517 S    
C1    H5    1.110977 S    
O13   P14   1.533340 D    
O26   Ba2   2.791288 S    
C72   H60   1.082632 S    
C60   C80   1.416198 A    
C92   C104  1.403598 A    
Ba2   O45   3.044034 S    
C95   C99   1.421011 A    
P1    O17   1.743915 S    
C114  H98   1.099157 S    
C6    C10   1.533341 S    
O9    P14   1.758795 S    
P3    O19   1.745507 S    
O24   C32   1.412313 S    
C8    H12   1.111087 S    
C132  H142  1.110762 S    
Ba3   O48   3.043433 S    
P8    O47   1.571144 S    
C60   H160  1.081811 S    
C139  H170  1.094901 S    
C149  H195  1.089948 S    
C72   C74   1.412300 A    
P7    O48   1.570386 S    
C116  H104  1.110447 S    
C130  H138  1.110750 S    
C135  H155  1.107821 S    
C159  H219  1.093937 S    
C160  H218  1.078987 S    
C14   C18   1.520070 S    
P5    O25   1.608042 D    
C16   H20   1.111231 S    
C8    H224  1.110388 S    
C149  C150  1.534277 S    
C81   C85   1.404279 A    
C47   C79   1.543570 S    
O44   C8    1.408349 S    
C117  C118  1.522787 S    
C113  H101  1.109728 S    
C154  H202  1.096226 S    
C75   C149  1.506648 S    
P2    O2    1.608385 D    
C13   C17   1.520102 S    
O4    Ba4   2.788733 S    
P11   O43   1.747684 S    
C148  H187  1.109659 S    
P12   O36   1.546457 D    
C63   C67   1.403623 A    
C156  H207  1.108759 S    
O38   C13   1.404703 S    
C106  H74   1.104509 S    
C62   H54   1.082625 S    
C96   C100  1.421035 A    
Ba3   O47   2.867037 S    
C82   H62   1.083128 S    
C108  H79   1.108261 S    
C65   C69   1.393744 A    
C124  H124  1.104781 S    
Ba1   O45   2.867037 S    
P3    Ba3   3.414756 S    
O5    Ba2   2.867853 S    
C94   C98   1.422080 A    
C68   C72   1.393906 A    
O31   Ba3   2.882555 S    
C26   H38   1.098605 S    
C47   C51   1.416567 A    
C109  H87   1.106024 S    
C73   C77   1.438919 A    
C152  H196  1.110669 S    
C150  H193  1.110346 S    
C89   C93   1.417041 A    
C46   C78   1.542582 S    
C67   C99   1.502313 S    
C152  H198  1.110434 S    
C119  H116  1.108434 S    
C149  H194  1.110632 S    
C133  H151  1.103916 S    
C120  H113  1.108222 S    
C151  H199  1.090579 S    
C43   C47   1.442448 A    
C3    C31   1.530515 S    
C109  C110  1.532240 S    
P2    O6    1.564243 S    
P11   O31   1.801684 S    
C107  H82   1.111510 S    
C132  H144  1.110330 S    
C155  H210  1.078725 S    
P12   O32   1.803689 S    
P6    O38   1.749251 S    
C118  H109  1.110347 S    
C84   H64   1.083128 S    
C57   H157  1.076873 S    
C128  H134  1.104160 S    
C157  H215  1.094474 S    
C21   H29   1.105801 S    
C11   C133  1.532745 S    
C87   C103  1.404686 A    
C126  H127  1.109462 S    
C85   C101  1.404010 A    
C160  H216  1.096267 S    
O22   P13   1.748676 S    
C140  H166  1.090373 S    
C7    H11   1.110527 S    
C60   C62   1.417195 A    
C3    H7    1.110981 S    
C59   H159  1.076349 S    
C4    H8    1.111222 S    
O16   P15   1.535291 D    
C70   C76   1.411610 A    
C117  H111  1.110146 S    
C138  H162  1.090553 S    
C71   C73   1.412969 A    
C111  C112  1.528674 S    
C42   C46   1.442657 A    
C157  C158  1.523502 S    
C28   C127  1.529851 S    
C136  H154  1.110135 S    
O28   Ba4   2.791288 S    
C33   H69   1.078891 S    
C34   C38   1.384775 A    
C127  H135  1.104129 S    
C66   C98   1.504053 S    
C123  H125  1.104155 S    
O6    Ba1   2.865377 S    
C23   H31   1.105346 S    
O12   P15   1.763338 S    
