data_mof_unit_pretest_408.cif
_audit_creation_date              2012-12-11T14:01:12-0500
_audit_creation_method            fapswitch 2.2
_symmetry_space_group_name_H-M    P1
_symmetry_Int_Tables_number       1
_space_group_crystal_system       triclinic
_cell_length_a                    18.933952
_cell_length_b                    11.000403
_cell_length_c                    18.702429
_cell_angle_alpha                 89.727686
_cell_angle_beta                  89.651347
_cell_angle_gamma                 90.055555
_cell_volume                      3895.24447187

loop_
_atom_site_label
_atom_site_type_symbol
_atom_type_description
_atom_site_fract_x
_atom_site_fract_y
_atom_site_fract_z
_atom_type_partial_charge
C1    C     C_R   0.272427 0.040384 0.854280 0.565651
C2    C     C_R   0.727509 0.040522 0.145631 0.566209
C3    C     C_R   0.772428 0.540384 0.854280 0.565651
C4    C     C_R   0.227509 0.540522 0.145631 0.566209
C5    C     C_R   0.484408 0.052914 0.072167 -0.116408
C6    C     C_R   0.516267 0.052100 0.926934 -0.116419
C7    C     C_R   0.984408 0.552914 0.072168 -0.116409
C8    C     C_R   0.016267 0.552101 0.926934 -0.116419
C9    C     C_R   0.989880 0.664416 0.035641 0.041635
C10   C     C_R   0.011732 0.663912 0.962668 0.041720
C11   C     C_R   0.489881 0.164416 0.035641 0.041635
C12   C     C_R   0.511733 0.163912 0.962667 0.041720
C13   C     C_2   0.242408 0.575546 0.917864 -0.102492
C14   C     C_2   0.757444 0.577004 0.082003 -0.102649
C15   C     C_2   0.742408 0.075546 0.917864 -0.102492
C16   C     C_2   0.257444 0.077004 0.082003 -0.102648
C17   C     C_2   0.248904 0.573302 0.073251 -0.122572
C18   C     C_2   0.750903 0.573122 0.926452 -0.121216
C19   C     C_2   0.748904 0.073301 0.073251 -0.122572
C20   C     C_2   0.250903 0.073123 0.926452 -0.121216
C21   C     C_2   0.278188 0.487256 0.030990 -0.124214
C22   C     C_2   0.722395 0.486741 0.969505 -0.120845
C23   C     C_2   0.778187 0.987256 0.030990 -0.124213
C24   C     C_2   0.222394 0.986741 0.969505 -0.120846
C25   C     C_2   0.286755 0.503010 0.953367 0.065033
C26   C     C_2   0.713588 0.503213 0.047005 0.066780
C27   C     C_2   0.786755 0.003010 0.953367 0.065034
C28   C     C_2   0.213588 0.003213 0.047004 0.066779
C29   C     C_2   0.512427 0.839243 0.584116 -0.105092
C30   C     C_2   0.513900 0.826153 0.428774 -0.100020
C31   C     C_2   0.012424 0.339242 0.584114 -0.105096
C32   C     C_2   0.013897 0.326153 0.428773 -0.100017
C33   C     C_2   0.549184 0.749821 0.472415 -0.158692
C34   C     C_2   0.534908 0.742332 0.548482 -0.156465
C35   C     C_2   0.049178 0.249819 0.472414 -0.158691
C36   C     C_2   0.034899 0.242330 0.548480 -0.156470
C37   C     C_2   0.239608 0.558230 0.587047 -0.086982
C38   C     C_2   0.759036 0.556115 0.412989 -0.089152
C39   C     C_2   0.739607 0.058230 0.587047 -0.086982
C40   C     C_2   0.259036 0.056114 0.412989 -0.089151
C41   C     C_2   0.221947 0.521378 0.434348 -0.112290
C42   C     C_2   0.778371 0.523231 0.565666 -0.105234
C43   C     C_2   0.721947 0.021378 0.434348 -0.112291
C44   C     C_2   0.278371 0.023231 0.565666 -0.105234
C45   C     C_R   0.471570 0.821841 0.853056 0.534828
C46   C     C_R   0.528087 0.822103 0.147188 0.538052
C47   C     C_R   0.971570 0.321841 0.853056 0.534829
C48   C     C_R   0.028087 0.322103 0.147188 0.538052
C49   C     C_2   0.167977 0.523209 0.480540 -0.147443
C50   C     C_2   0.831333 0.515532 0.518352 -0.145956
C51   C     C_2   0.667977 0.023209 0.480540 -0.147443
C52   C     C_2   0.331333 0.015532 0.518352 -0.145955
C53   C     C_2   0.176467 0.567284 0.553569 0.074205
C54   C     C_2   0.823226 0.557377 0.444407 0.072711
C55   C     C_2   0.676467 0.067285 0.553569 0.074205
C56   C     C_2   0.323226 0.057375 0.444406 0.072711
C57   C     C_R   0.259342 0.633265 0.849916 0.560828
C58   C     C_R   0.740608 0.633665 0.150025 0.563002
C59   C     C_R   0.759342 0.133265 0.849916 0.560827
C60   C     C_R   0.240608 0.133665 0.150025 0.563002
C61   C     C_R   0.291656 0.997818 0.639989 0.561140
C62   C     C_R   0.708496 0.997530 0.360021 0.558011
C63   C     C_R   0.791656 0.497818 0.639989 0.561139
C64   C     C_R   0.208496 0.497530 0.360021 0.558011
C65   C     C_R   0.472477 0.824569 0.649397 0.546026
C66   C     C_R   0.531789 0.822710 0.353799 0.552050
C67   C     C_R   0.972476 0.324569 0.649397 0.546027
C68   C     C_R   0.031788 0.322710 0.353799 0.552050
C69   C     C_R   0.258819 0.633307 0.647859 0.557082
C70   C     C_R   0.741102 0.632372 0.351910 0.552395
C71   C     C_R   0.758819 0.133307 0.647859 0.557082
C72   C     C_R   0.241102 0.132372 0.351910 0.552396
C73   C     C_R   0.499014 0.829640 0.075072 -0.005517
C74   C     C_R   0.499254 0.828903 0.925712 -0.004373
C75   C     C_R   0.999014 0.329640 0.075072 -0.005517
C76   C     C_R   0.999254 0.328903 0.925712 -0.004374
C77   C     C_R   0.495920 0.941487 0.037365 -0.012970
C78   C     C_R   0.503618 0.941082 0.962524 -0.011931
C79   C     C_R   0.995920 0.441487 0.037365 -0.012969
C80   C     C_R   0.003618 0.441082 0.962524 -0.011931
C81   C     C_R   0.498728 0.719599 0.964370 -0.118969
C82   C     C_R   0.496874 0.720014 0.037447 -0.120086
C83   C     C_R   0.998728 0.219599 0.964370 -0.118969
C84   C     C_R   0.996875 0.220014 0.037447 -0.120086
Cr1   Cr    Cr6+3 0.230530 0.836340 0.748870 1.067466
Cr2   Cr    Cr6+3 0.769470 0.836340 0.251130 1.069431
Cr3   Cr    Cr6+3 0.730530 0.336340 0.748870 1.067466
Cr4   Cr    Cr6+3 0.269470 0.336340 0.251130 1.069431
Cr5   Cr    Cr6+3 0.387420 0.989430 0.750820 1.086573
Cr6   Cr    Cr6+3 0.612580 0.989430 0.249180 1.089353
Cr7   Cr    Cr6+3 0.887420 0.489430 0.750820 1.086572
Cr8   Cr    Cr6+3 0.112580 0.489430 0.249180 1.089354
Cr9   Cr    Cr6+3 0.385640 0.677860 0.749230 1.070494
Cr10  Cr    Cr6+3 0.614360 0.677860 0.250770 1.068757
Cr11  Cr    Cr6+3 0.885640 0.177860 0.749230 1.070494
Cr12  Cr    Cr6+3 0.114360 0.177860 0.250770 1.068756
H1    H     H_    0.496209 0.631910 0.938310 0.204136
H2    H     H_    0.497648 0.632542 0.064364 0.202264
H3    H     H_    0.996210 0.131910 0.938310 0.204136
H4    H     H_    0.997649 0.132542 0.064364 0.202264
H5    H     H_    0.114688 0.507577 0.461451 0.161294
H6    H     H_    0.883900 0.491224 0.536489 0.142162
H7    H     H_    0.614688 0.007579 0.461451 0.161296
H8    H     H_    0.383900 0.991223 0.536489 0.142161
H9    H     H_    0.275827 0.540908 0.450166 0.118936
H10   H     H_    0.725505 0.551285 0.550689 0.108836
H11   H     H_    0.775827 0.040907 0.450166 0.118936
H12   H     H_    0.225505 0.051286 0.550689 0.108836
H13   H     H_    0.281088 0.500987 0.565280 0.093866
H14   H     H_    0.715695 0.505335 0.436985 0.089498
H15   H     H_    0.781088 0.000987 0.565280 0.093866
H16   H     H_    0.215694 0.005335 0.436986 0.089498
H17   H     H_    0.467646 0.052709 0.127598 0.178694
H18   H     H_    0.533091 0.051403 0.871524 0.175875
H19   H     H_    0.967645 0.552708 0.127598 0.178692
H20   H     H_    0.033091 0.551404 0.871524 0.175877
H21   H     H_    0.294566 0.400441 0.053322 0.181773
H22   H     H_    0.706828 0.399242 0.947915 0.182678
H23   H     H_    0.794565 0.900441 0.053322 0.181774
H24   H     H_    0.206827 0.899242 0.947915 0.182676
H25   H     H_    0.232468 0.660736 0.052157 0.119577
H26   H     H_    0.766665 0.661160 0.946793 0.119562
H27   H     H_    0.732468 0.160735 0.052157 0.119577
H28   H     H_    0.266665 0.161160 0.946793 0.119562
H29   H     H_    0.195360 0.609929 0.944532 0.094886
H30   H     H_    0.804201 0.612450 0.055028 0.094923
H31   H     H_    0.695360 0.109929 0.944532 0.094886
H32   H     H_    0.304200 0.112450 0.055028 0.094923
H33   H     H_    0.586663 0.684195 0.451176 0.159967
H34   H     H_    0.537265 0.653125 0.573573 0.172743
H35   H     H_    0.086658 0.184190 0.451175 0.159968
H36   H     H_    0.037253 0.153123 0.573570 0.172749
H37   H     H_    0.475925 0.891681 0.448296 0.118091
H38   H     H_    0.513695 0.928647 0.559660 0.134608
H39   H     H_    0.975922 0.391683 0.448294 0.118092
H40   H     H_    0.013695 0.428645 0.559659 0.134609
O1    O     O_R   0.215090 0.709860 0.828130 -0.510742
O2    O     O_R   0.784910 0.709860 0.171870 -0.509714
O3    O     O_R   0.715090 0.209860 0.828130 -0.510743
O4    O     O_R   0.284910 0.209860 0.171870 -0.509713
O5    O     O_R   0.445660 0.919250 0.676780 -0.503504
O6    O     O_R   0.554340 0.919250 0.323220 -0.495271
O7    O     O_R   0.945660 0.419250 0.676780 -0.503502
O8    O     O_R   0.054340 0.419250 0.323220 -0.495271
O9    O     O_R   0.456260 0.718170 0.670000 -0.505286
O10   O     O_R   0.543740 0.718170 0.330000 -0.503633
O11   O     O_R   0.956260 0.218170 0.670000 -0.505289
O12   O     O_R   0.043740 0.218170 0.330000 -0.503635
O13   O     O_R   0.320940 0.626760 0.674370 -0.498531
O14   O     O_R   0.679060 0.626760 0.325630 -0.509618
O15   O     O_R   0.820940 0.126760 0.674370 -0.498531
O16   O     O_R   0.179060 0.126760 0.325630 -0.509618
O17   O     O_3   0.334530 0.834540 0.749640 -0.294221
O18   O     O_3   0.665470 0.834540 0.250360 -0.296976
O19   O     O_3   0.834530 0.334540 0.749640 -0.294221
O20   O     O_3   0.165470 0.334540 0.250360 -0.296975
O21   O     O_R   0.236990 0.958390 0.823710 -0.496556
O22   O     O_R   0.763010 0.958390 0.176290 -0.497311
O23   O     O_R   0.736990 0.458390 0.823710 -0.496555
O24   O     O_R   0.263010 0.458390 0.176290 -0.497312
O25   O     O_R   0.332380 0.074750 0.830850 -0.471058
O26   O     O_R   0.667620 0.074750 0.169150 -0.470783
O27   O     O_R   0.832380 0.574750 0.830850 -0.471059
O28   O     O_R   0.167620 0.574750 0.169150 -0.470782
O29   O     O_R   0.445800 0.917770 0.825070 -0.499050
O30   O     O_R   0.554200 0.917770 0.174930 -0.497870
O31   O     O_R   0.945800 0.417770 0.825070 -0.499051
O32   O     O_R   0.054200 0.417770 0.174930 -0.497869
O33   O     O_R   0.456410 0.716580 0.829970 -0.504498
O34   O     O_R   0.543590 0.716580 0.170030 -0.502840
O35   O     O_R   0.956410 0.216580 0.829970 -0.504498
O36   O     O_R   0.043590 0.216580 0.170030 -0.502840
O37   O     O_R   0.321080 0.625290 0.822650 -0.458170
O38   O     O_R   0.678920 0.625290 0.177350 -0.457339
O39   O     O_R   0.821080 0.125290 0.822650 -0.458170
O40   O     O_R   0.178920 0.125290 0.177350 -0.457340
O41   O     O_R   0.214930 0.711450 0.668160 -0.474608
O42   O     O_R   0.785070 0.711450 0.331840 -0.472038
O43   O     O_R   0.714930 0.211450 0.668160 -0.474608
O44   O     O_R   0.285070 0.211450 0.331840 -0.472038
O45   O     O_R   0.236850 0.959870 0.675420 -0.489068
O46   O     O_R   0.763150 0.959870 0.324580 -0.487046
O47   O     O_R   0.736850 0.459870 0.675420 -0.489068
O48   O     O_R   0.263150 0.459870 0.324580 -0.487046
O49   O     O_R   0.332230 0.076350 0.670880 -0.476981
O50   O     O_R   0.667770 0.076350 0.329120 -0.475542
O51   O     O_R   0.832230 0.576350 0.670880 -0.476982
O52   O     O_R   0.167770 0.576350 0.329120 -0.475542
I1    I     I_    0.084273 0.659448 0.592494 -0.312163
I2    I     I_    0.918059 0.630051 0.398279 -0.307342
I3    I     I_    0.584273 0.159450 0.592493 -0.312163
I4    I     I_    0.418059 0.130047 0.398278 -0.307341
C85   C     C_2   0.969767 0.776116 0.075769 0.612928
O53   O     O_2   0.950756 0.867849 0.044389 -0.479969
O54   O     O_R   0.970013 0.774795 0.150607 -0.682296
H41   H     H_    0.954372 0.855043 0.171922 0.346334
C86   C     C_2   0.032670 0.774902 0.921726 0.613918
O55   O     O_2   0.055050 0.864704 0.952311 -0.480102
O56   O     O_R   0.029526 0.774793 0.846981 -0.681912
H42   H     H_    0.046136 0.854360 0.825005 0.345748
C87   C     C_2   0.469768 0.276117 0.075768 0.612926
O57   O     O_2   0.450759 0.367851 0.044387 -0.479969
O58   O     O_R   0.470011 0.274796 0.150606 -0.682297
H43   H     H_    0.454371 0.355044 0.171921 0.346334
C88   C     C_2   0.532670 0.274901 0.921725 0.613917
O59   O     O_2   0.555054 0.364702 0.952310 -0.480104
O60   O     O_R   0.529522 0.274794 0.846980 -0.681909
H44   H     H_    0.546132 0.354360 0.825004 0.345748
I5    I     I_    0.360859 0.390854 0.899449 -0.268894
I6    I     I_    0.639916 0.390245 0.101657 -0.263807
I7    I     I_    0.860859 0.890853 0.899449 -0.268894
I8    I     I_    0.139915 0.890246 0.101657 -0.263809

loop_
_geom_bond_atom_site_label_1
_geom_bond_atom_site_label_2
_ccdc_geom_bond_type
C16   C28   D    
O58   H43   S    
C56   I4    S    
Cr10  O10   S    
C37   C69   S    
C82   H2    S    
C87   O57   D    
Cr9   O13   S    
C35   C36   S    
C70   O14   A    
C67   O7    A    
C2    O26   A    
C38   C70   S    
C81   C82   A    
C40   H16   S    
Cr12  O20   S    
C77   C78   A    
C31   C67   S    
Cr9   O33   S    
C50   C54   S    
C41   H9    S    
Cr6   O26   S    
Cr2   O46   S    
Cr4   O20   S    
Cr7   O31   S    
C6    C12   A    
C47   C76   S    
C5    C11   A    
C59   O39   A    
C36   H36   S    
C23   H23   S    
C9    C85   S    
C75   C84   A    
Cr4   O48   S    
C13   C57   S    
C71   O43   A    
Cr12  O16   S    
Cr2   O42   S    
C65   O5    A    
C3    C18   S    
C22   H22   S    
C27   I7    S    
C11   C87   S    
C7    H19   S    
C86   O56   S    
Cr11  O39   S    
C6    H18   S    
C21   H21   S    
C69   O41   A    
C48   O36   A    
C15   C27   D    
C41   C49   D    
C71   O15   A    
C20   C24   D    
C85   O54   S    
C38   C54   D    
C4    O28   A    
C53   I1    S    
Cr9   O9    S    
C23   C27   S    
C38   H14   S    
C40   C72   S    
C9    C10   A    
C29   C65   S    
C37   H13   S    
C68   O12   A    
C3    O27   A    
C62   O50   A    
C64   O48   A    
C37   C53   D    
Cr8   O28   S    
C88   O60   S    
C29   H38   S    
C1    O25   A    
O56   H42   S    
C15   H31   S    
Cr6   O30   S    
C3    O23   A    
C87   O58   S    
C48   C75   S    
Cr7   O27   S    
C58   O38   A    
Cr1   O21   S    
Cr12  O12   S    
C76   C83   A    
Cr5   O25   S    
C30   C66   S    
Cr4   O44   S    
Cr7   O7    S    
C44   H12   S    
C14   C58   S    
C39   C55   D    
C43   C62   S    
C24   H24   S    
C63   O47   A    
O60   H44   S    
C84   H4    S    
C32   C35   D    
C76   C80   A    
Cr11  O11   S    
C79   C80   A    
Cr8   O20   S    
C21   C25   S    
Cr12  O36   S    
Cr2   O2    S    
C70   O42   A    
Cr1   O17   S    
Cr6   O50   S    
C51   C55   S    
C40   C56   D    
C88   O59   D    
C29   C34   D    
C17   C21   D    
C46   O34   A    
C45   C74   S    
C55   I3    S    
C19   C23   D    
Cr7   O19   S    
C62   O46   A    
C47   O31   A    
Cr8   O32   S    
Cr5   O17   S    
C83   C84   A    
C48   O32   A    
Cr1   O41   S    
C59   O3    A    
C42   C50   D    
Cr10  O18   S    
C30   H37   S    
C19   H27   S    
C64   O52   A    
C61   O49   A    
C33   C34   S    
C57   O1    A    
C26   I6    S    
C43   H11   S    
C14   C26   D    
C25   I5    S    
C16   H32   S    
Cr5   O29   S    
Cr6   O6    S    
C60   O4    A    
C16   C60   S    
C4    C17   S    
C17   H25   S    
C18   H26   S    
C50   H6    S    
C63   O51   A    
C74   C78   A    
C60   O40   A    
C57   O37   A    
Cr10  O14   S    
C72   O44   A    
C74   C81   A    
C5    C77   A    
C10   C86   S    
Cr1   O1    S    
C73   C82   A    
C45   O29   A    
C66   O10   A    
C72   O16   A    
C7    C79   A    
C33   H33   S    
C7    C9    A    
Cr4   O4    S    
Cr7   O51   S    
C52   H8    S    
C1    C20   S    
Cr1   O45   S    
C46   O30   A    
C30   C33   D    
C5    H17   S    
C2    C19   S    
C18   C22   D    
Cr5   O49   S    
Cr10  O38   S    
C24   C28   S    
Cr3   O3    S    
C31   H40   S    
C13   C25   D    
C45   O33   A    
C44   C52   D    
Cr12  O40   S    
C32   H39   S    
C47   O35   A    
C11   C12   A    
Cr2   O22   S    
C66   O6    A    
Cr3   O19   S    
C44   C61   S    
C28   I8    S    
C61   O45   A    
C14   H30   S    
C32   C68   S    
C69   O13   A    
C12   C88   S    
C1    O21   A    
Cr2   O18   S    
C35   H35   S    
C13   H29   S    
Cr10  O34   S    
Cr3   O47   S    
C39   H15   S    
C58   O2    A    
Cr6   O18   S    
C4    O24   A    
C75   C79   A    
C43   C51   D    
Cr5   O5    S    
C65   O9    A    
Cr9   O37   S    
C81   H1    S    
Cr3   O23   S    
C54   I2    S    
C68   O8    A    
Cr11  O19   S    
Cr4   O24   S    
C86   O55   D    
Cr8   O8    S    
C15   C59   S    
C20   H28   S    
C49   C53   S    
C6    C78   A    
C8    H20   S    
Cr3   O43   S    
O54   H41   S    
C42   H10   S    
Cr9   O17   S    
Cr11  O15   S    
C2    O22   A    
C34   H34   S    
C73   C77   A    
C8    C10   A    
C85   O53   D    
C22   C26   S    
C67   O11   A    
C8    C80   A    
C39   C71   S    
C31   C36   D    
C83   H3    S    
C41   C64   S    
Cr11  O35   S    
C51   H7    S    
C42   C63   S    
C46   C73   S    
Cr8   O52   S    
C52   C56   S    
C49   H5    S    
