data_mof_unit_pretest_490.cif
_audit_creation_date              2012-10-26T19:00:12-0400
_audit_creation_method            fapswitch 2.2
_symmetry_space_group_name_H-M    P1
_symmetry_Int_Tables_number       1
_space_group_crystal_system       triclinic
_cell_length_a                    10.924035
_cell_length_b                    10.760343
_cell_length_c                    9.680513
_cell_angle_alpha                 89.213494
_cell_angle_beta                  91.942984
_cell_angle_gamma                 88.469283
_cell_volume                      1136.72710301

loop_
_atom_site_label
_atom_site_type_symbol
_atom_type_description
_atom_site_fract_x
_atom_site_fract_y
_atom_site_fract_z
_atom_type_partial_charge
C1    C     C_R   0.501684 0.262979 0.500658 0.544984
C2    C     C_R   0.837253 0.537188 0.973323 0.226814
C3    C     C_R   0.861174 0.425644 0.046419 -0.094153
C4    C     C_R   0.262493 0.498881 0.497172 0.559792
C5    C     C_R   0.909293 0.322408 0.978733 -0.109775
C6    C     C_R   0.929879 0.329330 0.837049 -0.058192
C7    C     C_R   0.902573 0.440127 0.762399 0.038421
C8    C     C_R   0.442649 0.065274 0.601266 0.053842
C9    C     C_R   0.507223 0.129483 0.502968 0.029352
C10   C     C_R   0.576932 0.063638 0.407698 -0.133260
C11   C     C_R   0.574199 0.934166 0.405977 -0.138360
C12   C     C_R   0.150260 0.636445 0.971364 0.233848
C13   C     C_R   0.501168 0.870895 0.498910 0.010882
C14   C     C_R   0.439176 0.937151 0.599365 0.013952
C15   C     C_3   0.304596 0.939979 0.625111 -0.253543
C16   C     C_R   0.498323 0.737241 0.499184 0.553213
C17   C     C_3   0.309833 0.080164 0.629588 -0.268872
C18   C     C_R   0.446647 0.595074 0.069506 0.165231
C19   C     C_R   0.546565 0.401960 0.079446 0.057912
C20   C     C_R   0.546843 0.400534 0.932841 0.217074
C21   C     C_R   0.448716 0.596036 0.923695 0.231297
C22   C     C_3   0.480708 0.729915 0.920163 -0.249233
C23   C     C_R   0.927975 0.549516 0.391419 -0.120529
C24   C     C_3   0.473522 0.729759 0.076552 -0.263683
C25   C     C_R   0.737525 0.501048 0.502887 0.538068
C26   C     C_R   0.112660 0.731957 0.058103 -0.079234
C27   C     C_R   0.088999 0.706723 0.196436 0.101751
C28   C     C_R   0.102506 0.583957 0.247918 0.005138
C29   C     C_R   0.143344 0.489469 0.161772 -0.095604
C30   C     C_R   0.169589 0.515080 0.025180 0.248276
C31   C     C_R   0.871804 0.504076 0.508129 -0.011999
C32   C     C_R   0.945819 0.457248 0.620808 -0.017314
C33   C     C_R   0.071717 0.445680 0.605804 -0.093961
C34   C     C_R   0.128180 0.495390 0.491714 0.018869
C35   C     C_R   0.054667 0.546952 0.381793 0.002823
C36   C     C_R   0.858181 0.544387 0.832320 0.012918
Cl1   Cl    Cl    0.168646 0.672480 0.796570 -0.637200
Cl2   Cl    Cl    0.229380 0.391976 0.929285 -0.648740
Cl3   Cl    Cl    0.788747 0.671231 0.057869 -0.693625
Cu1   Cu    Cu3+1 0.499990 0.499980 0.640670 1.058793
Cu2   Cu    Cu3+1 0.500010 0.500020 0.359330 0.975556
H1    H     H_    0.844340 0.418841 0.155524 0.135679
H2    H     H_    0.586116 0.324043 0.138675 0.132997
H3    H     H_    0.099352 0.825665 0.017188 0.174933
H4    H     H_    0.574333 0.744940 0.882867 0.192165
H5    H     H_    0.407893 0.788998 0.869078 0.158438
H6    H     H_    0.561589 0.748745 0.131152 0.213979
H7    H     H_    0.393969 0.785236 0.113170 0.134121
H8    H     H_    0.152334 0.394551 0.200630 0.153110
H9    H     H_    0.872392 0.588101 0.306455 0.207469
H10   H     H_    0.127425 0.403183 0.687591 0.210721
H11   H     H_    0.844242 0.632665 0.778052 0.167073
H12   H     H_    0.930366 0.236959 0.035930 0.151584
H13   H     H_    0.969442 0.249516 0.786194 0.140526
H14   H     H_    0.630991 0.112203 0.333396 0.140684
H15   H     H_    0.627517 0.883870 0.331563 0.161051
H16   H     H_    0.249024 0.905710 0.535928 0.188518
H17   H     H_    0.282039 0.899195 0.726317 0.187395
H18   H     H_    0.256146 0.127960 0.543737 0.140244
H19   H     H_    0.294769 0.118390 0.733999 0.187890
I1    I     I_    0.628590 0.232338 0.863341 -0.357915
I2    I     I_    0.028255 0.855737 0.320265 -0.375214
N1    N     N_R   0.500790 0.500930 0.147930 -0.237106
N2    N     N_R   0.500790 0.500890 0.852020 -0.203030
O1    O     O_R   0.500000 0.319640 0.618810 -0.462772
O2    O     O_R   0.500010 0.319680 0.381230 -0.524673
O3    O     O_R   0.319640 0.499990 0.618790 -0.421358
O4    O     O_R   0.319650 0.500030 0.381210 -0.512938
O5    O     O_R   0.499990 0.680320 0.618770 -0.499979
O6    O     O_R   0.500000 0.680360 0.381190 -0.510857
O7    O     O_R   0.680350 0.499970 0.618790 -0.502385
O8    O     O_R   0.680360 0.500010 0.381210 -0.501879

loop_
_geom_bond_atom_site_label_1
_geom_bond_atom_site_label_2
_ccdc_geom_bond_type
C25   C31   S    
C4    O3    A    
C1    O1    A    
C21   N2    A    
C3    H1    S    
C20   N2    A    
C29   C30   A    
C25   O7    A    
C27   I2    S    
C33   H10   S    
C18   C21   A    
C15   H16   S    
C7    C36   A    
C8    C17   S    
Cu1   N2    S    
C33   C34   A    
C10   C11   A    
C32   C33   A    
C19   C20   A    
C2    C3    A    
C8    C9    A    
C26   H3    S    
C11   H15   S    
C25   O8    A    
C29   H8    S    
C21   C22   S    
C10   H14   S    
C11   C13   A    
C26   C27   A    
C6    C7    A    
C19   N1    A    
C17   H18   S    
Cu2   O8    S    
C18   C24   S    
C22   C24   S    
C5    H12   S    
Cu1   Cu2   S    
Cu1   O7    S    
C6    H13   S    
C1    O2    A    
Cu2   O4    S    
C23   C35   A    
Cu1   O1    S    
C5    C6    A    
C15   H17   S    
C4    C34   S    
C18   N1    A    
Cu1   O5    S    
Cu2   N1    S    
C17   H19   S    
C2    C36   A    
C23   C31   A    
C24   H7    S    
C1    C9    S    
C3    C5    A    
C12   Cl1   S    
C22   H4    S    
C16   O6    A    
C30   Cl2   S    
C4    O4    A    
C34   C35   A    
C9    C10   A    
C13   C16   S    
C12   C26   A    
C20   I1    S    
C15   C17   S    
C14   C15   S    
C28   C29   A    
C23   H9    S    
C8    C14   A    
C7    C32   S    
Cu2   O2    S    
C22   H5    S    
C13   C14   A    
C24   H6    S    
C12   C30   A    
C2    Cl3   S    
C16   O5    A    
C31   C32   A    
C28   C35   S    
C19   H2    S    
Cu2   O6    S    
C27   C28   A    
Cu1   O3    S    
C36   H11   S    
