data_mof_unit_pretest_991.cif
_audit_creation_date              2012-12-11T16:29:31-0500
_audit_creation_method            fapswitch 2.2
_symmetry_space_group_name_H-M    P1
_symmetry_Int_Tables_number       1
_space_group_crystal_system       triclinic
_cell_length_a                    6.955896
_cell_length_b                    17.219545
_cell_length_c                    18.868396
_cell_angle_alpha                 106.293344
_cell_angle_beta                  89.994426
_cell_angle_gamma                 90.704457
_cell_volume                      2169.06291196

loop_
_atom_site_label
_atom_site_type_symbol
_atom_type_description
_atom_site_fract_x
_atom_site_fract_y
_atom_site_fract_z
_atom_type_partial_charge
O1    O     O_R   0.494360 0.415680 0.413760 -0.524761
O2    O     O_R   0.818810 0.432910 0.557230 -0.528583
O3    O     O_R   0.994290 0.584320 0.586240 -0.544987
C1    C     C_R   0.650231 0.416973 0.581479 0.760818
O4    O     O_R   0.823740 0.406440 0.412520 -0.533449
O5    O     O_R   0.999250 0.557660 0.440500 -0.521911
C2    C     C_R   0.653883 0.382543 0.385688 0.902520
O6    O     O_R   0.489400 0.442340 0.559500 -0.513059
O7    O     O_3   0.662500 0.549650 0.509350 -0.365180
V1    V     V_3+5 0.935340 0.490790 0.498270 1.480112
O8    O     O_R   0.329270 0.567090 0.442770 -0.522400
C3    C     C_R   0.161175 0.583536 0.418942 0.767679
O9    O     O_R   0.324340 0.593560 0.587480 -0.516503
C4    C     C_R   0.156422 0.617244 0.614642 0.885856
V2    V     V_3+5 0.435970 0.509210 0.501730 1.495997
O10   O     O_3   0.158940 0.450350 0.490650 -0.362453
C5    C     C_R   0.168209 0.587536 0.760333 0.103507
C6    C     C_R   0.142669 0.570411 0.827975 0.246879
C7    C     C_R   0.080743 0.631047 0.889930 0.210057
C8    C     C_R   0.071083 0.711883 0.886965 0.275671
C9    C     C_R   0.109910 0.732051 0.819440 -0.079980
C10   C     C_R   0.142957 0.667880 0.753803 -0.074083
C11   C     C_R   0.113176 0.814375 0.816088 -0.086140
C12   C     C_R   0.124792 0.832202 0.746300 -0.068849
C13   C     C_R   0.148179 0.767398 0.680238 -0.050332
C14   C     C_R   0.152538 0.685399 0.684037 -0.087273
C15   C     C_R   0.112287 0.913411 0.740104 0.094644
C16   C     C_R   0.118388 0.929158 0.671156 0.325492
C17   C     C_R   0.137481 0.865483 0.606426 0.071117
C18   C     C_R   0.170420 0.786523 0.611505 0.241500
C19   C     C_1   0.111876 0.864742 0.133350 -0.223832
C20   C     C_1   0.119309 0.822100 0.176851 0.008901
C21   C     C_1   0.128600 0.771679 0.228566 0.010398
C22   C     C_1   0.136548 0.729163 0.272174 0.003198
C23   C     C_1   0.145881 0.678635 0.323794 -0.011740
C24   C     C_1   0.153345 0.635795 0.367120 -0.220393
C25   C     C_1   0.642009 0.365010 0.633519 -0.208339
C26   C     C_1   0.637727 0.322147 0.676850 0.038255
C27   C     C_1   0.634091 0.271414 0.728313 0.040261
C28   C     C_1   0.631347 0.228631 0.771733 0.037365
C29   C     C_1   0.627733 0.177879 0.823179 0.031530
C30   C     C_1   0.623439 0.134995 0.866492 -0.212376
C31   C     C_R   0.673679 0.413314 0.240785 0.142765
C32   C     C_R   0.672527 0.428500 0.172206 -0.251886
C33   C     C_R   0.641691 0.367212 0.107921 0.153816
C34   C     C_R   0.613976 0.286950 0.110752 0.340707
C35   C     C_R   0.627851 0.267491 0.179892 -0.067331
C36   C     C_R   0.648874 0.332269 0.246591 0.000143
C37   C     C_R   0.621164 0.185347 0.183598 -0.134542
C38   C     C_R   0.621770 0.167749 0.253441 -0.000615
C39   C     C_R   0.618805 0.233030 0.320126 -0.079973
C40   C     C_R   0.640725 0.314797 0.316435 -0.130314
C41   C     C_R   0.621390 0.086276 0.259293 0.136020
C42   C     C_R   0.611405 0.071342 0.327919 -0.288366
C43   C     C_R   0.594936 0.133809 0.392575 0.320780
C44   C     C_R   0.593231 0.214538 0.389286 0.309144
H1    H     H_    0.693782 0.489911 0.168989 0.145963
H2    H     H_    0.613538 0.009237 0.330464 0.135620
O11   O     O_R   0.775690 0.057750 0.940570 -0.521278
O12   O     O_R   0.441200 0.093570 0.087490 -0.527264
O13   O     O_R   0.265840 0.942320 0.059480 -0.527110
C45   C     C_R   0.610707 0.117393 0.114443 0.900598
O14   O     O_R   0.446270 0.067110 0.942790 -0.522105
O15   O     O_R   0.270950 0.915660 0.913750 -0.541970
C46   C     C_R   0.614975 0.083030 0.918524 0.758255
O16   O     O_R   0.770580 0.084400 0.086300 -0.531794
O17   O     O_3   0.602640 0.950400 0.990690 -0.361679
V3    V     V_3+5 0.329740 0.009200 0.001730 1.485049
O18   O     O_R   0.940900 0.906360 0.912450 -0.516134
C47   C     C_R   0.108903 0.882097 0.885771 0.885137
O19   O     O_R   0.935830 0.932820 0.057160 -0.513916
C48   C     C_R   0.103942 0.916605 0.081176 0.749117
V4    V     V_3+5 0.829130 0.990680 0.998180 1.506205
O20   O     O_3   0.106100 0.049590 0.009310 -0.363288
N1    N     N_3   0.118332 0.881467 0.535618 -0.673652
H3    H     H_    0.985928 0.909490 0.535198 0.236874
H4    H     H_    0.105085 0.827987 0.492801 0.247999
N2    N     N_3   0.703003 0.482073 0.303620 -0.669033
H5    H     H_    0.593050 0.523320 0.304823 0.223337
H6    H     H_    0.833801 0.509884 0.297196 0.226156
N3    N     N_3   0.640974 0.386595 0.038788 -0.680844
H7    H     H_    0.773361 0.413536 0.032925 0.242971
H8    H     H_    0.533705 0.429145 0.040668 0.238237
O21   O     O_3   0.570009 0.227309 0.046662 -0.666525
H9    H     H_    0.532368 0.251151 0.006808 0.315113
N4    N     N_3   0.634272 0.016677 0.196422 -0.665116
H10   H     H_    0.756209 0.984119 0.202436 0.227221
H11   H     H_    0.513217 0.979761 0.195520 0.225879
O22   O     O_3   0.561560 0.275880 0.453135 -0.664168
H12   H     H_    0.518072 0.253816 0.493607 0.323897
N5    N     N_3   0.231633 0.522504 0.699401 -0.649504
H13   H     H_    0.362523 0.501378 0.713442 0.249507
H14   H     H_    0.129955 0.475393 0.689567 0.250915
O23   O     O_3   0.180016 0.492827 0.831330 -0.645098
H15   H     H_    0.220584 0.495117 0.882214 0.303330
O24   O     O_3   0.027212 0.612950 0.954144 -0.654703
H16   H     H_    0.975846 0.556787 0.941486 0.301862
O25   O     O_3   0.011130 0.771175 0.948541 -0.654944
H17   H     H_    0.996334 0.749920 0.991797 0.329269
N6    N     N_3   0.087547 0.981819 0.803469 -0.652913
H18   H     H_    0.959467 0.010557 0.797457 0.251668
H19   H     H_    0.202095 0.022467 0.806099 0.250471
O26   O     O_3   0.102751 0.008795 0.669662 -0.642227
H20   H     H_    0.144753 0.014260 0.621163 0.326884
O27   O     O_3   0.231786 0.728472 0.549729 -0.664002
H21   H     H_    0.323912 0.754074 0.522711 0.293503
O28   O     O_3   0.581999 0.117518 0.460188 -0.645435
H22   H     H_    0.585330 0.058207 0.452838 0.298178

loop_
_geom_bond_atom_site_label_1
_geom_bond_atom_site_label_2
_ccdc_geom_bond_type
C43   C44   A    
O14   C46   A    
V4    O20   S    
C42   C43   A    
C7    C8    A    
C5    N5    S    
C12   C15   A    
C1    O6    A    
N3    H7    S    
C35   C37   A    
C41   C42   A    
C31   N2    S    
C17   C18   A    
O15   V3    S    
C16   C17   A    
C2    C40   S    
C22   C23   S    
O5    C3    A    
C26   C27   S    
N2    H6    S    
V3    O20   S    
V2    O10   S    
O12   C45   A    
C6    C7    A    
C29   C30   T    
O14   V3    S    
O8    V2    S    
C19   C20   T    
C30   C46   S    
O28   H22   S    
O18   V4    S    
C41   N4    S    
O1    V2    S    
O15   C47   A    
C3    C24   S    
C31   C36   A    
O11   V4    S    
O9    C4    A    
C11   C47   S    
O18   C47   A    
O4    V1    S    
N3    H8    S    
C21   C22   T    
C15   N6    S    
C38   C41   A    
C19   C48   S    
C45   O16   A    
O17   V3    S    
C16   O26   S    
C12   C13   A    
N5    H13   S    
O19   V4    S    
N4    H10   S    
C38   C39   A    
C13   C14   A    
C33   C34   A    
O16   V4    S    
C4    C14   S    
C39   C40   A    
C43   O28   S    
C23   C24   T    
O2    C1    A    
N1    H3    S    
C25   C26   T    
N5    H14   S    
C35   C36   A    
C32   H1    S    
C11   C12   A    
O24   H16   S    
C8    C9    A    
N6    H19   S    
C5    C6    A    
C8    O25   S    
O21   H9    S    
N1    H4    S    
O3    C4    A    
O17   V4    S    
O13   C48   A    
C28   C29   S    
O25   H17   S    
O6    V2    S    
C9    C11   A    
C18   O27   S    
C6    O23   S    
C34   O21   S    
O2    V1    S    
C27   C28   T    
C32   C33   A    
O4    C2    A    
O7    V1    S    
C13   C18   A    
C34   C35   A    
C44   O22   S    
C37   C45   S    
O1    C2    A    
C33   N3    S    
C39   C44   A    
O5    V1    S    
O8    C3    A    
C17   N1    S    
O27   H21   S    
C5    C10   A    
C20   C21   S    
O9    V2    S    
O7    V2    S    
O19   C48   A    
O3    V1    S    
V1    O10   S    
O11   C46   A    
N2    H5    S    
O13   V3    S    
C31   C32   A    
N6    H18   S    
N4    H11   S    
O23   H15   S    
C36   C40   A    
C42   H2    S    
C1    C25   S    
O12   V3    S    
C37   C38   A    
C10   C14   A    
O26   H20   S    
O22   H12   S    
C9    C10   A    
C7    O24   S    
C15   C16   A    
