data_mof_unit_pretest_844.cif
_audit_creation_date              2012-12-11T16:08:28-0500
_audit_creation_method            fapswitch 2.2
_symmetry_space_group_name_H-M    P1
_symmetry_Int_Tables_number       1
_space_group_crystal_system       triclinic
_cell_length_a                    12.966451
_cell_length_b                    13.259238
_cell_length_c                    27.688184
_cell_angle_alpha                 95.180689
_cell_angle_beta                  90.054391
_cell_angle_gamma                 119.315817
_cell_volume                      4128.11671039

loop_
_atom_site_label
_atom_site_type_symbol
_atom_type_description
_atom_site_fract_x
_atom_site_fract_y
_atom_site_fract_z
_atom_type_partial_charge
C1    C     C_R   0.628465 0.894455 0.427571 0.532703
C2    C     C_R   0.161823 0.737443 0.299427 0.051510
C3    C     C_R   0.167361 0.745246 0.198293 0.024476
C4    C     C_R   0.601138 0.221982 0.440576 0.549386
C5    C     C_R   0.170552 0.654290 0.218717 -0.094380
C6    C     C_R   0.160979 0.645518 0.268565 0.246701
C7    C     C_R   0.170746 0.748538 0.148054 0.193869
C8    C     C_R   0.132855 0.818272 0.126727 0.028275
C9    C     C_R   0.173241 0.927708 0.359964 0.183725
C10   C     C_R   0.152986 0.919918 0.309254 0.038221
C11   C     C_R   0.156807 0.829393 0.278993 -0.097053
C12   C     C_R   0.667309 0.427799 0.238551 -0.094966
C13   C     C_R   0.136567 0.004262 0.287338 0.276163
C14   C     C_R   0.135871 0.004175 0.237102 -0.068845
C15   C     C_R   0.141271 0.916266 0.206886 -0.042295
C16   C     C_R   0.265932 0.874179 0.426048 0.555772
C17   C     C_R   0.154359 0.829981 0.228068 -0.043932
C18   C     C_R   0.126985 0.908447 0.155828 0.197360
C19   C     C_R   0.195598 0.844960 0.379474 -0.015878
C20   C     C_R   0.745627 0.942537 0.355905 -0.171501
C21   C     C_R   0.745337 0.934602 0.305870 -0.059941
C22   C     C_R   0.742773 0.926082 0.204880 -0.005476
C23   C     C_R   0.659302 0.411635 0.287904 -0.084045
C24   C     C_R   0.826523 0.028213 0.233488 0.235149
C25   C     C_R   0.829296 0.029379 0.283537 -0.058922
C26   C     C_R   0.752784 0.912652 0.155061 -0.187767
C27   C     C_R   0.678113 0.807419 0.127393 0.031354
C28   C     C_R   0.627669 0.898355 0.564633 0.540823
C29   C     C_R   0.570670 0.750720 0.352890 0.250073
C30   C     C_R   0.569820 0.740509 0.301512 0.093806
C31   C     C_R   0.656044 0.835268 0.278203 -0.038135
C32   C     C_R   0.484628 0.639388 0.272832 0.257445
C33   C     C_R   0.486335 0.634845 0.221985 -0.151862
C34   C     C_R   0.672825 0.321899 0.304490 0.043219
C35   C     C_R   0.570259 0.729145 0.198773 -0.018614
C36   C     C_R   0.655330 0.830530 0.227274 -0.017324
C37   C     C_R   0.578171 0.720744 0.147778 0.233660
C38   C     C_R   0.652768 0.857273 0.379376 -0.032777
C39   C     C_R   0.740702 0.298534 0.651247 -0.151280
C40   C     C_R   0.604157 0.229539 0.578090 0.537475
C41   C     C_R   0.751367 0.311527 0.702271 -0.056666
C42   C     C_R   0.764770 0.335999 0.804903 -0.048724
C43   C     C_R   0.855612 0.329014 0.778855 0.299792
C44   C     C_R   0.847787 0.314662 0.727961 0.293726
C45   C     C_R   0.688295 0.354032 0.205468 0.036489
C46   C     C_R   0.775542 0.363494 0.855480 -0.168698
C47   C     C_R   0.683694 0.367870 0.880520 0.029367
C48   C     C_R   0.564177 0.318753 0.653347 0.223006
C49   C     C_R   0.565113 0.317350 0.703547 0.089731
C50   C     C_R   0.660049 0.316603 0.728363 -0.006168
C51   C     C_R   0.470136 0.312774 0.729098 -0.039441
C52   C     C_R   0.271294 0.879391 0.563272 0.540239
C53   C     C_R   0.469096 0.308947 0.778834 -0.100254
C54   C     C_R   0.567988 0.320365 0.804751 0.029837
C55   C     C_R   0.664080 0.323435 0.779347 -0.001203
C56   C     C_1   0.696274 0.372456 0.154822 -0.040659
C57   C     C_R   0.574957 0.334002 0.855617 0.232523
C58   C     C_R   0.642694 0.292733 0.626946 -0.014827
C59   C     C_1   0.222845 0.863919 0.610159 0.022678
C60   C     C_R   0.070896 0.762121 0.718098 0.225432
C61   C     C_R   0.056497 0.748148 0.768266 0.199761
C62   C     C_R   0.247565 0.923962 0.787908 0.256869
C63   C     C_R   0.265234 0.935519 0.737863 0.194762
C64   C     C_1   0.634289 0.270155 0.395074 0.018454
C65   C     C_R   0.176488 0.852907 0.703124 0.010669
C66   C     C_R   0.144058 0.830372 0.802509 0.042693
C67   C     C_1   0.655008 0.298461 0.354481 -0.026616
C68   C     C_1   0.126515 0.816321 0.853410 0.098208
C69   C     C_1   0.196180 0.856958 0.651849 0.035046
C70   C     C_1   0.102233 0.798099 0.894817 0.043011
C71   C     C_1   0.648144 0.860632 0.608758 0.014573
C72   C     C_R   0.682251 0.894476 0.734947 -0.161797
C73   C     C_R   0.692868 0.876554 0.782940 -0.136738
C74   C     C_R   0.692038 0.695470 0.756081 0.261181
C75   C     C_R   0.681175 0.714552 0.707067 0.319157
C76   C     C_R   0.694911 0.248744 0.271485 -0.081831
C77   C     C_R   0.676342 0.814361 0.697114 0.041724
C78   C     C_1   0.704237 0.396987 0.113587 0.010016
C79   C     C_R   0.697652 0.778138 0.794042 0.009263
C80   C     C_1   0.711523 0.766896 0.844625 -0.046257
C81   C     C_1   0.662282 0.835978 0.648133 0.027746
C82   C     C_1   0.726103 0.760285 0.886957 -0.000661
C83   C     C_R   0.067260 0.774645 0.078932 0.560339
C84   C     C_R   0.717006 0.441486 0.067325 0.548688
C85   C     C_R   0.719408 0.783264 0.080716 0.576769
C86   C     C_R   0.057119 0.766479 0.941449 0.534435
C87   C     C_R   0.709198 0.432056 0.929237 0.557326
C88   C     C_R   0.702812 0.264857 0.222076 -0.084990
C89   C     C_R   0.173152 0.742627 0.350192 0.218386
C90   C     C_R   0.748888 0.753943 0.936920 0.553064
Cr1   Cr    Cr6+3 0.416430 0.829200 0.492370 1.088528
Cr2   Cr    Cr6+3 0.674630 0.087020 0.504170 1.045775
Cr3   Cr    Cr6+3 0.408920 0.083740 0.503490 1.082677
Cr4   Cr    Cr6+3 0.914010 0.832750 0.013970 1.074408
Cr5   Cr    Cr6+3 0.922310 0.578600 0.003000 1.051278
Cr6   Cr    Cr6+3 0.656280 0.574630 0.003870 1.104765
H1    H     H_    0.640912 0.467890 0.312923 0.142300
H2    H     H_    0.416020 0.604146 0.129774 0.333935
H3    H     H_    0.423758 0.554681 0.201008 0.120515
H4    H     H_    0.349199 0.482069 0.269542 0.327644
H5    H     H_    0.719179 0.207453 0.196891 0.117514
H6    H     H_    0.523823 0.663375 0.408970 0.326565
H7    H     H_    0.858311 0.390144 0.875290 0.155320
H8    H     H_    0.804374 0.286912 0.629794 0.153691
H9    H     H_    0.927295 0.295217 0.832141 0.311897
H10   H     H_    0.899752 0.241386 0.677693 0.312426
H11   H     H_    0.456700 0.378030 0.870528 0.323758
H12   H     H_    0.704161 0.178189 0.283845 0.123815
H13   H     H_    0.391844 0.301531 0.796624 0.144838
H14   H     H_    0.394308 0.308611 0.710573 0.185298
H15   H     H_    0.516532 0.377275 0.601253 0.354122
H16   H     H_    0.905899 0.658134 0.697311 0.353462
H17   H     H_    0.656237 0.497305 0.226120 0.124503
H18   H     H_    0.929677 0.587207 0.759694 0.354256
H19   H     H_    0.398915 0.062851 0.808663 0.382514
H20   H     H_    0.367416 0.033301 0.689428 0.331630
H21   H     H_    0.678300 0.971312 0.727278 0.138545
H22   H     H_    0.697646 0.940211 0.811642 0.146794
H23   H     H_    0.128025 0.072983 0.222244 0.182859
H24   H     H_    0.702579 0.592994 0.800392 0.340903
H25   H     H_    0.680007 0.572460 0.680231 0.368868
H26   H     H_    0.234720 0.712190 0.090125 0.342147
H27   H     H_    0.247402 0.653871 0.363533 0.396022
H28   H     H_    0.175266 0.586347 0.195613 0.162209
H29   H     H_    0.151107 0.492804 0.260601 0.330392
H30   H     H_    0.040572 0.992130 0.151948 0.328907
H31   H     H_    0.055318 0.046002 0.335908 0.346788
H32   H     H_    0.146828 0.993073 0.420670 0.327359
H33   H     H_    0.826981 0.979630 0.138274 0.155128
H34   H     H_    0.812130 0.022193 0.376288 0.155816
H35   H     H_    0.872277 0.135698 0.184465 0.316980
H36   H     H_    0.895417 0.106985 0.305176 0.168026
O1    O     O_R   0.296680 0.802170 0.437540 -0.464094
O2    O     O_R   0.637200 0.461990 0.052510 -0.476206
O3    O     O_R   0.664790 0.681920 0.057970 -0.428726
O4    O     O_R   0.525380 0.838530 0.443500 -0.483127
O5    O     O_R   0.815840 0.852920 0.961840 -0.495456
O6    O     O_R   0.012100 0.822630 0.963670 -0.509030
O7    O     O_R   0.037010 0.668460 0.953040 -0.499967
O8    O     O_R   0.813390 0.478970 0.949660 -0.517201
O9    O     O_R   0.632250 0.456930 0.945520 -0.464721
O10   O     O_R   0.660200 0.677230 0.958780 -0.490578
O11   O     O_3   0.830870 0.661990 0.006950 -0.299399
O12   O     O_R   0.662610 0.183990 0.557860 -0.505689
O13   O     O_R   0.702130 0.995190 0.446810 -0.513989
O14   O     O_R   0.661770 0.181390 0.458760 -0.495153
O15   O     O_R   0.499820 0.198480 0.455280 -0.477184
O16   O     O_R   0.311660 0.976250 0.449080 -0.483582
O17   O     O_R   0.297580 0.804960 0.544440 -0.491289
O18   O     O_R   0.526220 0.841130 0.542590 -0.490917
O19   O     O_R   0.703030 0.997990 0.553710 -0.508563
O20   O     O_3   0.118843 0.087268 0.313519 -0.626819
O21   O     O_3   0.180603 0.021026 0.389306 -0.645557
O22   O     O_3   0.908597 0.127410 0.214234 -0.700368
O23   O     O_R   0.500730 0.201280 0.562180 -0.482062
O24   O     O_3   0.495477 0.626188 0.117770 -0.668992
O25   O     O_3   0.401230 0.545199 0.294739 -0.598015
O26   O     O_3   0.489441 0.658470 0.376281 -0.607342
O27   O     O_3   0.952124 0.332127 0.801600 -0.626818
O28   O     O_3   0.936627 0.303931 0.704813 -0.622259
O29   O     O_3   0.479225 0.321925 0.881411 -0.647539
O30   O     O_3   0.481832 0.339010 0.630852 -0.674976
O31   O     O_3   0.984206 0.689022 0.682947 -0.672267
O32   O     O_3   0.959934 0.654197 0.785013 -0.689818
O33   O     O_3   0.330140 0.001563 0.823600 -0.665485
O34   O     O_R   0.312500 0.978850 0.548170 -0.496827
O35   O     O_3   0.370032 0.027093 0.724655 -0.723151
O36   O     O_3   0.696752 0.596738 0.765062 -0.724079
O37   O     O_3   0.674670 0.637900 0.668259 -0.676311
O38   O     O_3   0.202087 0.676481 0.120432 -0.695927
O39   O     O_3   0.171941 0.652178 0.371506 -0.591095
O40   O     O_3   0.151956 0.548417 0.287290 -0.632312
O41   O     O_3   0.102280 0.984055 0.133723 -0.664812
O42   O     O_3   0.499990 0.999990 0.500010 -0.266130
O43   O     O_R   0.820790 0.857990 0.068830 -0.521369
O44   O     O_R   0.016700 0.827330 0.062850 -0.441441
O45   O     O_R   0.041970 0.673520 0.060040 -0.493223
O46   O     O_R   0.817980 0.483660 0.048840 -0.490916

loop_
_geom_bond_atom_site_label_1
_geom_bond_atom_site_label_2
_ccdc_geom_bond_type
C15   C18   A    
H25   O37   S    
C63   C65   A    
C28   O18   A    
C8    C83   S    
C66   C68   S    
C35   C36   A    
C87   O8    A    
H6    O26   S    
C74   O36   S    
C88   H5    S    
C39   H8    S    
C39   C41   A    
C6    O40   S    
C53   C54   A    
Cr5   O11   S    
C21   C31   A    
C5    H28   S    
C84   O2    A    
Cr5   O8    S    
C29   C30   A    
Cr4   O11   S    
C35   C37   A    
C12   H17   S    
C43   O27   S    
C30   C31   A    
H31   O20   S    
H30   O41   S    
C48   O30   S    
C2    C11   A    
C61   O32   S    
Cr3   O42   S    
C60   O31   S    
C56   C78   T    
Cr3   O16   S    
C42   C46   A    
Cr3   O15   S    
C27   C85   S    
H29   O40   S    
C52   O34   A    
Cr6   O9    S    
C46   C47   A    
C1    O13   A    
C61   C66   A    
Cr5   O45   S    
Cr1   O4    S    
H11   O29   S    
C45   C56   S    
C24   O22   S    
C52   O17   A    
C49   C51   A    
Cr1   O1    S    
C72   H21   S    
C75   O37   S    
H20   O35   S    
H32   O21   S    
C77   C81   S    
H19   O33   S    
C1    O4    A    
C9    C10   A    
C76   C88   A    
Cr4   O43   S    
C63   O35   S    
C9    O21   S    
C76   H12   S    
H26   O38   S    
C83   O44   A    
C37   O24   S    
C2    C6    A    
H15   O30   S    
C16   O1    A    
H4    O25   S    
C86   O6    A    
C9    C19   A    
Cr6   O3    S    
H2    O24   S    
C40   C58   S    
C74   C75   A    
C83   O45   A    
Cr2   O14   S    
C64   C67   T    
C7    C8    A    
C45   C88   A    
C24   C25   A    
C89   O39   S    
C80   C82   T    
Cr1   O17   S    
C62   C66   A    
C72   C73   A    
Cr6   O2    S    
Cr2   O42   S    
C39   C58   A    
C8    C18   A    
Cr1   O42   S    
C60   C61   A    
C33   H3    S    
C47   C87   S    
C29   C38   A    
C2    C89   A    
C43   C44   A    
C72   C77   A    
C19   C89   A    
C52   C59   S    
C42   C55   A    
C47   C57   A    
C20   C38   A    
Cr5   O46   S    
H18   O32   S    
C12   C23   A    
Cr3   O23   S    
C23   C34   A    
C4    O14   A    
Cr2   O19   S    
C73   C79   A    
C40   O23   A    
C87   O9    A    
C84   O46   A    
C75   C77   A    
C90   O10   A    
C26   H33   S    
C1    C38   S    
C59   C69   T    
C86   O7    A    
C48   C49   A    
C23   H1    S    
C44   O28   S    
C85   O3    A    
Cr3   O34   S    
C49   C50   A    
C51   H14   S    
C74   C79   A    
C40   O12   A    
C26   C27   A    
Cr4   O6    S    
C41   C44   A    
C22   C24   A    
C28   C71   S    
C42   C43   A    
C70   C86   S    
C41   C50   A    
C90   O5    A    
H24   O36   S    
C32   O25   S    
C53   H13   S    
C15   C17   A    
H16   O31   S    
C21   C25   A    
C54   C55   A    
C11   C17   A    
C73   H22   S    
Cr2   O13   S    
C31   C36   A    
Cr5   O7    S    
H35   O22   S    
C13   O20   S    
C20   H34   S    
C12   C45   A    
C3    C5    A    
C10   C13   A    
C34   C67   S    
C60   C65   A    
Cr1   O18   S    
C48   C58   A    
C29   O26   S    
C22   C36   A    
C46   H7    S    
C4    C64   S    
C3    C7    A    
C50   C55   A    
C82   C90   S    
C16   O16   A    
C32   C33   A    
H10   O28   S    
C85   O43   A    
Cr6   O11   S    
C30   C32   A    
C4    O15   A    
C5    C6    A    
C27   C37   A    
C16   C19   S    
C65   C69   S    
C33   C35   A    
C3    C17   A    
Cr2   O12   S    
C10   C11   A    
H9    O27   S    
Cr6   O10   S    
C79   C80   S    
C18   O41   S    
C78   C84   S    
C62   O33   S    
C57   O29   S    
C20   C21   A    
C28   O19   A    
C68   C70   T    
C14   H23   S    
C22   C26   A    
C7    O38   S    
Cr4   O44   S    
Cr4   O5    S    
C14   C15   A    
C51   C53   A    
C62   C63   A    
C13   C14   A    
C25   H36   S    
H27   O39   S    
C34   C76   A    
C71   C81   T    
C54   C57   A    
