data_mof_unit_pretest_359.cif
_audit_creation_date              2012-12-10T18:57:09-0500
_audit_creation_method            fapswitch 2.2
_symmetry_space_group_name_H-M    P1
_symmetry_Int_Tables_number       1
_space_group_crystal_system       triclinic
_cell_length_a                    10.656105
_cell_length_b                    9.927779
_cell_length_c                    10.684262
_cell_angle_alpha                 89.941513
_cell_angle_beta                  91.619078
_cell_angle_gamma                 89.809066
_cell_volume                      1129.84539127

loop_
_atom_site_label
_atom_site_type_symbol
_atom_type_description
_atom_site_fract_x
_atom_site_fract_y
_atom_site_fract_z
_atom_type_partial_charge
C1    C     C_R   0.260535 0.500142 0.500841 0.960434
C2    C     C_R   0.739759 0.499833 0.502640 0.933018
C3    C     C_R   0.583497 0.069440 0.575331 0.286504
C4    C     C_R   0.415604 0.070383 0.425512 0.299532
C5    C     C_R   0.583549 0.925350 0.574304 0.450589
C6    C     C_R   0.415580 0.926218 0.426651 0.398961
C7    C     C_R   0.502736 0.500084 0.260257 0.911787
C8    C     C_R   0.503860 0.500042 0.739833 0.901875
C9    C     C_R   0.510052 0.622179 0.063759 0.021466
C10   C     C_R   0.512459 0.622533 0.936127 0.138351
C11   C     C_R   0.519747 0.501033 0.129059 -0.059307
C12   C     C_R   0.521972 0.501242 0.871843 -0.138565
C13   C     C_R   0.551971 0.382307 0.066336 -0.215698
C14   C     C_R   0.552867 0.382341 0.936832 -0.164656
C15   C     C_3   0.415559 0.731498 0.924244 0.155615
C16   C     C_3   0.412364 0.730950 0.066512 0.181421
C17   C     C_R   0.069617 0.416694 0.591801 0.341818
C18   C     C_R   0.938300 0.413199 0.589764 0.339502
C19   C     C_R   0.872661 0.500251 0.507456 -0.088526
C20   C     C_R   0.128341 0.500331 0.505659 -0.114107
C21   C     C_R   0.933346 0.588231 0.427689 -0.261890
C22   C     C_R   0.061741 0.587222 0.425795 -0.232574
N1    N     N_R   0.500000 0.857200 0.500000 -0.168735
N2    N     N_R   0.500000 0.142810 0.500000 -0.214910
O1    O     O_R   0.316770 0.614620 0.499990 -0.580727
O2    O     O_R   0.683230 0.614620 0.500010 -0.592691
O3    O     O_R   0.316800 0.385290 0.500000 -0.585855
O4    O     O_R   0.683200 0.385290 0.500000 -0.605796
O5    O     O_R   0.500000 0.614690 0.316780 -0.576088
O6    O     O_R   0.500000 0.614690 0.683220 -0.557886
O7    O     O_R   0.500020 0.385360 0.316780 -0.672006
O8    O     O_R   0.499980 0.385360 0.683220 -0.637339
Zn1   Zn    Zn3+2 0.500000 0.653120 0.500000 1.059951
Zn2   Zn    Zn3+2 0.500000 0.346880 0.500000 0.989174
H1    H     H_    0.568797 0.288531 0.116069 0.184345
H2    H     H_    0.569851 0.288522 0.888369 0.199730
O9    O     O_3   0.467574 0.850048 0.877419 -0.727846
H3    H     H_    0.397998 0.916676 0.873286 0.334669
O10   O     O_3   0.298017 0.682866 0.110104 -0.748332
H4    H     H_    0.238589 0.759813 0.103332 0.338800
H5    H     H_    0.327469 0.699382 0.874166 0.130040
H6    H     H_    0.446138 0.824690 0.113518 0.157588
O11   O     O_3   0.142598 0.345209 0.678136 -0.757528
H7    H     H_    0.094415 0.331979 0.755045 0.343207
O12   O     O_3   0.872340 0.329356 0.667126 -0.761916
H8    H     H_    0.922793 0.246994 0.683849 0.363098
H9    H     H_    0.881092 0.654652 0.364515 0.180804
H10   H     H_    0.109244 0.652719 0.361219 0.214200
O13   O     O_3   0.669192 0.131487 0.654336 -0.752733
H11   H     H_    0.650735 0.227765 0.655555 0.419178
O14   O     O_3   0.328053 0.133341 0.348297 -0.771799
H12   H     H_    0.347230 0.229323 0.344578 0.399290
O15   O     O_3   0.665749 0.850121 0.648449 -0.678596
H13   H     H_    0.721790 0.909987 0.698234 0.378805
O16   O     O_3   0.331811 0.851800 0.354354 -0.711476
H14   H     H_    0.274264 0.912205 0.306361 0.363829

loop_
_geom_bond_atom_site_label_1
_geom_bond_atom_site_label_2
_ccdc_geom_bond_type
N1    Zn1   S    
C22   H10   S    
O11   H7    S    
C17   O11   S    
O9    H3    S    
C7    O5    A    
C16   H6    S    
C11   C13   A    
C9    C10   A    
O2    Zn1   S    
C5    N1    A    
C6    O16   S    
C8    C12   S    
C8    O6    A    
C21   C22   A    
O16   H14   S    
C17   C18   A    
C3    O13   S    
O7    Zn2   S    
O4    Zn2   S    
C2    O2    A    
C13   C14   A    
C7    C11   S    
C9    C11   A    
C3    N2    A    
C10   C12   A    
C6    N1    A    
C5    O15   S    
C19   C21   A    
C9    C16   S    
C12   C14   A    
C13   H1    S    
C10   C15   S    
O3    Zn2   S    
C14   H2    S    
C4    N2    A    
N2    Zn2   S    
C7    O7    A    
C4    O14   S    
O14   H12   S    
C8    O8    A    
C18   O12   S    
O12   H8    S    
C17   C20   A    
C15   H5    S    
C4    C6    A    
O13   H11   S    
O1    Zn1   S    
O10   H4    S    
C1    O3    A    
C18   C19   A    
C1    C20   S    
C2    O4    A    
C16   O10   S    
O6    Zn1   S    
C21   H9    S    
C2    C19   S    
O15   H13   S    
C1    O1    A    
C15   O9    S    
C15   C16   S    
O5    Zn1   S    
C20   C22   A    
C3    C5    A    
O8    Zn2   S    
