data_mof_unit_pretest_1988.cif
_audit_creation_date              2012-12-10T19:19:52-0500
_audit_creation_method            fapswitch 2.2
_symmetry_space_group_name_H-M    P1
_symmetry_Int_Tables_number       1
_space_group_crystal_system       triclinic
_cell_length_a                    44.491547
_cell_length_b                    38.898492
_cell_length_c                    21.655041
_cell_angle_alpha                 90.000306
_cell_angle_beta                  60.720052
_cell_angle_gamma                 89.998936
_cell_volume                      32689.2927885

loop_
_atom_site_label
_atom_site_type_symbol
_atom_type_description
_atom_site_fract_x
_atom_site_fract_y
_atom_site_fract_z
_atom_type_partial_charge
C1    C     C_R   0.067045 0.499972 0.432966 1.004312
C2    C     C_R   0.623217 0.501816 0.820766 -0.201041
C3    C     C_R   0.567310 0.499935 0.932653 0.919054
C4    C     C_R   0.932690 0.999935 0.067346 0.919064
C5    C     C_R   0.067310 0.999934 0.932654 0.919061
C6    C     C_R   0.500000 0.566977 0.000000 0.825475
C7    C     C_R   1.000000 0.066977 0.000000 0.825480
C8    C     C_R   0.526162 0.622739 0.005861 0.405896
C9    C     C_R   0.473840 0.622741 0.994137 0.405883
C10   C     C_R   0.026156 0.122740 0.005885 0.405890
C11   C     C_R   0.973848 0.122743 0.994112 0.405887
C12   C     C_R   0.525318 0.658489 0.007254 -0.058282
C13   C     C_R   0.876784 0.001873 0.179226 -0.201108
C14   C     C_R   0.474687 0.658492 0.992742 -0.058237
C15   C     C_R   0.025311 0.158490 0.007279 -0.058284
C16   C     C_R   0.974695 0.158493 0.992715 -0.058275
C17   C     C_R   0.500003 0.676272 0.999998 0.069437
C18   C     C_R   0.000004 0.176273 0.999997 0.069466
C19   C     C_R   0.500001 0.604461 1.000000 -0.279395
C20   C     C_R   0.000001 0.104461 0.999999 -0.279409
C21   C     C_R   0.508284 0.731456 0.937014 0.339956
C22   C     C_R   0.491727 0.731457 0.062978 0.339957
C23   C     C_R   0.008313 0.231457 0.936999 0.339959
C24   C     C_R   0.123217 0.001710 0.820757 -0.200951
C25   C     C_R   0.991697 0.231457 0.062993 0.339966
C26   C     C_R   0.004165 0.499623 0.681445 -0.245528
C27   C     C_R   0.995836 0.499623 0.318554 -0.245509
C28   C     C_R   0.504163 0.999624 0.681446 -0.245522
C29   C     C_R   0.495838 0.999624 0.318553 -0.245506
C30   C     C_R   0.008627 0.267688 0.936877 0.249787
C31   C     C_R   0.991382 0.267689 0.063115 0.249789
C32   C     C_R   0.508601 0.767687 0.936890 0.249792
C33   C     C_R   0.491410 0.767688 0.063102 0.249796
C34   C     C_R   0.000004 0.285489 0.999997 -0.159790
C35   C     C_R   0.340940 0.502302 0.215255 0.386319
C36   C     C_R   0.500005 0.785489 0.999996 -0.159785
C37   C     C_R   0.500004 0.713867 0.999997 -0.092730
C38   C     C_R   0.000005 0.213867 0.999996 -0.092741
C39   C     C_R   0.026572 0.340845 0.002657 -0.168451
C40   C     C_R   0.973434 0.340844 0.997338 -0.168446
C41   C     C_R   0.526580 0.840844 0.002626 -0.168474
C42   C     C_R   0.473427 0.840843 0.997368 -0.168445
C43   C     C_R   0.026792 0.376850 0.003042 0.386211
C44   C     C_R   0.973211 0.376849 0.996955 0.386218
C45   C     C_R   0.526800 0.876849 0.003013 0.386220
C46   C     C_R   0.659063 0.502101 0.784718 0.386297
C47   C     C_R   0.473204 0.876849 0.996984 0.386221
C48   C     C_R   0.000001 0.394915 0.999999 -0.135461
C49   C     C_R   0.500001 0.894915 0.999999 -0.135491
C50   C     C_R   0.000003 0.323083 0.999997 0.167161
C51   C     C_R   0.500004 0.823082 0.999997 0.167153
C52   C     C_R   0.527341 0.377825 0.000337 0.322796
C53   C     C_R   0.472649 0.377831 0.999672 0.322807
C54   C     C_R   0.027341 0.877825 0.000342 0.322798
C55   C     C_R   0.972651 0.877830 0.999665 0.322808
C56   C     C_R   0.527734 0.341997 0.999897 0.461929
C57   C     C_R   0.840939 0.002159 0.215273 0.386318
C58   C     C_R   0.472250 0.342003 0.000117 0.461942
C59   C     C_R   0.027733 0.841997 0.999905 0.461922
C60   C     C_R   0.972253 0.842002 0.000106 0.461931
C61   C     C_R   0.499991 0.323947 0.000008 -0.101359
C62   C     C_R   0.999992 0.823946 0.000006 -0.101331
C63   C     C_R   0.022142 0.473284 0.695875 0.472797
C64   C     C_R   0.977850 0.473291 0.304134 0.472863
C65   C     C_R   0.522156 0.973295 0.695859 0.472799
C66   C     C_R   0.477835 0.973303 0.304151 0.472858
C67   C     C_R   0.499997 0.395626 0.000003 -0.422561
C68   C     C_R   0.159063 0.001991 0.784709 0.386307
C69   C     C_R   0.999997 0.895626 0.000002 -0.422568
C70   C     C_R   0.487488 0.268911 0.064640 0.340644
C71   C     C_R   0.512489 0.268913 0.935369 0.340662
C72   C     C_R   0.987468 0.768911 0.064643 0.340640
C73   C     C_R   0.012512 0.768912 0.935362 0.340652
C74   C     C_R   0.987569 0.732740 0.064584 0.302305
C75   C     C_R   0.012412 0.732741 0.935416 0.302307
C76   C     C_R   0.487589 0.232741 0.064580 0.302304
C77   C     C_R   0.512390 0.232742 0.935422 0.302307
C78   C     C_R   0.999991 0.715061 0.999999 -0.071438
C79   C     C_R   0.322998 0.500492 0.176974 -0.104338
C80   C     C_R   0.499990 0.215062 1.000000 -0.071434
C81   C     C_R   0.499989 0.286367 0.000006 -0.151932
C82   C     C_R   0.999991 0.786366 0.000004 -0.151934
C83   C     C_R   0.029051 0.659811 0.992085 0.395614
C84   C     C_R   0.970939 0.659808 0.007904 0.395632
C85   C     C_R   0.529059 0.159813 0.992043 0.395593
C86   C     C_R   0.470931 0.159809 0.007945 0.395612
C87   C     C_R   0.029303 0.623882 0.991969 0.336890
C88   C     C_R   0.970692 0.623880 0.008017 0.336868
C89   C     C_R   0.529311 0.123884 0.991927 0.336898
C90   C     C_R   0.677003 0.500502 0.823023 -0.104335
C91   C     C_R   0.470684 0.123881 0.008058 0.336873
C92   C     C_R   0.999998 0.605415 0.999995 -0.354485
C93   C     C_R   0.499998 0.105416 0.999995 -0.354536
C94   C     C_R   0.999994 0.677497 0.999996 -0.109526
C95   C     C_R   0.499993 0.177498 0.999996 -0.109523
C96   C     C_R   0.019446 0.471459 0.763297 0.447132
C97   C     C_R   0.980545 0.471465 0.236713 0.447144
C98   C     C_R   0.519462 0.971469 0.763279 0.447138
C99   C     C_R   0.480528 0.971476 0.236731 0.447146
C100  C     C_R   0.000611 0.497293 0.814188 -0.225417
C101  C     C_R   0.822998 0.000502 0.176973 -0.104349
C102  C     C_R   0.999389 0.497291 0.185812 -0.225453
C103  C     C_R   0.500611 0.997291 0.814187 -0.225466
C104  C     C_R   0.499389 0.997289 0.185813 -0.225502
C105  C     C_R   0.985025 0.523036 0.796239 -0.137096
C106  C     C_R   0.014986 0.523027 0.203751 -0.137081
C107  C     C_R   0.485007 0.023023 0.796256 -0.137069
C108  C     C_R   0.515004 0.023014 0.203734 -0.137054
C109  C     C_3   0.964077 0.554992 0.823256 0.167962
C110  C     C_3   0.035949 0.554972 0.176721 0.168007
C111  C     C_3   0.464035 0.054963 0.823298 0.167990
C112  C     C_R   0.932955 0.499973 0.567032 1.004380
C113  C     C_R   0.177003 0.000496 0.823024 -0.104341
C114  C     C_3   0.535991 0.054943 0.176679 0.168035
C115  C     C_R   0.341148 0.498330 0.102687 0.381460
C116  C     C_R   0.658852 0.498547 0.897335 0.381541
C117  C     C_R   0.841148 0.998489 0.102669 0.381518
C118  C     C_R   0.158852 0.998646 0.897346 0.381577
C119  C     C_R   0.376975 0.498117 0.067192 -0.163642
C120  C     C_R   0.623026 0.498327 0.932829 -0.163938
C121  C     C_R   0.876975 0.998270 0.067175 -0.163858
C122  C     C_R   0.123025 0.998426 0.932841 -0.164081
C123  C     C_R   0.394992 0.499995 0.105108 -0.173093
C124  C     C_R   0.567045 0.999972 0.432967 1.004315
C125  C     C_R   0.605009 0.499999 0.894890 -0.173008
C126  C     C_R   0.894991 0.999998 0.105108 -0.173032
C127  C     C_R   0.105009 0.999997 0.894892 -0.172967
C128  C     C_R   0.267981 0.530265 0.211513 -0.199859
C129  C     C_R   0.732014 0.530369 0.788088 -0.199855
C130  C     C_R   0.767985 0.030348 0.211821 -0.199853
C131  C     C_R   0.232008 0.030415 0.787874 -0.199855
C132  C     C_R   0.231876 0.530705 0.246641 0.520088
C133  C     C_R   0.768118 0.530818 0.752962 0.520375
C134  C     C_R   0.731881 0.030795 0.246945 0.520386
C135  C     C_R   0.432955 0.999973 0.567032 1.004372
C136  C     C_R   0.268112 0.030870 0.752751 0.520601
C137  C     C_R   0.213884 0.501365 0.284449 0.089433
C138  C     C_R   0.786117 0.501397 0.715553 0.089408
C139  C     C_R   0.713885 0.001391 0.284438 0.089409
C140  C     C_R   0.286115 0.001405 0.715561 0.089390
C141  C     C_R   0.001472 0.499940 0.618480 0.925965
C142  C     C_R   0.998529 0.499940 0.381520 0.925967
C143  C     C_R   0.501471 0.999940 0.618481 0.925943
C144  C     C_R   0.498530 0.999940 0.381518 0.925941
C145  C     C_R   0.231487 0.472120 0.287237 -0.202757
C146  C     C_3   0.965341 0.556117 0.750279 0.756145
C147  C     C_R   0.768519 0.472064 0.713159 -0.203067
C148  C     C_R   0.731485 0.972077 0.286916 -0.203079
C149  C     C_R   0.268520 0.972024 0.713383 -0.203310
C150  C     C_R   0.267246 0.471882 0.252180 -0.059297
C151  C     C_R   0.732760 0.471818 0.748213 -0.059294
C152  C     C_R   0.767244 0.971833 0.251864 -0.059297
C153  C     C_R   0.232761 0.971773 0.748435 -0.059290
C154  C     C_R   0.285449 0.500914 0.214352 0.128812
C155  C     C_R   0.714552 0.500929 0.785644 0.128817
C156  C     C_R   0.785450 0.000928 0.214351 0.128832
C157  C     C_3   0.034685 0.556098 0.249698 0.756130
C158  C     C_R   0.214550 0.000928 0.785645 0.128834
C159  C     C_R   0.158163 0.485994 0.289618 0.408838
C160  C     C_R   0.841838 0.486064 0.710427 0.408404
C161  C     C_R   0.658164 0.986017 0.289606 0.408396
C162  C     C_R   0.341837 0.986069 0.710429 0.408081
C163  C     C_R   0.122213 0.485542 0.327101 0.357453
C164  C     C_R   0.877787 0.485588 0.672930 0.357532
C165  C     C_R   0.622214 0.985545 0.327103 0.357575
C166  C     C_R   0.377787 0.985581 0.672923 0.357632
C167  C     C_R   0.104447 0.500025 0.395132 -0.370052
C168  C     C_3   0.465299 0.056090 0.750320 0.756112
C169  C     C_R   0.895555 0.500030 0.604863 -0.370030
C170  C     C_R   0.604446 0.000027 0.395134 -0.370067
C171  C     C_R   0.395555 0.000031 0.604863 -0.370042
C172  C     C_R   0.122422 0.514906 0.426615 0.271204
C173  C     C_R   0.877582 0.514884 0.573349 0.271084
C174  C     C_R   0.622420 0.014920 0.426610 0.271111
C175  C     C_R   0.377582 0.014898 0.573360 0.271020
C176  C     C_R   0.158417 0.515296 0.389774 0.398760
C177  C     C_R   0.841587 0.515287 0.610192 0.399225
C178  C     C_R   0.658414 0.015321 0.389764 0.399182
C179  C     C_3   0.534728 0.056070 0.249656 0.756096
C180  C     C_R   0.341588 0.015305 0.610205 0.399533
C181  C     C_R   0.176282 0.500949 0.321488 -0.220219
C182  C     C_R   0.823720 0.500987 0.678523 -0.220213
C183  C     C_R   0.676282 0.000980 0.321471 -0.220206
C184  C     C_R   0.323719 0.001002 0.678534 -0.220209
C185  C     C_R   0.000000 0.432639 1.000000 0.909839
C186  C     C_R   0.500000 0.932639 1.000000 0.909812
C187  C     C_R   0.986965 0.524333 0.732569 -0.106278
C188  C     C_R   0.013046 0.524325 0.267421 -0.106334
C189  C     C_R   0.486946 0.024322 0.732587 -0.106287
C190  C     C_R   0.376786 0.502016 0.179208 -0.201241
C191  C     C_R   0.513065 0.024314 0.267403 -0.106338
C192  C     C_R   0.000054 0.499292 0.880075 0.912716
C193  C     C_R   0.999946 0.499290 0.119925 0.912730
C194  C     C_R   0.500054 0.999290 0.880075 0.912715
C195  C     C_R   0.499945 0.999289 0.119925 0.912729
C196  C     C_R   1.000000 0.567388 0.999999 1.038922
C197  C     C_R   0.499999 0.067388 0.999998 1.038913
C198  C     C_R   0.500000 0.432894 0.000000 1.044871
C199  C     C_R   1.000000 0.932894 0.000000 1.044865
C200  C     C_R   0.432691 0.499934 0.067346 0.919055
Cl1   Cl    Cl    0.099644 0.467820 0.286358 -0.474293
Cl2   Cl    Cl    0.818796 0.533381 0.570199 -0.378419
Cl3   Cl    Cl    0.681206 0.033468 0.429707 -0.378419
Cl4   Cl    Cl    0.318799 0.033398 0.570206 -0.378365
Cl5   Cl    Cl    0.020801 0.291206 0.857983 -0.518096
Cl6   Cl    Cl    0.979208 0.291208 0.142011 -0.518073
Cl7   Cl    Cl    0.520748 0.791205 0.858006 -0.518101
Cl8   Cl    Cl    0.479259 0.791206 0.141988 -0.518063
Cl9   Cl    Cl    0.562462 0.400178 0.998239 -0.448103
Cl10  Cl    Cl    0.437531 0.400191 0.001768 -0.448200
Cl11  Cl    Cl    0.062460 0.900178 0.998249 -0.448058
Cl12  Cl    Cl    0.900355 0.467894 0.713700 -0.474408
Cl13  Cl    Cl    0.937534 0.900190 0.001757 -0.448133
Cl14  Cl    Cl    0.972432 0.709048 0.144250 -0.430592
Cl15  Cl    Cl    0.027550 0.709050 0.855747 -0.430544
Cl16  Cl    Cl    0.472478 0.209048 0.144239 -0.430607
Cl17  Cl    Cl    0.527502 0.209052 0.855760 -0.430559
Cl18  Cl    Cl    0.065301 0.683081 0.982659 -0.376108
Cl19  Cl    Cl    0.934687 0.683075 0.017330 -0.376108
Cl20  Cl    Cl    0.565318 0.183083 0.982562 -0.376107
Cl21  Cl    Cl    0.434668 0.183076 0.017426 -0.376104
Cl22  Cl    Cl    0.066645 0.603278 0.983814 -0.384089
Cl23  Cl    Cl    0.599648 0.967805 0.286371 -0.474309
Cl24  Cl    Cl    0.933356 0.603271 0.016158 -0.384159
Cl25  Cl    Cl    0.566664 0.103281 0.983718 -0.383980
Cl26  Cl    Cl    0.433336 0.103274 0.016252 -0.384053
Cl27  Cl    Cl    0.988032 0.587768 0.838149 -0.421170
Cl28  Cl    Cl    0.012008 0.587761 0.161815 -0.421139
Cl29  Cl    Cl    0.487964 0.087758 0.838218 -0.421156
Cl30  Cl    Cl    0.512077 0.087750 0.161745 -0.421124
Cl31  Cl    Cl    0.987862 0.591508 0.693608 -0.328054
Cl32  Cl    Cl    0.012180 0.591500 0.306354 -0.328085
Cl33  Cl    Cl    0.487794 0.091498 0.693677 -0.328088
Cl34  Cl    Cl    0.400353 0.967871 0.713680 -0.474404
Cl35  Cl    Cl    0.512250 0.091490 0.306284 -0.328122
Cl36  Cl    Cl    0.319288 0.505754 0.308279 -0.483490
Cl37  Cl    Cl    0.680720 0.505282 0.691652 -0.483503
Cl38  Cl    Cl    0.819283 0.005415 0.308327 -0.483501
Cl39  Cl    Cl    0.180720 0.005034 0.691625 -0.483512
Cl40  Cl    Cl    0.319772 0.495156 0.052582 -0.501390
Cl41  Cl    Cl    0.680227 0.495649 0.947481 -0.501463
Cl42  Cl    Cl    0.819772 0.995516 0.052536 -0.501434
Cl43  Cl    Cl    0.180228 0.995886 0.947507 -0.501491
Cl44  Cl    Cl    0.099891 0.531995 0.513378 -0.447119
Cl45  Cl    Cl    0.900117 0.531923 0.486546 -0.447292
Cl46  Cl    Cl    0.599887 0.032007 0.513374 -0.447118
Cl47  Cl    Cl    0.400118 0.031944 0.486562 -0.447268
Cl48  Cl    Cl    0.181213 0.533451 0.429699 -0.378495
H1    H     H_    0.390655 0.496360 0.009957 0.219596
H2    H     H_    0.782561 0.449444 0.684245 0.193706
H3    H     H_    0.717445 0.949471 0.315895 0.193703
H4    H     H_    0.282564 0.949371 0.684640 0.193771
H5    H     H_    0.280781 0.449133 0.254227 0.184988
H6    H     H_    0.719228 0.449001 0.746474 0.185021
H7    H     H_    0.780777 0.949031 0.253668 0.185007
H8    H     H_    0.219232 0.948920 0.746866 0.185037
H9    H     H_    0.545081 0.672552 0.012166 0.192899
H10   H     H_    0.454925 0.672557 0.987830 0.192906
H11   H     H_    0.045068 0.172553 0.012211 0.192893
H12   H     H_    0.609345 0.496733 0.990086 0.219495
H13   H     H_    0.954939 0.172558 0.987782 0.192891
H14   H     H_    0.046931 0.326555 0.004902 0.170954
H15   H     H_    0.953076 0.326554 0.995092 0.170954
H16   H     H_    0.546945 0.826554 0.004848 0.170955
H17   H     H_    0.453063 0.826553 0.995146 0.170963
H18   H     H_    0.938158 0.550035 0.869250 0.148353
H19   H     H_    0.061866 0.550003 0.130730 0.148327
H20   H     H_    0.438119 0.049988 0.869286 0.148312
H21   H     H_    0.561905 0.049955 0.130693 0.148285
H22   H     H_    0.390331 0.503592 0.209242 0.213591
H23   H     H_    0.890655 0.996630 0.009925 0.219525
H24   H     H_    0.609674 0.503227 0.790708 0.213609
H25   H     H_    0.890328 0.003328 0.209276 0.213606
H26   H     H_    0.109674 0.003037 0.790692 0.213620
H27   H     H_    0.051621 0.459351 0.598325 0.344225
H28   H     H_    0.948371 0.459366 0.401690 0.344278
H29   H     H_    0.551635 0.959375 0.598298 0.344226
H30   H     H_    0.448357 0.959391 0.401717 0.344271
H31   H     H_    0.230261 0.577324 0.216037 0.359395
H32   H     H_    0.769723 0.577576 0.782920 0.359396
H33   H     H_    0.730272 0.077524 0.216853 0.359399
H34   H     H_    0.109345 0.996917 0.990106 0.219446
H35   H     H_    0.269711 0.077703 0.782358 0.359401
H36   H     H_    0.199521 0.475211 0.199480 0.357627
H37   H     H_    0.800489 0.475436 0.800685 0.357673
H38   H     H_    0.699513 0.975339 0.199383 0.357672
H39   H     H_    0.300496 0.975505 0.800740 0.357703
H40   H     H_    0.555743 0.583063 0.992236 0.340005
H41   H     H_    0.444259 0.583068 0.007760 0.340029
H42   H     H_    0.055737 0.083066 0.992267 0.339999
H43   H     H_    0.944264 0.083072 0.007729 0.340018
H44   H     H_    0.026671 0.442198 0.828156 0.327375
H45   H     H_    0.282494 0.552561 0.181951 0.166676
H46   H     H_    0.973313 0.442204 0.171863 0.327380
H47   H     H_    0.526699 0.942207 0.828121 0.327380
H48   H     H_    0.473285 0.942213 0.171899 0.327386
H49   H     H_    0.519852 0.727199 0.837508 0.403905
H50   H     H_    0.480185 0.727201 0.162467 0.403901
H51   H     H_    0.019936 0.227200 0.837460 0.403907
H52   H     H_    0.980074 0.227201 0.162532 0.403912
H53   H     H_    0.068845 0.378238 0.009940 0.360050
H54   H     H_    0.931159 0.378237 0.990057 0.360052
H55   H     H_    0.568866 0.878237 0.009863 0.360044
H56   H     H_    0.717495 0.552726 0.817344 0.166631
H57   H     H_    0.431138 0.878235 0.990134 0.360048
H58   H     H_    0.554272 0.300685 0.995278 0.363901
H59   H     H_    0.445705 0.300697 0.004747 0.363899
H60   H     H_    0.054260 0.800684 0.995335 0.363905
H61   H     H_    0.945721 0.800694 0.004682 0.363902
H62   H     H_    0.467277 0.273229 0.167631 0.406921
H63   H     H_    0.532699 0.273233 0.832378 0.406925
H64   H     H_    0.967223 0.773229 0.167642 0.406924
H65   H     H_    0.032755 0.773232 0.832365 0.406927
H66   H     H_    0.922654 0.529547 0.782965 0.339897
H67   H     H_    0.782502 0.052693 0.182501 0.166627
H68   H     H_    0.077358 0.529504 0.217029 0.339867
H69   H     H_    0.422631 0.029490 0.782988 0.339901
H70   H     H_    0.577381 0.029445 0.217006 0.339877
H71   H     H_    0.217487 0.052804 0.816963 0.166595
H72   H     H_    0.217449 0.449563 0.316461 0.193622
O1    O     O_R   0.050900 0.528720 0.449120 -0.564695
O2    O     O_R   0.550940 0.499970 0.000810 -0.608343
O3    O     O_R   0.949060 0.999970 0.999190 -0.608351
O4    O     O_R   0.050940 0.999970 0.000810 -0.608325
O5    O     O_R   0.500010 0.550820 0.051820 -0.597656
O6    O     O_R   0.499990 0.550820 0.948180 -0.597629
O7    O     O_R   0.000010 0.050820 0.051820 -0.597648
O8    O     O_R   0.999990 0.050820 0.948180 -0.597626
O9    O     O_R   0.050870 0.471230 0.449150 -0.603526
O10   O     O_R   0.949130 0.471230 0.550850 -0.603519
O11   O     O_R   0.550870 0.971230 0.449150 -0.603499
O12   O     O_R   0.949100 0.528720 0.550880 -0.564753
O13   O     O_R   0.449130 0.971230 0.550850 -0.603498
O14   O     O_R   1.000000 0.528720 0.591610 -0.560493
O15   O     O_R   1.000000 0.528720 0.408390 -0.560495
O16   O     O_R   0.500000 0.028720 0.591610 -0.560492
O17   O     O_R   0.500000 0.028720 0.408390 -0.560495
O18   O     O_R   0.999960 0.471230 0.591650 -0.609836
O19   O     O_R   0.000040 0.471230 0.408350 -0.609838
O20   O     O_R   0.499960 0.971230 0.591650 -0.609838
O21   O     O_R   0.500040 0.971230 0.408350 -0.609841
O22   O     O_R   0.971240 0.449020 0.028740 -0.578859
O23   O     O_R   0.550900 0.028720 0.449120 -0.564709
O24   O     O_R   0.028760 0.449020 0.971260 -0.578867
O25   O     O_R   0.471240 0.949020 0.028740 -0.578846
O26   O     O_R   0.528760 0.949020 0.971260 -0.578856
O27   O     O_R   0.971230 0.499930 0.937140 -0.602030
O28   O     O_R   0.028770 0.499930 0.062860 -0.602035
O29   O     O_R   0.471230 0.999930 0.937140 -0.602034
O30   O     O_R   0.528770 0.999930 0.062860 -0.602040
O31   O     O_R   0.028710 0.499970 0.879680 -0.601830
O32   O     O_R   0.971290 0.499970 0.120320 -0.601824
O33   O     O_R   0.528710 0.999970 0.879680 -0.601835
O34   O     O_R   0.449100 0.028720 0.550880 -0.564757
O35   O     O_R   0.471290 0.999970 0.120320 -0.601830
O36   O     O_R   0.971230 0.550840 0.028760 -0.567216
O37   O     O_R   0.028770 0.550840 0.971240 -0.567201
O38   O     O_R   0.471230 0.050840 0.028760 -0.567205
O39   O     O_R   0.528770 0.050840 0.971240 -0.567188
O40   O     O_R   0.499940 0.449000 0.051660 -0.581085
O41   O     O_R   0.500060 0.449000 0.948340 -0.581121
O42   O     O_R   0.999940 0.949000 0.051660 -0.581085
O43   O     O_R   0.000060 0.949000 0.948340 -0.581112
O44   O     O_3   0.042632 0.449232 0.646098 -0.644857
O45   O     O_R   0.449070 0.499910 0.102620 -0.619579
O46   O     O_3   0.957352 0.449247 0.353919 -0.644812
O47   O     O_3   0.542660 0.949255 0.646066 -0.644844
O48   O     O_3   0.457323 0.949271 0.353952 -0.644810
O49   O     O_3   0.213706 0.559108 0.244777 -0.693493
O50   O     O_3   0.786281 0.559307 0.754449 -0.693441
O51   O     O_3   0.713716 0.059266 0.245377 -0.693438
O52   O     O_3   0.286272 0.059406 0.754034 -0.693404
O53   O     O_3   0.174324 0.471817 0.222377 -0.647205
O54   O     O_3   0.825674 0.471944 0.777717 -0.647305
O55   O     O_3   0.674327 0.971854 0.222354 -0.647306
O56   O     O_R   0.550930 0.499910 0.897380 -0.619621
O57   O     O_3   0.325674 0.971950 0.777720 -0.647378
O58   O     O_3   0.553242 0.607060 0.009094 -0.707912
O59   O     O_3   0.446760 0.607066 0.990905 -0.707909
O60   O     O_3   0.053230 0.107061 0.009141 -0.707899
O61   O     O_3   0.946773 0.107067 0.990857 -0.707900
O62   O     O_3   0.035677 0.444428 0.776555 -0.651077
O63   O     O_3   0.964304 0.444441 0.223464 -0.651042
O64   O     O_3   0.535709 0.944448 0.776520 -0.651057
O65   O     O_3   0.464271 0.944461 0.223500 -0.651026
O66   O     O_3   0.516471 0.712150 0.877105 -0.705402
O67   O     O_R   0.949070 0.999910 0.102620 -0.619614
O68   O     O_3   0.483541 0.712152 0.122887 -0.705369
O69   O     O_3   0.016527 0.212150 0.877077 -0.705403
O70   O     O_3   0.983483 0.212151 0.122915 -0.705385
O71   O     O_3   0.052375 0.394773 0.007933 -0.708723
O72   O     O_3   0.947628 0.394773 0.992065 -0.708712
O73   O     O_3   0.552391 0.894772 0.007876 -0.708709
O74   O     O_3   0.447612 0.894771 0.992123 -0.708695
O75   O     O_3   0.555693 0.325872 0.999055 -0.628899
O76   O     O_3   0.444288 0.325883 0.000961 -0.628881
O77   O     O_3   0.055690 0.825872 0.999075 -0.628915
O78   O     O_R   0.050930 0.999910 0.897380 -0.619649
O79   O     O_3   0.944295 0.825882 0.000937 -0.628903
O80   O     O_3   0.475586 0.288310 0.125781 -0.681982
O81   O     O_3   0.524390 0.288313 0.874231 -0.681969
O82   O     O_3   0.975547 0.788310 0.125789 -0.681984
O83   O     O_3   0.024433 0.788312 0.874219 -0.681971
O84   O     O_3   0.933237 0.550447 0.754016 -0.702144
O85   O     O_3   0.066786 0.550411 0.245963 -0.702160
O86   O     O_3   0.433199 0.050396 0.754051 -0.702182
O87   O     O_3   0.566824 0.050360 0.245927 -0.702203
O88   O     O_R   0.449060 0.499970 0.999190 -0.608376
Zn1   Zn    Zn3+2 1.000000 0.538360 0.500000 1.228675
Zn2   Zn    Zn3+2 0.500020 0.499890 0.930920 1.093485
Zn3   Zn    Zn3+2 0.999980 0.999890 0.069080 1.093532
Zn4   Zn    Zn3+2 0.000020 0.999890 0.930920 1.093505
Zn5   Zn    Zn3+2 0.500000 0.038360 0.500000 1.228653
Zn6   Zn    Zn3+2 1.000000 0.461590 0.500000 1.127020
Zn7   Zn    Zn3+2 0.500000 0.961590 0.500000 1.127045
Zn8   Zn    Zn3+2 0.961590 0.499920 0.038380 1.149117
Zn9   Zn    Zn3+2 0.038410 0.499920 0.961620 1.149091
Zn10  Zn    Zn3+2 0.461590 0.999920 0.038380 1.149122
Zn11  Zn    Zn3+2 0.538410 0.999920 0.961620 1.149098
Zn12  Zn    Zn3+2 0.499980 0.499890 0.069080 1.093520

loop_
_geom_bond_atom_site_label_1
_geom_bond_atom_site_label_2
_ccdc_geom_bond_type
C33   Cl8   S    
C185  O24   A    
C136  C140  A    
O4    Zn3   S    
C8    O58   S    
H46   O63   S    
C109  Cl27  S    
C96   O62   S    
C25   O70   S    
C174  Cl46  S    
C71   O81   S    
C3    O2    A    
H38   O55   S    
C1    C167  S    
O24   Zn9   S    
C33   C36   A    
C60   C62   A    
C199  O42   A    
C149  C153  A    
C9    C19   A    
C49   C186  S    
C152  C156  A    
C10   C20   A    
C24   C127  A    
O5    Zn12  S    
C108  C191  A    
C151  C155  A    
C70   O80   S    
O43   Zn4   S    
C13   H25   S    
C146  Cl31  S    
C1    O9    A    
C58   C61   A    
C175  Cl47  S    
O41   Zn2   S    
H57   O74   S    
C74   Cl14  S    
C73   C75   A    
C5    O78   A    
C130  C134  A    
C194  O33   A    
C110  H19   S    
C11   C20   A    
H53   O71   S    
C179  O87   S    
C146  C187  S    
C130  C156  A    
C83   Cl18  S    
H58   O75   S    
C132  C137  A    
C120  H12   S    
C29   C144  S    
C63   C96   A    
C39   H14   S    
C193  O32   A    
C131  C158  A    
C23   C30   A    
C112  C169  S    
O38   Zn10  S    
H55   O73   S    
C159  C181  A    
C110  C157  S    
C142  O19   A    
C73   O83   S    
C129  C133  A    
C64   C97   A    
O32   Zn8   S    
O88   Zn2   S    
C35   C190  A    
C197  O39   A    
C114  H21   S    
C196  O37   A    
C165  Cl23  S    
C170  C174  A    
C163  Cl1   S    
C84   C88   A    
C92   C196  S    
O45   Zn12  S    
C53   C58   A    
C119  C123  A    
O67   Zn3   S    
C18   C38   S    
C110  Cl28  S    
C77   Cl17  S    
O16   Zn5   S    
O29   Zn10  S    
C164  Cl12  S    
C5    O4    A    
C98   O64   S    
C104  C195  S    
C146  O84   S    
C144  O21   A    
C138  C182  S    
C27   C64   A    
H54   O72   S    
C179  C191  S    
O42   Zn3   S    
C56   O75   S    
C41   C45   A    
C141  O14   A    
H50   O68   S    
O21   Zn7   S    
O22   Zn8   S    
C41   C51   A    
C161  C165  A    
C177  C182  A    
C168  Cl33  S    
C25   C31   A    
C15   C18   A    
C147  H2    S    
C143  O20   A    
C79   C115  A    
C186  O26   A    
C93   C197  S    
C67   C198  S    
C28   C189  A    
C45   O73   S    
C176  Cl48  S    
C24   H26   S    
C43   O71   S    
C6    C19   S    
C32   C36   A    
C78   C94   S    
H36   O53   S    
H33   O51   S    
C186  O25   A    
H66   O84   S    
H63   O81   S    
C137  C181  S    
C136  O52   S    
C108  C114  S    
C157  C188  S    
C118  C122  A    
C75   Cl15  S    
C153  C158  A    
C6    O6    A    
C192  O27   A    
C53   Cl10  S    
C88   Cl24  S    
C103  C194  S    
C199  O43   A    
H69   O86   S    
C145  C150  A    
C8    C12   A    
H35   O52   S    
C149  H4    S    
C178  Cl3   S    
C14   C17   A    
C100  C192  S    
C190  H22   S    
C72   O82   S    
C54   C59   A    
C198  O40   A    
C139  C148  A    
C8    C19   A    
C3    O56   A    
C30   C34   A    
H39   O57   S    
C131  C136  A    
C86   C95   A    
C134  C139  A    
C24   C68   A    
C30   Cl5   S    
C116  C120  A    
H61   O79   S    
C147  C151  A    
C26   C63   A    
C25   C38   A    
H31   O49   S    
O35   Zn10  S    
O36   Zn8   S    
O34   Zn5   S    
C97   O63   S    
C31   C34   A    
C21   C37   A    
C123  C190  A    
O27   Zn8   S    
C55   C69   A    
C52   C67   A    
C16   H13   S    
C114  C179  S    
C90   C116  A    
H65   O83   S    
C91   Cl26  S    
C7    O7    A    
C111  Cl29  S    
C12   H9    S    
C157  O85   S    
O25   Zn10  S    
C71   C77   A    
O11   Zn7   S    
C174  C178  A    
C65   O47   S    
O6    Zn2   S    
C107  C111  S    
C41   H16   S    
C148  C152  A    
C55   Cl13  S    
C103  C107  A    
C196  O36   A    
C175  C180  A    
C128  C154  A    
C2    H24   S    
C10   O60   S    
C4    C126  S    
O37   Zn9   S    
C48   C185  S    
C61   C81   S    
C142  O15   A    
H59   O76   S    
C85   C95   A    
C194  O29   A    
C96   C100  A    
C35   C79   A    
C4    O67   A    
H68   O85   S    
C89   C93   A    
C53   C67   A    
C23   O69   S    
C2    C125  A    
C44   C48   A    
C40   C44   A    
C172  Cl44  S    
H41   O59   S    
C169  C173  A    
O78   Zn4   S    
C55   C60   A    
C140  C149  A    
C172  C176  A    
C71   C81   A    
C166  Cl34  S    
C83   C87   A    
H48   O65   S    
O8    Zn4   S    
C131  H71   S    
C64   O46   S    
C139  C183  S    
C129  H56   S    
C140  C184  S    
C160  C164  A    
C137  C145  A    
C144  O17   A    
C85   Cl20  S    
C65   C98   A    
C86   C91   A    
C119  H1    S    
O18   Zn6   S    
C40   H15   S    
C98   C103  A    
O12   Zn1   S    
C47   O74   S    
C46   Cl37  S    
C58   O76   S    
H51   O69   S    
O1    Zn1   S    
C22   O68   S    
C162  C166  A    
C12   C17   A    
C4    O3    A    
C180  C184  A    
C86   Cl21  S    
C135  C171  S    
C133  O50   S    
C26   C141  S    
C121  H23   S    
C178  C183  A    
C68   C113  A    
C117  Cl42  S    
C99   C104  A    
C62   C82   S    
C133  C138  A    
C87   C92   A    
C176  C181  A    
C9    O59   S    
O20   Zn7   S    
C128  H45   S    
C21   O66   S    
C76   C80   A    
C72   C74   A    
C14   H10   S    
C129  C155  A    
C85   C89   A    
C150  H5    S    
C101  C156  S    
C66   O48   S    
C22   C37   A    
C168  C189  S    
O23   Zn5   S    
C115  C119  A    
O3    Zn4   S    
C161  C183  A    
C9    C14   A    
C162  C184  A    
C91   C93   A    
C11   C16   A    
C76   Cl16  S    
C45   C49   A    
C80   C95   S    
C107  C189  A    
C3    C125  S    
O2    Zn12  S    
C28   C143  S    
C84   C94   A    
C42   H17   S    
C122  H34   S    
O13   Zn7   S    
C151  H6    S    
H28   O46   S    
C13   C126  A    
H30   O48   S    
C60   O79   S    
C52   Cl9   S    
C102  C193  S    
C73   C82   A    
C104  C108  A    
C197  O38   A    
C77   C80   A    
C173  Cl45  S    
C165  C170  A    
C116  Cl41  S    
C148  H3    S    
H42   O60   S    
H47   O64   S    
C120  C125  A    
O39   Zn11  S    
H44   O62   S    
C143  O16   A    
C89   Cl25  S    
C180  Cl4   S    
C68   Cl39  S    
C152  H7    S    
C1    O1    A    
O14   Zn1   S    
C167  C172  A    
C46   C90   A    
C23   C38   A    
H37   O54   S    
C101  C117  A    
C28   C65   A    
C63   O44   S    
C83   C94   A    
C115  Cl40  S    
C54   C69   A    
C105  C109  S    
C40   C50   A    
O9    Zn6   S    
C27   C188  A    
H27   O44   S    
C99   O65   S    
C13   C57   A    
C7    C20   S    
C74   C78   A    
C56   C61   A    
C111  C168  S    
O30   Zn11  S    
C160  O54   S    
C200  O88   A    
O28   Zn9   S    
H62   O80   S    
H32   O50   S    
C195  O30   A    
C109  C146  S    
C47   C49   A    
C2    C46   A    
C100  C105  A    
C111  H20   S    
C10   C15   A    
O31   Zn9   S    
H49   O66   S    
C134  O51   S    
O15   Zn1   S    
C124  O11   A    
C122  C127  A    
C27   C142  S    
H43   O61   S    
C70   C81   A    
C117  C121  A    
C88   C92   A    
O33   Zn11  S    
C97   C102  A    
C161  O55   S    
C135  O34   A    
C195  O35   A    
C113  C158  S    
C43   C48   A    
C57   Cl38  S    
C112  O10   A    
C42   C51   A    
C168  O86   S    
C57   C101  A    
C5    C127  S    
C164  C169  A    
C128  C132  A    
C160  C182  A    
H29   O47   S    
C145  H72   S    
H52   O70   S    
C21   C32   A    
C34   C50   S    
O17   Zn5   S    
H70   O87   S    
O10   Zn6   S    
C87   Cl22  S    
H40   O58   S    
C123  C200  S    
C185  O22   A    
C59   O77   S    
C31   Cl6   S    
C179  Cl35  S    
C159  O53   S    
C39   C43   A    
C171  C175  A    
C113  C118  A    
C66   C99   A    
C44   O72   S    
C6    O5    A    
C163  C167  A    
C84   Cl19  S    
C193  O28   A    
C26   C187  A    
C173  C177  A    
C138  C147  A    
O7    Zn3   S    
O56   Zn2   S    
C17   C37   S    
C32   Cl7   S    
C29   C191  A    
C36   C51   S    
C54   Cl11  S    
C11   O61   S    
C153  H8    S    
C70   C76   A    
C159  C163  A    
C132  O49   S    
C15   H11   S    
C118  Cl43  S    
C106  C110  S    
C22   C33   A    
C130  H67   S    
C59   C62   A    
C141  O18   A    
C109  H18   S    
C124  O23   A    
O40   Zn12  S    
C114  Cl30  S    
C200  O45   A    
C135  O13   A    
H60   O77   S    
O26   Zn11  S    
C105  C187  A    
C106  C188  A    
C121  C126  A    
C79   C154  S    
O19   Zn6   S    
C102  C106  A    
C162  O57   S    
C42   C47   A    
H64   O82   S    
C75   C78   A    
C112  O12   A    
C29   C66   A    
C166  C171  A    
C39   C50   A    
C124  C170  S    
C157  Cl32  S    
C16   C18   A    
C150  C154  A    
C7    O8    A    
C69   C199  S    
C177  Cl2   S    
C35   Cl36  S    
C90   C155  S    
C72   C82   A    
C52   C56   A    
C192  O31   A    
C198  O41   A    
