data_mof_unit_pretest_1674.cif
_audit_creation_date              2012-12-10T18:13:24-0500
_audit_creation_method            fapswitch 2.2
_symmetry_space_group_name_H-M    P1
_symmetry_Int_Tables_number       1
_space_group_crystal_system       orthorhombic
_cell_length_a                    18.336017
_cell_length_b                    18.344521
_cell_length_c                    25.972987
_cell_angle_alpha                 90.0
_cell_angle_beta                  90.0
_cell_angle_gamma                 90.0
_cell_volume                      8736.41543186

loop_
_atom_site_label
_atom_site_type_symbol
_atom_type_description
_atom_site_fract_x
_atom_site_fract_y
_atom_site_fract_z
_atom_type_partial_charge
C1    C     C_R   0.859839 0.140128 0.249948 0.507104
C2    C     C_R   0.809716 0.256212 0.283158 -0.136953
C3    C     C_R   0.243721 0.309675 0.283180 -0.136672
C4    C     C_R   0.190284 0.256212 0.716842 -0.136953
C5    C     C_R   0.190284 0.256212 0.283158 -0.136953
C6    C     C_R   0.309716 0.756212 0.216842 -0.136953
C7    C     C_R   0.309716 0.756212 0.783158 -0.136953
C8    C     C_R   0.690284 0.756212 0.216842 -0.136953
C9    C     C_R   0.690284 0.756212 0.783158 -0.136953
C10   C     C_R   0.803699 0.196251 0.750033 0.040585
C11   C     C_R   0.803699 0.196251 0.249967 0.040585
C12   C     C_R   0.196301 0.196251 0.750033 0.040585
C13   C     C_R   0.859839 0.140128 0.750051 0.507104
C14   C     C_R   0.196301 0.196251 0.249967 0.040585
C15   C     C_R   0.303699 0.696251 0.250033 0.040585
C16   C     C_R   0.303699 0.696251 0.749967 0.040585
C17   C     C_R   0.696301 0.696251 0.250033 0.040585
C18   C     C_R   0.696301 0.696251 0.749967 0.040585
C19   C     C_R   0.743681 0.190297 0.783190 -0.136313
C20   C     C_R   0.743681 0.190297 0.216810 -0.136313
C21   C     C_R   0.256319 0.190297 0.783190 -0.136313
C22   C     C_R   0.256319 0.190297 0.216810 -0.136313
C23   C     C_R   0.243681 0.690297 0.283190 -0.136313
C24   C     C_R   0.140161 0.140128 0.249948 0.507104
C25   C     C_R   0.243681 0.690297 0.716810 -0.136313
C26   C     C_R   0.756319 0.690297 0.283190 -0.136313
C27   C     C_R   0.756319 0.690297 0.716810 -0.136313
C28   C     C_R   0.190241 0.743760 0.283166 -0.136206
C29   C     C_R   0.190241 0.743760 0.716834 -0.136206
C30   C     C_R   0.809759 0.743760 0.283166 -0.136205
C31   C     C_R   0.809759 0.743760 0.716834 -0.136205
C32   C     C_R   0.690241 0.243759 0.783165 -0.136206
C33   C     C_R   0.690241 0.243759 0.216834 -0.136206
C34   C     C_R   0.309759 0.243759 0.783165 -0.136205
C35   C     C_R   0.140161 0.140128 0.750051 0.507104
C36   C     C_R   0.309759 0.243759 0.216834 -0.136205
C37   C     C_R   0.196266 0.803730 0.249984 0.040533
C38   C     C_R   0.196266 0.803730 0.750016 0.040533
C39   C     C_R   0.803734 0.803730 0.249984 0.040533
C40   C     C_R   0.803734 0.803730 0.750016 0.040533
C41   C     C_R   0.696266 0.303730 0.749984 0.040533
C42   C     C_R   0.696266 0.303730 0.250016 0.040533
C43   C     C_R   0.303734 0.303730 0.749984 0.040533
C44   C     C_R   0.303734 0.303730 0.250016 0.040533
C45   C     C_R   0.066208 0.999956 0.026704 -0.136265
C46   C     C_R   0.359839 0.640128 0.749948 0.507104
C47   C     C_R   0.066208 0.999956 0.973296 -0.136265
C48   C     C_R   0.933792 0.999956 0.026704 -0.136265
C49   C     C_R   0.933792 0.999956 0.973296 -0.136265
C50   C     C_R   0.566208 0.499956 0.526704 -0.136265
C51   C     C_R   0.566208 0.499956 0.473296 -0.136265
C52   C     C_R   0.433792 0.499956 0.526704 -0.136265
C53   C     C_R   0.433792 0.499956 0.473296 -0.136265
C54   C     C_R   1.000000 0.999959 0.946295 0.040206
C55   C     C_R   1.000000 0.999959 0.053705 0.040206
C56   C     C_R   0.500000 0.499959 0.446295 0.040206
C57   C     C_R   0.359839 0.640128 0.250051 0.507104
C58   C     C_R   0.500000 0.499959 0.553705 0.040206
C59   C     C_R   0.140143 0.859874 0.249974 0.507061
C60   C     C_R   0.140143 0.859874 0.750026 0.507061
C61   C     C_R   0.859857 0.859874 0.249974 0.507061
C62   C     C_R   0.859857 0.859874 0.750026 0.507061
C63   C     C_R   0.640143 0.359874 0.749974 0.507061
C64   C     C_R   0.640143 0.359874 0.250026 0.507061
C65   C     C_R   0.359857 0.359874 0.749974 0.507061
C66   C     C_R   0.359857 0.359874 0.250026 0.507061
C67   C     C_R   1.000000 0.999972 0.109825 0.507367
C68   C     C_R   0.640161 0.640128 0.749948 0.507104
C69   C     C_R   1.000000 0.999972 0.890175 0.507367
C70   C     C_R   0.500000 0.499972 0.609824 0.507367
C71   C     C_R   0.500000 0.499972 0.390175 0.507367
C72   C     C_R   1.000000 0.999953 0.389864 0.508663
C73   C     C_R   1.000000 0.999953 0.610136 0.508663
C74   C     C_R   0.500000 0.499953 0.889864 0.508663
C75   C     C_R   0.500000 0.499953 0.110136 0.508663
C76   C     C_R   1.000000 0.062949 0.474048 0.020695
C77   C     C_R   1.000000 0.062949 0.525952 0.020695
C78   C     C_R   0.500000 0.562949 0.974048 0.020695
C79   C     C_R   0.640161 0.640128 0.250051 0.507104
C80   C     C_R   0.500000 0.562949 0.025951 0.020695
C81   C     C_R   0.000000 0.999064 0.445478 0.031716
C82   C     C_R   0.000000 0.999064 0.554522 0.031716
C83   C     C_R   0.500000 0.499064 0.945478 0.031716
C84   C     C_R   0.500000 0.499064 0.054522 0.031716
C85   C     C_R   0.000001 0.932605 0.472955 -0.159150
C86   C     C_R   0.000001 0.932605 0.527045 -0.159150
C87   C     C_R   0.500001 0.432605 0.972955 -0.159150
C88   C     C_R   0.500001 0.432605 0.027045 -0.159150
C89   C     C_3   0.999999 0.143966 0.529658 -0.265242
C90   C     C_R   0.809716 0.256212 0.716842 -0.136953
C91   C     C_3   0.999999 0.143966 0.470342 -0.265242
C92   C     C_3   0.499998 0.643966 0.029657 -0.265242
C93   C     C_3   0.499998 0.643966 0.970342 -0.265242
C94   C     C_R   0.256279 0.809675 0.216820 -0.136672
C95   C     C_R   0.256279 0.809675 0.783180 -0.136672
C96   C     C_R   0.743721 0.809675 0.216820 -0.136672
C97   C     C_R   0.743721 0.809675 0.783180 -0.136672
C98   C     C_R   0.756279 0.309675 0.716820 -0.136672
C99   C     C_R   0.756279 0.309675 0.283180 -0.136672
C100  C     C_R   0.243721 0.309675 0.716820 -0.136672
H1    H     H_    0.000001 0.880799 0.452963 0.143159
H2    H     H_    0.448733 0.665386 0.953227 0.143405
H3    H     H_    0.551263 0.665388 0.046773 0.143405
H4    H     H_    0.551263 0.665388 0.953227 0.143405
H5    H     H_    0.262017 0.855533 0.190866 0.136268
H6    H     H_    0.262017 0.855533 0.809134 0.136268
H7    H     H_    0.737983 0.855533 0.190866 0.136268
H8    H     H_    0.737983 0.855533 0.809134 0.136268
H9    H     H_    0.762017 0.355533 0.690866 0.136268
H10   H     H_    0.762017 0.355533 0.309134 0.136268
H11   H     H_    0.237983 0.355533 0.690866 0.136268
H12   H     H_    0.000001 0.880799 0.547037 0.143159
H13   H     H_    0.237983 0.355533 0.309134 0.136268
H14   H     H_    0.855614 0.261894 0.690898 0.135249
H15   H     H_    0.855614 0.261894 0.309102 0.135249
H16   H     H_    0.144386 0.261894 0.690898 0.135249
H17   H     H_    0.144386 0.261894 0.309102 0.135249
H18   H     H_    0.355614 0.761894 0.190898 0.135249
H19   H     H_    0.355614 0.761894 0.809102 0.135249
H20   H     H_    0.644386 0.761894 0.190898 0.135249
H21   H     H_    0.644386 0.761894 0.809102 0.135249
H22   H     H_    0.737946 0.144437 0.809142 0.136611
H23   H     H_    0.500001 0.380799 0.952963 0.143159
H24   H     H_    0.737946 0.144437 0.190858 0.136611
H25   H     H_    0.262054 0.144437 0.809142 0.136611
H26   H     H_    0.262054 0.144437 0.190858 0.136611
H27   H     H_    0.237946 0.644437 0.309142 0.136611
H28   H     H_    0.237946 0.644437 0.690858 0.136611
H29   H     H_    0.762054 0.644437 0.309142 0.136611
H30   H     H_    0.762054 0.644437 0.690858 0.136611
H31   H     H_    0.144338 0.738074 0.309104 0.136792
H32   H     H_    0.144338 0.738074 0.690896 0.136792
H33   H     H_    0.855662 0.738074 0.309104 0.136792
H34   H     H_    0.500001 0.380799 0.047037 0.143159
H35   H     H_    0.855662 0.738074 0.690896 0.136792
H36   H     H_    0.644338 0.238074 0.809104 0.136792
H37   H     H_    0.644338 0.238074 0.190896 0.136792
H38   H     H_    0.355662 0.238074 0.809104 0.136792
H39   H     H_    0.355662 0.238074 0.190896 0.136792
H40   H     H_    0.117997 0.999957 0.046762 0.136357
H41   H     H_    0.117997 0.999956 0.953237 0.136357
H42   H     H_    0.882003 0.999957 0.046762 0.136357
H43   H     H_    0.882003 0.999956 0.953237 0.136357
H44   H     H_    0.617997 0.499956 0.546762 0.136357
H45   H     H_    0.948733 0.165386 0.546773 0.143405
H46   H     H_    0.617997 0.499956 0.453238 0.136357
H47   H     H_    0.382003 0.499956 0.546762 0.136357
H48   H     H_    0.382003 0.499956 0.453238 0.136357
H49   H     H_    0.948733 0.165386 0.453227 0.143405
H50   H     H_    0.051263 0.165387 0.546773 0.143405
H51   H     H_    0.051263 0.165387 0.453227 0.143405
H52   H     H_    0.448733 0.665386 0.046773 0.143405
O1    O     O_3   1.000000 0.000010 0.249960 -0.434341
O2    O     O_R   0.414520 0.646190 0.219700 -0.550462
O3    O     O_R   0.585480 0.646190 0.780300 -0.550462
O4    O     O_R   0.585480 0.646190 0.219700 -0.550462
O5    O     O_R   0.085460 0.853840 0.280340 -0.549293
O6    O     O_R   0.085460 0.853840 0.719660 -0.549293
O7    O     O_R   0.914540 0.853840 0.280340 -0.549293
O8    O     O_R   0.914540 0.853840 0.719660 -0.549293
O9    O     O_R   0.585460 0.353840 0.780340 -0.549293
O10   O     O_R   0.585460 0.353840 0.219660 -0.549293
O11   O     O_R   0.414540 0.353840 0.780340 -0.549293
O12   O     O_3   0.000000 0.000010 0.750040 -0.434341
O13   O     O_R   0.414540 0.353840 0.219660 -0.549293
O14   O     O_R   0.853820 0.914550 0.219610 -0.549444
O15   O     O_R   0.853820 0.914550 0.780390 -0.549444
O16   O     O_R   0.146180 0.914550 0.219610 -0.549444
O17   O     O_R   0.146180 0.914550 0.780390 -0.549444
O18   O     O_R   0.353820 0.414550 0.719610 -0.549444
O19   O     O_R   0.353820 0.414550 0.280390 -0.549444
O20   O     O_R   0.646180 0.414550 0.719610 -0.549444
O21   O     O_R   0.646180 0.414550 0.280390 -0.549444
O22   O     O_R   0.146170 0.085440 0.219600 -0.549123
O23   O     O_3   0.500000 0.500010 0.749960 -0.434341
O24   O     O_R   0.146170 0.085440 0.780400 -0.549123
O25   O     O_R   0.853830 0.085440 0.219600 -0.549123
O26   O     O_R   0.853830 0.085440 0.780400 -0.549123
O27   O     O_R   0.646170 0.585440 0.719600 -0.549123
O28   O     O_R   0.646170 0.585440 0.280400 -0.549123
O29   O     O_R   0.353830 0.585440 0.719600 -0.549123
O30   O     O_R   0.353830 0.585440 0.280400 -0.549123
O31   O     O_R   0.939270 0.999980 0.134160 -0.549169
O32   O     O_R   0.939270 0.999980 0.865840 -0.549169
O33   O     O_R   0.060730 0.999980 0.134160 -0.549169
O34   O     O_3   0.500000 0.500010 0.250040 -0.434341
O35   O     O_R   0.060730 0.999980 0.865840 -0.549169
O36   O     O_R   0.439270 0.499980 0.634160 -0.549169
O37   O     O_R   0.439270 0.499980 0.365840 -0.549169
O38   O     O_R   0.560730 0.499980 0.634160 -0.549169
O39   O     O_R   0.560730 0.499980 0.365840 -0.549169
O40   O     O_R   1.000000 0.060760 0.365760 -0.544159
O41   O     O_R   1.000000 0.060760 0.634240 -0.544159
O42   O     O_R   0.500000 0.560760 0.865760 -0.544159
O43   O     O_R   0.500000 0.560760 0.134240 -0.544159
O44   O     O_R   1.000000 0.939310 0.365770 -0.551268
O45   O     O_R   0.914520 0.146190 0.280300 -0.550462
O46   O     O_R   0.000000 0.939310 0.634230 -0.551268
O47   O     O_R   0.500000 0.439310 0.865770 -0.551268
O48   O     O_R   0.500000 0.439310 0.134230 -0.551268
O49   O     O_R   0.914520 0.146190 0.719700 -0.550462
O50   O     O_R   0.085480 0.146190 0.280300 -0.550462
O51   O     O_R   0.085480 0.146190 0.719700 -0.550462
O52   O     O_R   0.414520 0.646190 0.780300 -0.550462
Zn1   Zn    Zn3+2 0.000000 0.913260 0.293350 0.930619
Zn2   Zn    Zn3+2 0.413230 0.500000 0.293420 0.931347
Zn3   Zn    Zn3+2 0.586770 0.500000 0.706580 0.931347
Zn4   Zn    Zn3+2 0.586770 0.500000 0.293420 0.931347
Zn5   Zn    Zn3+2 1.000000 0.086780 0.293330 0.928912
Zn6   Zn    Zn3+2 0.000000 0.086780 0.706670 0.928912
Zn7   Zn    Zn3+2 0.500000 0.586780 0.793330 0.928912
Zn8   Zn    Zn3+2 0.500000 0.586780 0.206670 0.928912
Zn9   Zn    Zn3+2 0.000000 0.913260 0.706650 0.930619
Zn10  Zn    Zn3+2 0.500000 0.413260 0.793350 0.930619
Zn11  Zn    Zn3+2 0.500000 0.413260 0.206650 0.930619
Zn12  Zn    Zn3+2 0.913230 1.000000 0.206580 0.931347
Zn13  Zn    Zn3+2 0.913230 0.000000 0.793420 0.931347
Zn14  Zn    Zn3+2 0.086770 1.000000 0.206580 0.931347
Zn15  Zn    Zn3+2 0.086770 0.000000 0.793420 0.931347
Zn16  Zn    Zn3+2 0.413230 0.500000 0.706580 0.931347

loop_
_geom_bond_atom_site_label_1
_geom_bond_atom_site_label_2
_ccdc_geom_bond_type
O12   Zn13  S    
C48   C55   A    
C91   H51   S    
O9    Zn10  S    
C74   O42   A    
C19   H22   S    
C80   C92   S    
C73   O41   A    
O4    Zn8   S    
O47   Zn10  S    
O23   Zn16  S    
O49   Zn6   S    
O26   Zn13  S    
C44   C66   S    
C1    C11   S    
O23   Zn3   S    
C74   C83   S    
C80   C84   A    
C68   O3    A    
C24   O22   A    
O41   Zn6   S    
C94   H5    S    
O35   Zn15  S    
C75   O48   A    
O6    Zn9   S    
C89   H45   S    
C87   H23   S    
C24   O50   A    
C43   C100  A    
O32   Zn13  S    
C17   C26   A    
C77   C82   A    
C46   O29   A    
C74   O47   A    
C25   H28   S    
C60   O6    A    
C61   O14   A    
C76   C81   A    
O34   Zn8   S    
C61   O7    A    
O1    Zn12  S    
O11   Zn10  S    
C78   C80   A    
C75   C84   S    
C22   H26   S    
C29   H32   S    
C19   C32   A    
C78   C93   S    
C18   C68   S    
C13   O26   A    
O15   Zn13  S    
C17   C79   S    
O48   Zn11  S    
C40   C62   S    
C31   C40   A    
C51   C56   A    
C6    H18   S    
C14   C24   S    
O44   Zn1   S    
O2    Zn8   S    
C92   H3    S    
C6    C15   A    
C97   H8    S    
C1    O25   A    
C78   C83   A    
O13   Zn11  S    
O12   Zn6   S    
C6    C94   A    
O24   Zn15  S    
C8    C96   A    
C38   C95   A    
C92   H52   S    
C9    H21   S    
C32   C41   A    
O51   Zn6   S    
O22   Zn14  S    
O23   Zn7   S    
C4    C12   A    
C49   C54   A    
C69   O35   A    
C72   C81   S    
C70   O36   A    
C30   H33   S    
O37   Zn2   S    
C15   C23   A    
C62   O15   A    
C79   O4    A    
O42   Zn7   S    
C98   H9    S    
O34   Zn11  S    
C15   C57   S    
O25   Zn12  S    
C90   H14   S    
C2    C11   A    
C93   H4    S    
C57   O30   A    
C50   H44   S    
O7    Zn1   S    
O36   Zn16  S    
O18   Zn16  S    
O10   Zn11  S    
C45   C47   A    
C25   C29   A    
C39   C61   S    
O27   Zn3   S    
C11   C20   A    
O33   Zn14  S    
O34   Zn2   S    
C27   C31   A    
C52   C58   A    
C50   C58   A    
O23   Zn10  S    
C7    H19   S    
C66   O19   A    
O5    Zn1   S    
C76   C77   A    
C64   O10   A    
C3    H13   S    
C33   H37   S    
C40   C97   A    
C32   H36   S    
C58   C70   S    
C37   C94   A    
C21   C34   A    
C76   C91   S    
C51   H46   S    
C85   C86   A    
C99   H10   S    
C12   C21   A    
C34   H38   S    
C53   H48   S    
C41   C63   S    
C5    H17   S    
O30   Zn2   S    
C29   C38   A    
C86   H12   S    
C95   H6    S    
C2    H15   S    
C9    C18   A    
C10   C19   A    
C43   C65   S    
C56   C71   S    
C77   C89   S    
C73   O46   A    
C65   O11   A    
O29   Zn16  S    
C50   C51   A    
C5    C14   A    
C48   H42   S    
C23   C28   A    
C71   O37   A    
O19   Zn2   S    
C10   C90   A    
O1    Zn14  S    
C37   C59   S    
C26   H29   S    
C67   O31   A    
C100  H11   S    
C47   C54   A    
C38   C60   S    
C20   C33   A    
O12   Zn15  S    
C31   H35   S    
C7    C16   A    
O17   Zn15  S    
C96   H7    S    
C2    C99   A    
C26   C30   A    
C52   H47   S    
C3    C44   A    
C4    C100  A    
O1    Zn1   S    
C36   C44   A    
C89   C91   S    
C35   O24   A    
O50   Zn5   S    
C16   C46   S    
C42   C64   S    
C73   C82   S    
C85   H1    S    
C52   C53   A    
C70   O38   A    
C23   H27   S    
C53   C56   A    
C16   C25   A    
C63   O9    A    
C8    H20   S    
C33   C42   A    
C89   H50   S    
C9    C97   A    
C66   O13   A    
C41   C98   A    
C93   H2    S    
C4    H16   S    
O20   Zn3   S    
C1    O45   A    
C18   C27   A    
C84   C88   A    
C3    C5    A    
C10   C13   S    
C83   C87   A    
C72   O44   A    
C55   C67   S    
C7    C95   A    
O12   Zn9   S    
C22   C36   A    
C57   O2    A    
C47   H41   S    
C68   O27   A    
C8    C17   A    
O34   Zn4   S    
C65   O18   A    
C28   H31   S    
C71   O39   A    
C14   C22   A    
O3    Zn7   S    
C88   H34   S    
O43   Zn8   S    
C82   C86   A    
C42   C99   A    
O31   Zn12  S    
C72   O40   A    
O1    Zn5   S    
C59   O5    A    
C35   O51   A    
C63   O20   A    
C54   C69   S    
C28   C37   A    
C48   C49   A    
O8    Zn9   S    
C49   H43   S    
O52   Zn7   S    
C46   O52   A    
C92   C93   S    
C13   O49   A    
C30   C39   A    
O21   Zn4   S    
C62   O8    A    
O39   Zn4   S    
C45   H40   S    
C36   H39   S    
C39   C96   A    
C20   H24   S    
O45   Zn5   S    
C69   O32   A    
O38   Zn3   S    
O40   Zn5   S    
C45   C55   A    
C87   C88   A    
C91   H49   S    
C27   H30   S    
C60   O17   A    
C79   O28   A    
O16   Zn14  S    
C64   O21   A    
O28   Zn4   S    
O46   Zn9   S    
C21   H25   S    
C34   C43   A    
C90   C98   A    
C12   C35   S    
C81   C85   A    
C59   O16   A    
C67   O33   A    
O14   Zn12  S    
C75   O43   A    
