data_mof_unit_pretest_1295.cif
_audit_creation_date              2012-12-11T16:31:34-0500
_audit_creation_method            fapswitch 2.2
_symmetry_space_group_name_H-M    P1
_symmetry_Int_Tables_number       1
_space_group_crystal_system       triclinic
_cell_length_a                    6.949147
_cell_length_b                    18.42609
_cell_length_c                    20.081491
_cell_angle_alpha                 68.460155
_cell_angle_beta                  90.61293
_cell_angle_gamma                 90.886281
_cell_volume                      2391.4492627

loop_
_atom_site_label
_atom_site_type_symbol
_atom_type_description
_atom_site_fract_x
_atom_site_fract_y
_atom_site_fract_z
_atom_type_partial_charge
O1    O     O_R   0.488990 0.443920 0.942160 -0.541942
O2    O     O_R   0.823840 0.406530 0.087600 -0.542216
O3    O     O_R   0.999650 0.556080 0.057840 -0.541200
C1    C     C_R   0.654934 0.383577 0.115107 0.682375
O4    O     O_R   0.818390 0.434590 0.944530 -0.521864
O5    O     O_R   0.994160 0.584350 0.913750 -0.515657
C2    C     C_R   0.648781 0.418397 0.925904 0.752186
O6    O     O_R   0.494480 0.415650 0.086250 -0.538453
O7    O     O_3   0.662600 0.549100 0.990070 -0.370324
V1    V     V_3+5 0.935320 0.490890 0.001840 1.456863
O8    O     O_R   0.324240 0.593470 0.912400 -0.545729
C3    C     C_R   0.155299 0.615194 0.883798 0.801746
O9    O     O_R   0.329690 0.565410 0.055470 -0.541976
C4    C     C_R   0.162105 0.579551 0.075939 0.710228
V2    V     V_3+5 0.435990 0.509110 0.998160 1.426976
O10   O     O_3   0.158840 0.450900 0.009930 -0.371551
C5    C     C_3   0.981055 0.676545 0.264423 -0.327523
C6    C     C_3   0.335476 0.705614 0.247247 -0.329768
C7    C     C_3   0.326444 0.753442 0.296940 -0.328789
H1    H     H_    0.995432 0.684960 0.370605 0.136732
H2    H     H_    0.009031 0.614265 0.297329 0.134117
H3    H     H_    0.453453 0.729187 0.207785 0.134970
H4    H     H_    0.370683 0.643923 0.279764 0.138096
H5    H     H_    0.357266 0.714508 0.353116 0.137138
H6    H     H_    0.440176 0.799743 0.281128 0.135195
C8    C     C_1   0.110750 0.874592 0.378456 -0.193936
C9    C     C_3   0.141153 0.709007 0.207410 0.291971
C10   C     C_3   0.971949 0.724440 0.314058 -0.327932
C11   C     C_3   0.125758 0.790894 0.292419 0.292076
C12   C     C_3   0.088417 0.843815 0.213202 -0.328269
C13   C     C_3   0.097300 0.795947 0.163529 -0.327231
C14   C     C_1   0.117240 0.836821 0.339963 -0.102622
C15   C     C_1   0.149545 0.663077 0.159868 -0.103502
C16   C     C_1   0.155754 0.625301 0.121374 -0.190319
H7    H     H_    0.957659 0.800501 0.134700 0.136535
H8    H     H_    0.210469 0.821265 0.122374 0.136192
H9    H     H_    0.944605 0.871196 0.207960 0.137326
H10   H     H_    0.839171 0.678731 0.237544 0.136267
H11   H     H_    0.825804 0.749480 0.310711 0.136725
H12   H     H_    0.197440 0.891903 0.195728 0.133992
H13   H     H_    0.786308 0.549850 0.694407 0.103430
C17   C     C_R   0.301326 0.767182 0.870742 -0.141056
C18   C     C_R   0.374712 0.839370 0.866848 -0.119358
C19   C     C_R   0.365686 0.903127 0.802984 -0.128739
C20   C     C_R   0.282175 0.895219 0.742688 -0.142932
C21   C     C_R   0.208824 0.822241 0.744529 0.078829
C22   C     C_R   0.219727 0.756495 0.809822 0.055111
C23   C     C_R   0.118914 0.815127 0.683494 -0.163206
C24   C     C_R   0.036209 0.742652 0.687918 0.020096
C25   C     C_R   0.051463 0.675329 0.752392 -0.004230
C26   C     C_R   0.144514 0.682631 0.813961 -0.195428
C27   C     C_R   0.940386 0.735857 0.627819 -0.142096
C28   C     C_R   0.846367 0.667713 0.632113 -0.190642
C29   C     C_R   0.860367 0.602192 0.693662 -0.217594
C30   C     C_R   0.976578 0.602588 0.751758 0.427403
H14   H     H_    0.307234 0.720636 0.922598 0.103071
H15   H     H_    0.436882 0.846035 0.913972 0.106820
H16   H     H_    0.420962 0.959376 0.800373 0.106666
H17   H     H_    0.273164 0.947548 0.695236 0.111382
H18   H     H_    0.933543 0.783089 0.576503 0.128215
H19   H     H_    0.766016 0.665095 0.586526 0.130277
H20   H     H_    0.950965 0.450690 0.308273 0.107211
C31   C     C_R   0.479135 0.236504 0.123768 -0.132641
C32   C     C_R   0.392417 0.166953 0.126082 -0.123552
C33   C     C_R   0.380599 0.103639 0.190422 -0.126871
C34   C     C_R   0.455585 0.109352 0.252951 -0.141193
C35   C     C_R   0.542705 0.179502 0.252587 0.068646
C36   C     C_R   0.554563 0.244525 0.186534 0.070071
C37   C     C_R   0.621037 0.184930 0.316233 -0.186789
C38   C     C_R   0.710967 0.255618 0.313620 0.069471
C39   C     C_R   0.722810 0.320639 0.247565 0.069102
C40   C     C_R   0.644490 0.315202 0.183935 -0.183614
C41   C     C_R   0.786358 0.263668 0.376372 -0.131216
C42   C     C_R   0.872987 0.333245 0.374045 -0.123333
C43   C     C_R   0.884763 0.396555 0.309701 -0.127231
C44   C     C_R   0.809866 0.390808 0.247179 -0.141143
H21   H     H_    0.487689 0.283424 0.072074 0.101739
H22   H     H_    0.335357 0.162003 0.077526 0.109410
H23   H     H_    0.314287 0.049525 0.191841 0.107122
H24   H     H_    0.445637 0.057860 0.301238 0.110127
H25   H     H_    0.777797 0.216754 0.428068 0.105818
H26   H     H_    0.929996 0.338222 0.422594 0.109568
H27   H     H_    0.819810 0.442288 0.198879 0.110075
O11   O     O_R   0.770890 0.084490 0.414040 -0.536295
O12   O     O_R   0.445980 0.065450 0.555510 -0.540803
O13   O     O_R   0.270670 0.915620 0.586180 -0.537356
C45   C     C_R   0.615406 0.078947 0.576549 0.724860
O14   O     O_R   0.441480 0.093500 0.412450 -0.538085
O15   O     O_R   0.266140 0.943870 0.442100 -0.537109
C46   C     C_R   0.610485 0.116541 0.385075 0.693133
O16   O     O_R   0.775410 0.056240 0.558120 -0.536801
O17   O     O_3   0.602660 0.950990 0.510100 -0.368008
V3    V     V_3+5 0.329740 0.009100 0.498130 1.418854
O18   O     O_R   0.936120 0.934420 0.444240 -0.541168
C47   C     C_R   0.103911 0.920338 0.423887 0.722199
O19   O     O_R   0.940610 0.906370 0.587310 -0.540489
C48   C     C_R   0.109327 0.883905 0.615129 0.690263
V4    V     V_3+5 0.829110 0.990690 0.501470 1.418280
O20   O     O_3   0.106080 0.049010 0.489880 -0.367335
C49   C     C_3   0.789656 0.267627 0.689751 -0.323547
C50   C     C_3   0.429713 0.242329 0.711344 0.045713
C51   C     C_3   0.434199 0.286585 0.764493 -0.389275
H28   H     H_    0.741007 0.378310 0.703415 0.129512
H29   H     H_    0.776534 0.305696 0.632351 0.143498
H30   H     H_    0.319376 0.194764 0.730583 0.119006
H31   H     H_    0.392109 0.348649 0.737152 0.164288
H32   H     H_    0.326406 0.259094 0.807172 0.110039
C52   C     C_1   0.640253 0.369111 0.883590 -0.215259
C53   C     C_3   0.629285 0.203864 0.711483 0.258784
C54   C     C_3   0.782764 0.317755 0.737146 -0.339811
C55   C     C_3   0.636293 0.283055 0.799215 0.268974
C56   C     C_3   0.681928 0.194922 0.841392 0.049074
C57   C     C_3   0.672684 0.148643 0.789677 -0.384904
C58   C     C_1   0.637228 0.329497 0.846602 -0.093415
C59   C     C_1   0.628588 0.159061 0.663028 -0.084381
C60   C     C_1   0.624999 0.122812 0.623328 -0.196818
H33   H     H_    0.809833 0.117605 0.791069 0.163268
H34   H     H_    0.558363 0.102736 0.808124 0.111735
H35   H     H_    0.932534 0.239311 0.696222 0.142534
H36   H     H_    0.929043 0.321608 0.758317 0.142919
H37   H     H_    0.568765 0.170514 0.882833 0.122307
O21   O     O_3   0.016327 0.533411 0.808335 -0.556794
C61   C     C_3   0.044450 0.470411 0.785433 0.044037
H38   H     H_    0.119925 0.488437 0.732930 0.106740
H39   H     H_    0.903868 0.443510 0.781338 0.135026
C62   C     C_3   0.166964 0.409872 0.840016 -0.664673
H40   H     H_    0.117215 0.398062 0.895248 0.250066
H41   H     H_    0.161520 0.354584 0.830352 0.153976
H42   H     H_    0.315893 0.432709 0.833968 0.213674
C63   C     C_3   0.363218 0.296609 0.636331 -0.813106
H43   H     H_    0.461699 0.347624 0.613878 0.218148
H44   H     H_    0.354612 0.264694 0.599034 0.217152
H45   H     H_    0.217470 0.318872 0.639644 0.202366
C64   C     C_3   0.875847 0.182224 0.881745 -0.814581
H46   H     H_    0.998438 0.200300 0.844018 0.212304
H47   H     H_    0.883095 0.215243 0.918146 0.217230
H48   H     H_    0.891973 0.119362 0.914922 0.206353

loop_
_geom_bond_atom_site_label_1
_geom_bond_atom_site_label_2
_ccdc_geom_bond_type
C49   C54   S    
C50   C51   S    
C33   H23   S    
C45   O16   A    
C41   C42   A    
C29   C30   A    
O12   V3    S    
C55   C56   S    
C1    O6    A    
C64   H48   S    
O17   V4    S    
C61   H38   S    
C20   C21   A    
C9    C15   S    
C8    C14   T    
C23   C48   S    
C62   H40   S    
C7    H5    S    
H28   C54   S    
C10   C11   S    
C11   C14   S    
C13   H8    S    
O5    C3    A    
C12   C13   S    
C61   H39   S    
O18   V4    S    
C50   C53   S    
V2    O10   S    
V4    O20   S    
C49   H29   S    
C6    C7    S    
C21   C22   A    
C52   C58   T    
O13   C48   A    
C54   C55   S    
C27   H18   S    
C17   H14   S    
O14   V3    S    
O8    V2    S    
C19   H16   S    
O19   V4    S    
C38   C39   A    
O1    V2    S    
O7    V1    S    
V3    O20   S    
C53   C57   S    
C5    H10   S    
C50   C63   S    
C34   C35   A    
C30   O21   S    
C49   C53   S    
O1    C2    A    
O9    C4    A    
C51   C55   S    
O18   C47   A    
O11   C46   A    
C42   H26   S    
C44   H27   S    
C41   H25   S    
C56   C57   S    
C25   C26   A    
O12   C45   A    
C50   H30   S    
C21   C23   A    
C42   C43   A    
C6    C9    S    
C9    C13   S    
C6    H4    S    
C5    C9    S    
C54   H36   S    
O4    C2    A    
C53   C59   S    
C61   C62   S    
C64   H47   S    
H1    C10   S    
C10   H11   S    
C28   C29   A    
C5    H2    S    
C35   C36   A    
C12   H9    S    
C35   C37   A    
O15   C47   A    
O2    C1    A    
C43   C44   A    
O5    V1    S    
C11   C12   S    
O13   V3    S    
C36   C40   A    
C24   C27   A    
O19   C48   A    
C38   C41   A    
C15   C16   T    
C12   H12   S    
C51   H32   S    
C49   H35   S    
C45   C60   S    
O3    C4    A    
C57   H33   S    
C23   C24   A    
O14   C46   A    
C33   C34   A    
O6    V2    S    
O9    V2    S    
C18   C19   A    
C13   H7    S    
H20   C43   S    
C63   H45   S    
C17   C18   A    
C28   H19   S    
C37   C46   S    
O2    V1    S    
C1    C40   S    
C3    C26   S    
C27   C28   A    
C31   H21   S    
C8    C47   S    
C31   C36   A    
C20   H17   S    
C62   H41   S    
C6    H3    S    
C5    C10   S    
C32   H22   S    
C19   C20   A    
C56   C64   S    
C31   C32   A    
C4    C16   S    
C22   C26   A    
O8    C3    A    
C64   H46   S    
C34   H24   S    
C25   C30   A    
C62   H42   S    
C63   H44   S    
O11   V4    S    
C32   C33   A    
C63   H43   S    
O7    V2    S    
C56   H37   S    
O3    V1    S    
V1    O10   S    
C39   C44   A    
O17   V3    S    
C51   H31   S    
C55   C58   S    
C17   C22   A    
O16   V4    S    
O15   V3    S    
C37   C38   A    
C7    H6    S    
H13   C29   S    
C18   H15   S    
C57   H34   S    
O4    V1    S    
C39   C40   A    
C24   C25   A    
C2    C52   S    
O21   C61   S    
C59   C60   T    
C7    C11   S    
