data_mof_unit_pretest_1695.cif
_audit_creation_date              2012-12-10T16:59:00-0500
_audit_creation_method            fapswitch 2.2
_symmetry_space_group_name_H-M    P1
_symmetry_Int_Tables_number       1
_space_group_crystal_system       triclinic
_cell_length_a                    30.87558
_cell_length_b                    30.585525
_cell_length_c                    24.723855
_cell_angle_alpha                 90.002429
_cell_angle_beta                  128.160195
_cell_angle_gamma                 90.000403
_cell_volume                      18358.1103549

loop_
_atom_site_label
_atom_site_type_symbol
_atom_type_description
_atom_site_fract_x
_atom_site_fract_y
_atom_site_fract_z
_atom_type_partial_charge
C1    C     C_R   0.691618 0.190501 0.501570 0.912598
C2    C     C_R   0.534259 0.243489 0.069631 0.511814
C3    C     C_R   0.735197 0.958909 0.626584 0.449705
C4    C     C_R   0.822276 0.455273 0.422593 -0.247688
C5    C     C_R   0.177750 0.455235 0.577523 -0.247718
C6    C     C_R   0.322256 0.955239 0.422498 -0.247710
C7    C     C_R   0.677878 0.955049 0.578038 -0.247767
C8    C     C_R   0.846905 0.415299 0.457045 -0.090052
C9    C     C_R   0.153101 0.415280 0.543001 -0.090039
C10   C     C_R   0.346898 0.915281 0.457003 -0.090020
C11   C     C_R   0.653142 0.915182 0.543226 -0.089940
C12   C     C_R   0.812990 0.380292 0.447956 0.062076
C13   C     C_R   0.965795 0.743450 0.930373 0.511583
C14   C     C_R   0.187001 0.380265 0.552085 0.062049
C15   C     C_R   0.312993 0.880269 0.447921 0.062049
C16   C     C_R   0.686988 0.880134 0.552277 0.061970
C17   C     C_R   0.838493 0.343282 0.491829 -0.096918
C18   C     C_R   0.161494 0.343280 0.508149 -0.096888
C19   C     C_R   0.338498 0.843281 0.491841 -0.096887
C20   C     C_R   0.661460 0.843268 0.508085 -0.096708
C21   C     C_R   0.895827 0.339330 0.536823 -0.309630
C22   C     C_R   0.104158 0.339354 0.463089 -0.309704
C23   C     C_R   0.395833 0.839352 0.536886 -0.309662
C24   C     C_R   0.034259 0.743456 0.069631 0.511591
C25   C     C_R   0.604119 0.839460 0.462776 -0.309935
C26   C     C_R   0.929262 0.371705 0.540397 0.426492
C27   C     C_R   0.070727 0.371731 0.459519 0.426566
C28   C     C_R   0.429266 0.871729 0.540457 0.426458
C29   C     C_R   0.570704 0.871845 0.459228 0.426781
C30   C     C_R   0.904778 0.409599 0.500449 -0.080547
C31   C     C_R   0.095221 0.409604 0.499538 -0.080619
C32   C     C_R   0.404776 0.909602 0.500453 -0.080593
C33   C     C_R   0.595237 0.909618 0.499523 -0.080885
C34   C     C_R   0.060188 0.441399 0.499732 0.850330
C35   C     C_R   0.704268 0.172358 0.628419 0.222522
C36   C     C_R   0.939813 0.441397 0.500265 0.850375
C37   C     C_R   0.560202 0.941412 0.499730 0.850041
C38   C     C_R   0.439811 0.941399 0.500265 0.850213
C39   C     C_R   0.817064 0.250893 0.632631 0.899018
C40   C     C_R   0.182936 0.250891 0.367369 0.898977
C41   C     C_R   0.317064 0.750893 0.632631 0.898995
C42   C     C_R   0.682936 0.750892 0.367369 0.898854
C43   C     C_R   0.557598 0.061595 0.500036 0.788184
C44   C     C_R   0.442404 0.061596 0.499967 0.788094
C45   C     C_R   0.057598 0.561595 0.500036 0.788090
C46   C     C_R   0.295724 0.172339 0.371580 0.222569
C47   C     C_R   0.942403 0.561596 0.499967 0.788087
C48   C     C_R   0.655187 0.220519 0.254416 0.515589
C49   C     C_R   0.344916 0.220417 0.745581 0.515564
C50   C     C_R   0.155158 0.720466 0.254428 0.515584
C51   C     C_R   0.845120 0.720193 0.745566 0.515535
C52   C     C_R   0.618739 0.218008 0.182697 0.596987
C53   C     C_R   0.381370 0.217906 0.817300 0.596999
C54   C     C_R   0.118713 0.717947 0.182711 0.596971
C55   C     C_R   0.881580 0.717677 0.817282 0.597029
C56   C     C_R   0.571286 0.243918 0.145091 -0.247256
C57   C     C_R   0.204281 0.672346 0.628425 0.222555
C58   C     C_R   0.428747 0.243910 0.854914 -0.247325
C59   C     C_R   0.071281 0.743888 0.145093 -0.247355
C60   C     C_R   0.928787 0.743877 0.854914 -0.247449
C61   C     C_R   0.559812 0.271568 0.179751 -0.219010
C62   C     C_R   0.440147 0.271648 0.820264 -0.218852
C63   C     C_R   0.059828 0.771576 0.179744 -0.218827
C64   C     C_R   0.940021 0.771812 0.820282 -0.218636
C65   C     C_R   0.595457 0.274323 0.251426 0.345404
C66   C     C_R   0.404499 0.274406 0.748590 0.345466
C67   C     C_R   0.095474 0.774345 0.251416 0.345393
C68   C     C_R   0.795736 0.672350 0.371586 0.222598
C69   C     C_R   0.904366 0.774585 0.748611 0.345280
C70   C     C_R   0.699432 0.173533 0.681722 0.195260
C71   C     C_R   0.300555 0.173508 0.318274 0.195273
C72   C     C_R   0.199452 0.673519 0.681733 0.195281
C73   C     C_R   0.308384 0.190500 0.498433 0.912586
C74   C     C_R   0.800575 0.673523 0.318285 0.195266
C75   C     C_R   0.654757 0.153411 0.671990 0.664112
C76   C     C_R   0.345231 0.153391 0.328005 0.664129
C77   C     C_R   0.154777 0.653400 0.672004 0.664122
C78   C     C_R   0.845251 0.653403 0.328019 0.664122
C79   C     C_R   0.614704 0.131794 0.610798 0.269987
C80   C     C_R   0.385290 0.131784 0.389200 0.270066
C81   C     C_R   0.114717 0.631788 0.610809 0.270052
C82   C     C_R   0.885303 0.631790 0.389211 0.270074
C83   C     C_R   0.620802 0.127475 0.558175 -0.257933
C84   C     C_R   0.191617 0.690501 0.501570 0.912589
C85   C     C_R   0.379196 0.127470 0.441827 -0.257966
C86   C     C_R   0.120809 0.627471 0.558180 -0.257962
C87   C     C_R   0.879202 0.627473 0.441832 -0.257971
C88   C     C_R   0.661967 0.152974 0.564122 -0.021526
C89   C     C_R   0.338030 0.152965 0.435879 -0.021567
C90   C     C_R   0.161974 0.652968 0.564126 -0.021567
C91   C     C_R   0.838036 0.652969 0.435882 -0.021572
C92   C     C_R   0.660801 0.156851 0.506101 -0.083347
C93   C     C_R   0.339201 0.156850 0.493903 -0.083327
C94   C     C_R   0.160801 0.656850 0.506100 -0.083318
C95   C     C_R   0.808384 0.690500 0.498433 0.912532
C96   C     C_R   0.839201 0.656850 0.493902 -0.083340
C97   C     C_R   0.625388 0.131361 0.447851 -0.281732
C98   C     C_R   0.374619 0.131368 0.552157 -0.281706
C99   C     C_R   0.125384 0.631363 0.447847 -0.281711
C100  C     C_R   0.874610 0.631362 0.552151 -0.281692
C101  C     C_R   0.683299 0.249678 0.367082 0.908558
C102  C     C_R   0.316707 0.249676 0.632919 0.908481
C103  C     C_R   0.183298 0.749676 0.367082 0.908540
C104  C     C_R   0.816714 0.749670 0.632920 0.908635
C105  C     C_R   0.590909 0.101444 0.445750 0.662978
C106  C     C_R   0.644477 0.248704 0.290358 -0.357099
C107  C     C_R   0.409099 0.101452 0.554258 0.662960
C108  C     C_R   0.090906 0.601446 0.445748 0.662950
C109  C     C_R   0.909090 0.601445 0.554252 0.662930
C110  C     C_R   0.588559 0.098401 0.500646 -0.179923
C111  C     C_R   0.411445 0.098402 0.499358 -0.180024
C112  C     C_R   0.088560 0.598400 0.500648 -0.180008
C113  C     C_R   0.911444 0.598401 0.499359 -0.180042
C114  C     C_R   0.902307 0.224333 0.744967 -0.155850
C115  C     C_R   0.097693 0.224323 0.255031 -0.155840
C116  C     C_R   0.402305 0.724333 0.744967 -0.155857
C117  C     C_R   0.355542 0.248699 0.709646 -0.357343
C118  C     C_R   0.597692 0.724324 0.255032 -0.155859
C119  C     C_R   0.940236 0.225392 0.816828 0.379934
C120  C     C_R   0.059760 0.225382 0.183171 0.379934
C121  C     C_R   0.440233 0.725391 0.816828 0.379919
C122  C     C_R   0.559759 0.725384 0.183171 0.379920
C123  C     C_R   0.930913 0.253825 0.854159 -0.190768
C124  C     C_R   0.069077 0.253822 0.145842 -0.190763
C125  C     C_R   0.430912 0.753825 0.854159 -0.190746
C126  C     C_R   0.569075 0.753823 0.145842 -0.190765
C127  C     C_R   0.884645 0.281563 0.817690 0.639504
C128  C     C_R   0.144473 0.748695 0.290359 -0.357286
C129  C     C_R   0.115343 0.281565 0.182313 0.639494
C130  C     C_R   0.384646 0.781562 0.817690 0.639495
C131  C     C_R   0.615341 0.781566 0.182313 0.639475
C132  C     C_R   0.847762 0.280589 0.745890 -0.257970
C133  C     C_R   0.152229 0.280590 0.254113 -0.257970
C134  C     C_R   0.347763 0.780588 0.745890 -0.257990
C135  C     C_R   0.652228 0.780591 0.254113 -0.257975
C136  C     C_R   0.856069 0.251909 0.708794 -0.228339
C137  C     C_R   0.143928 0.251905 0.291206 -0.228350
C138  C     C_R   0.356069 0.751909 0.708794 -0.228344
C139  C     C_R   0.855565 0.748684 0.709646 -0.357905
C140  C     C_R   0.643927 0.751906 0.291206 -0.228340
C141  C     C_R   0.032781 0.253835 0.069786 0.436769
C142  C     C_R   0.967205 0.253837 0.930215 0.436773
C143  C     C_R   0.532780 0.753836 0.069785 0.436781
C144  C     C_R   0.467204 0.753836 0.930215 0.436790
C145  C     C_R   0.755350 0.383090 0.393844 0.354255
C146  C     C_R   0.244630 0.383022 0.606269 0.354223
C147  C     C_R   0.255359 0.883037 0.393763 0.354230
C148  C     C_R   0.744575 0.882717 0.606719 0.354054
C149  C     C_R   0.807440 0.309516 0.496325 0.883231
C150  C     C_R   0.465768 0.243484 0.930374 0.511799
C151  C     C_R   0.192553 0.309516 0.503664 0.883285
C152  C     C_R   0.307443 0.809516 0.496331 0.883273
C153  C     C_R   0.692533 0.809513 0.503625 0.883522
C154  C     C_R   0.732125 0.422955 0.358888 -0.199254
C155  C     C_R   0.267877 0.422865 0.641303 -0.199230
C156  C     C_R   0.232122 0.922882 0.358746 -0.199224
C157  C     C_R   0.767905 0.922457 0.642071 -0.199109
C158  C     C_R   0.764958 0.459323 0.374408 0.449889
C159  C     C_R   0.235069 0.459250 0.625785 0.449840
C160  C     C_R   0.264938 0.959261 0.374257 0.449854
Cu1   Cu    Cu3+1 0.719090 0.280910 0.500010 1.057969
Cu2   Cu    Cu3+1 0.034200 0.500000 0.568440 1.128737
Cu3   Cu    Cu3+1 0.465800 0.000000 0.431560 1.128851
Cu4   Cu    Cu3+1 0.534200 0.000000 0.568440 1.128581
Cu5   Cu    Cu3+1 0.280910 0.280910 0.499990 1.057983
Cu6   Cu    Cu3+1 0.219090 0.780910 0.500010 1.057943
Cu7   Cu    Cu3+1 0.780910 0.780910 0.499990 1.058156
Cu8   Cu    Cu3+1 0.780930 0.219110 0.499990 1.087830
Cu9   Cu    Cu3+1 0.219070 0.219110 0.500010 1.087918
Cu10  Cu    Cu3+1 0.280930 0.719110 0.499990 1.087892
Cu11  Cu    Cu3+1 0.719070 0.719110 0.500010 1.088044
Cu12  Cu    Cu3+1 0.965800 0.500000 0.431560 1.128778
F1    F     F_    0.701053 0.195155 0.288242 -0.570337
F2    F     F_    0.125852 0.308850 0.148347 -0.603262
F3    F     F_    0.374133 0.808841 0.851659 -0.603268
F4    F     F_    0.625850 0.808851 0.148347 -0.603282
F5    F     F_    0.630775 0.191175 0.149851 -0.566537
F6    F     F_    0.369415 0.190974 0.850137 -0.566497
F7    F     F_    0.130732 0.691074 0.149883 -0.566439
F8    F     F_    0.869792 0.690539 0.850097 -0.566401
F9    F     F_    0.648683 0.156660 0.721767 -0.536906
F10   F     F_    0.351301 0.156635 0.278225 -0.536906
F11   F     F_    0.148709 0.656646 0.721786 -0.536914
F12   F     F_    0.299132 0.194947 0.711750 -0.570312
F13   F     F_    0.851327 0.656650 0.278245 -0.536928
F14   F     F_    0.200997 0.695064 0.288262 -0.570292
F15   F     F_    0.799520 0.694503 0.711721 -0.570280
F16   F     F_    0.560514 0.074828 0.389992 -0.608376
F17   F     F_    0.439500 0.074843 0.610020 -0.608359
F18   F     F_    0.060506 0.574833 0.389987 -0.608375
F19   F     F_    0.939483 0.574831 0.610008 -0.608330
F20   F     F_    0.874131 0.308842 0.851659 -0.603243
H1    H     H_    0.909870 0.202239 0.717370 0.204587
H2    H     H_    0.085264 0.310848 0.430173 0.159770
H3    H     H_    0.414726 0.810845 0.569792 0.159769
H4    H     H_    0.585213 0.811034 0.429669 0.159514
H5    H     H_    0.688063 0.425708 0.318843 0.170665
H6    H     H_    0.311936 0.425588 0.681402 0.170710
H7    H     H_    0.188063 0.925613 0.318663 0.170684
H8    H     H_    0.811948 0.925048 0.682368 0.170831
H9    H     H_    0.847222 0.483760 0.433359 0.142964
H10   H     H_    0.152823 0.483734 0.566757 0.143014
H11   H     H_    0.347188 0.983735 0.433261 0.143015
H12   H     H_    0.090135 0.202225 0.282626 0.204595
H13   H     H_    0.653025 0.983597 0.567287 0.143263
H14   H     H_    0.522736 0.291317 0.150865 0.221190
H15   H     H_    0.477168 0.291468 0.849159 0.221182
H16   H     H_    0.022770 0.791349 0.150851 0.221239
H17   H     H_    0.976915 0.791784 0.849192 0.221227
H18   H     H_    0.624946 0.134343 0.403806 0.181702
H19   H     H_    0.375064 0.134355 0.596205 0.181738
H20   H     H_    0.124938 0.634348 0.403799 0.181711
H21   H     H_    0.875050 0.634345 0.596195 0.181834
H22   H     H_    0.015775 0.210550 0.893919 0.351055
H23   H     H_    0.409866 0.702239 0.717370 0.204589
H24   H     H_    0.984221 0.210534 0.106082 0.351056
H25   H     H_    0.515769 0.710547 0.893920 0.351038
H26   H     H_    0.484220 0.710536 0.106083 0.351053
H27   H     H_    0.685662 0.353010 0.329595 0.310588
H28   H     H_    0.314224 0.352861 0.670687 0.310493
H29   H     H_    0.185712 0.852912 0.329462 0.310544
H30   H     H_    0.813819 0.852229 0.671649 0.310219
H31   H     H_    0.768689 0.520540 0.356502 0.330631
H32   H     H_    0.231376 0.520461 0.643756 0.330640
H33   H     H_    0.268645 0.020469 0.356291 0.330639
H34   H     H_    0.590134 0.702226 0.282626 0.204599
H35   H     H_    0.731654 0.020087 0.644841 0.330704
H36   H     H_    0.996201 0.338314 0.606039 0.338615
H37   H     H_    0.003775 0.338375 0.393770 0.338618
H38   H     H_    0.496214 0.838371 0.606189 0.338587
H39   H     H_    0.503705 0.838657 0.393043 0.338604
H40   H     H_    0.609629 0.322670 0.309422 0.344329
H41   H     H_    0.390164 0.322746 0.690490 0.344469
H42   H     H_    0.109724 0.822689 0.309468 0.344385
H43   H     H_    0.889661 0.822948 0.690330 0.344866
H44   H     H_    0.783332 0.181437 0.689090 0.339301
H45   H     H_    0.812391 0.302148 0.719399 0.207963
H46   H     H_    0.216659 0.181412 0.310914 0.339327
H47   H     H_    0.283347 0.681419 0.689089 0.339323
H48   H     H_    0.716673 0.681430 0.310911 0.339329
H49   H     H_    0.754834 0.218549 0.735618 0.345618
H50   H     H_    0.245151 0.218518 0.264377 0.345605
H51   H     H_    0.254862 0.718529 0.735634 0.345610
H52   H     H_    0.745179 0.718539 0.264393 0.345609
H53   H     H_    0.536565 0.122962 0.553580 0.292618
H54   H     H_    0.463430 0.122964 0.446418 0.292620
H55   H     H_    0.036577 0.622962 0.553596 0.292625
H56   H     H_    0.187599 0.302154 0.280605 0.207957
H57   H     H_    0.963442 0.622964 0.446434 0.292614
H58   H     H_    0.312393 0.802147 0.719399 0.207961
H59   H     H_    0.687597 0.802155 0.280605 0.207957
H60   H     H_    0.914718 0.310806 0.569691 0.159831
N1    N     N_R   0.516609 0.281696 0.034213 -0.219018
N2    N     N_R   0.016178 0.292046 0.034251 -0.120859
N3    N     N_R   0.483840 0.715631 0.965763 -0.192136
N4    N     N_R   0.516182 0.792045 0.034251 -0.120875
N5    N     N_R   0.016141 0.215629 0.034228 -0.192123
N6    N     N_R   0.983807 0.292046 0.965758 -0.120856
N7    N     N_R   0.516134 0.715631 0.034228 -0.192144
N8    N     N_R   0.483811 0.792045 0.965757 -0.120893
N9    N     N_R   0.483282 0.281694 0.965792 -0.219017
N10   N     N_R   0.016477 0.781664 0.034209 -0.219135
N11   N     N_R   0.983162 0.781662 0.965790 -0.219137
N12   N     N_R   0.483087 0.205214 0.965738 -0.123247
N13   N     N_R   0.517075 0.205217 0.034266 -0.123240
N14   N     N_R   0.983247 0.705177 0.965740 -0.122989
N15   N     N_R   0.017220 0.705182 0.034267 -0.122936
N16   N     N_R   0.983846 0.215630 0.965764 -0.192126
O1    O     O_R   0.678820 0.231020 0.500020 -0.570375
O2    O     O_R   0.483800 0.045090 0.557810 -0.495571
O3    O     O_R   0.016200 0.545090 0.442190 -0.495573
O4    O     O_R   0.983800 0.545090 0.557810 -0.495588
O5    O     O_R   0.573990 0.045100 0.557780 -0.573758
O6    O     O_R   0.426010 0.045100 0.442220 -0.573691
O7    O     O_R   0.073990 0.545100 0.557780 -0.573699
O8    O     O_R   0.926010 0.545100 0.442220 -0.573679
O9    O     O_R   0.731040 0.178820 0.500000 -0.569330
O10   O     O_R   0.268960 0.178820 0.500000 -0.569230
O11   O     O_R   0.231040 0.678820 0.500000 -0.569267
O12   O     O_R   0.321180 0.231020 0.499980 -0.570422
O13   O     O_R   0.768960 0.678820 0.500000 -0.569127
O14   O     O_R   0.673970 0.276110 0.400150 -0.564211
O15   O     O_R   0.326030 0.276110 0.599850 -0.564268
O16   O     O_R   0.173970 0.776110 0.400150 -0.564275
O17   O     O_R   0.826030 0.776110 0.599850 -0.564213
O18   O     O_R   0.726190 0.223910 0.400130 -0.514853
O19   O     O_R   0.273810 0.223910 0.599870 -0.514769
O20   O     O_R   0.226190 0.723910 0.400130 -0.514804
O21   O     O_R   0.773810 0.723910 0.599870 -0.514598
O22   O     O_R   0.768980 0.321200 0.500000 -0.560465
O23   O     O_R   0.178820 0.731020 0.500020 -0.570410
O24   O     O_R   0.231020 0.321200 0.500000 -0.560522
O25   O     O_R   0.268980 0.821200 0.500000 -0.560511
O26   O     O_R   0.731020 0.821200 0.500000 -0.560725
O27   O     O_R   0.821200 0.269000 0.499980 -0.589912
O28   O     O_R   0.178800 0.269000 0.500020 -0.589909
O29   O     O_R   0.321200 0.769000 0.499980 -0.589897
O30   O     O_R   0.678800 0.769000 0.500020 -0.589830
O31   O     O_R   0.773830 0.276110 0.599860 -0.576667
O32   O     O_R   0.226170 0.276110 0.400140 -0.576686
O33   O     O_R   0.273830 0.776110 0.599860 -0.576682
O34   O     O_R   0.821180 0.731020 0.499980 -0.570499
O35   O     O_R   0.726170 0.776110 0.400140 -0.576691
O36   O     O_R   0.826050 0.223920 0.599850 -0.584254
O37   O     O_R   0.173950 0.223920 0.400150 -0.584246
O38   O     O_R   0.326050 0.723920 0.599850 -0.584246
O39   O     O_R   0.673950 0.723920 0.400150 -0.584286
O40   O     O_R   0.016230 0.454910 0.442200 -0.530964
O41   O     O_R   0.983770 0.454910 0.557800 -0.531017
O42   O     O_R   0.516230 0.954910 0.442200 -0.530630
O43   O     O_R   0.483770 0.954910 0.557800 -0.530940
O44   O     O_3   0.986020 0.198853 0.847781 -0.666057
O45   O     O_R   0.074030 0.454920 0.557790 -0.591011
O46   O     O_3   0.013980 0.198837 0.152215 -0.666059
O47   O     O_3   0.486014 0.698851 0.847781 -0.666096
O48   O     O_3   0.513979 0.698839 0.152216 -0.666067
O49   O     O_3   0.722962 0.346154 0.372176 -0.738812
O50   O     O_3   0.276980 0.346067 0.627925 -0.738926
O51   O     O_3   0.222993 0.846090 0.372117 -0.738873
O52   O     O_3   0.776780 0.845683 0.628282 -0.739352
O53   O     O_3   0.739950 0.497944 0.339986 -0.683913
O54   O     O_3   0.260099 0.497850 0.660282 -0.683892
O55   O     O_3   0.239917 0.997862 0.339774 -0.683899
O56   O     O_R   0.925970 0.454920 0.442210 -0.590997
O57   O     O_3   0.760312 0.997414 0.661383 -0.683795
O58   O     O_3   0.985865 0.366864 0.581985 -0.695715
O59   O     O_3   0.014117 0.366912 0.417869 -0.695639
O60   O     O_3   0.485874 0.866908 0.582097 -0.695787
O61   O     O_3   0.514073 0.867122 0.417338 -0.695476
O62   O     O_3   0.579754 0.301127 0.281199 -0.658738
O63   O     O_3   0.420148 0.301305 0.718844 -0.658762
O64   O     O_3   0.079789 0.801199 0.281166 -0.658747
O65   O     O_3   0.919868 0.801708 0.718909 -0.658751
O66   O     O_3   0.751834 0.186183 0.639987 -0.734932
O67   O     O_R   0.574030 0.954920 0.557790 -0.591136
O68   O     O_3   0.248158 0.186163 0.360017 -0.734896
O69   O     O_3   0.251847 0.686170 0.639988 -0.734902
O70   O     O_3   0.748170 0.686175 0.360017 -0.734879
O71   O     O_3   0.736247 0.195577 0.742825 -0.626109
O72   O     O_3   0.263735 0.195544 0.257168 -0.626115
O73   O     O_3   0.236273 0.695557 0.742840 -0.626109
O74   O     O_3   0.763762 0.695564 0.257183 -0.626131
O75   O     O_3   0.568164 0.119258 0.602592 -0.620335
O76   O     O_3   0.431832 0.119255 0.397406 -0.620339
O77   O     O_3   0.068177 0.619256 0.602606 -0.620342
O78   O     O_R   0.425970 0.954920 0.442210 -0.591021
O79   O     O_3   0.931846 0.619258 0.397422 -0.620342
O80   O     O_R   0.516200 0.045090 0.442190 -0.495588

loop_
_geom_bond_atom_site_label_1
_geom_bond_atom_site_label_2
_ccdc_geom_bond_type
C69   C139  A    
C44   O6    A    
C105  C110  A    
C133  C137  A    
C87   C91   A    
C55   F8    S    
C73   C93   S    
C21   C26   A    
Cu5   O32   S    
Cu4   O43   S    
C70   O71   S    
C101  O14   A    
C154  C158  A    
C26   O58   S    
C125  C144  S    
C82   C87   A    
C84   O11   A    
C29   C33   A    
C126  C143  S    
C142  N6    A    
C91   C96   A    
C47   O4    A    
C43   C110  S    
C34   O40   A    
C81   C86   A    
C61   H14   S    
C42   O35   A    
C97   C105  A    
C83   C88   A    
C100  C109  A    
C46   O68   S    
C130  C134  A    
Cu12  O3    S    
C118  C140  A    
C63   C67   A    
C39   C136  S    
C25   C29   A    
C144  N3    A    
H43   O65   S    
C116  C121  A    
C27   C31   A    
Cu4   O5    S    
C28   C32   A    
C35   C88   A    
C86   C90   A    
C13   C60   S    
Cu1   O14   S    
Cu7   Cu11  S    
C145  O49   S    
C155  C159  A    
C17   C21   A    
C120  O46   S    
C19   C23   A    
C1    O9    A    
C49   F12   S    
C78   C82   A    
C11   C33   A    
C16   C20   A    
Cu12  O40   S    
C152  O29   A    
C13   N11   A    
C41   C138  S    
C155  H6    S    
C129  C133  A    
Cu11  O21   S    
Cu9   O37   S    
C3    O57   S    
C119  O44   S    
C24   N15   A    
C134  H58   S    
H51   O73   S    
N1    N9    A    
C102  O15   A    
C34   O45   A    
C6    C160  A    
C53   C58   A    
C119  C123  A    
C98   H19   S    
C59   C63   A    
C30   C36   S    
C42   O39   A    
C60   C64   A    
C81   O77   S    
H33   O55   S    
C6    H11   S    
H22   O44   S    
C4    H9    S    
C52   C56   A    
C49   C53   A    
C77   F11   S    
C51   C55   A    
C87   C113  A    
C150  N9    A    
C61   C65   A    
C48   C52   A    
Cu7   O35   S    
Cu8   O36   S    
C114  C136  A    
C75   C79   A    
C58   C150  S    
Cu3   O6    S    
Cu6   O25   S    
C15   C147  A    
H38   O60   S    
C13   N14   A    
C46   C89   A    
C118  H34   S    
C5    C9    A    
C99   C108  A    
C141  N2    A    
C142  N16   A    
C158  O53   S    
C1    O1    A    
C68   C74   A    
C41   O38   A    
C151  O24   A    
C118  C122  A    
C52   F5    S    
C49   C117  A    
C115  C137  A    
N12   N13   A    
C95   O13   A    
C101  O18   A    
C114  C119  A    
C8    C12   A    
C108  F18   S    
C66   O63   S    
Cu11  O30   S    
C92   C97   A    
C19   C152  S    
C54   C59   A    
C31   C34   S    
C20   C153  S    
C62   C66   A    
C42   C140  S    
C156  C160  A    
C143  N7    A    
C47   O8    A    
C67   O64   S    
C133  H56   S    
C64   C69   A    
C39   O36   A    
C12   C145  A    
C121  C125  A    
C37   O67   A    
C123  C127  A    
C132  C136  A    
Cu3   O80   S    
C83   C110  A    
C23   C28   A    
Cu3   O42   S    
C25   H4    S    
C102  C117  S    
Cu5   O24   S    
C145  C154  A    
Cu8   O18   S    
Cu6   O23   S    
C26   C30   A    
C22   C27   A    
C124  C141  S    
C156  H7    S    
C29   O61   S    
Cu5   O12   S    
C50   F14   S    
Cu9   O28   S    
C103  O16   A    
C101  C106  S    
C146  O50   S    
Cu8   O27   S    
C36   O41   A    
C18   C22   A    
C107  C111  A    
C76   C80   A    
C40   O32   A    
C135  H59   S    
Cu6   Cu10  S    
N10   N11   A    
C130  F3    S    
C157  H8    S    
C152  O25   A    
H31   O53   S    
C2    C56   S    
C67   C128  A    
Cu10  O38   S    
C160  O55   S    
C96   C100  A    
C148  C157  A    
C89   C93   A    
C6    C10   A    
Cu2   Cu12  S    
C23   H3    S    
C70   C75   A    
C3    C157  A    
C141  N5    A    
C39   O31   A    
Cu9   O10   S    
C150  N12   A    
Cu4   O67   S    
H36   O58   S    
C58   C62   A    
H47   O69   S    
H57   O79   S    
C7    H13   S    
C21   H60   S    
C74   O74   S    
C15   C19   A    
C50   C54   A    
Cu1   O31   S    
C37   O42   A    
C105  F16   S    
C3    C7    A    
C71   C76   A    
C57   O69   S    
H41   O63   S    
C20   C25   A    
Cu3   O78   S    
C104  O21   A    
C27   O59   S    
C54   F7    S    
C71   O72   S    
H53   O75   S    
Cu5   O15   S    
C48   C106  A    
C146  C155  A    
Cu3   Cu4   S    
C66   C117  A    
C12   C17   A    
C36   O56   A    
C149  O22   A    
C35   O66   S    
Cu7   O26   S    
H32   O54   S    
C55   C60   A    
Cu5   Cu9   S    
H25   O47   S    
C116  H23   S    
Cu12  O8    S    
Cu8   O9    S    
C90   C94   A    
C135  C140  A    
H30   O52   S    
C100  H21   S    
C151  O28   A    
H49   O71   S    
C57   C90   A    
H55   O77   S    
C85   C89   A    
Cu1   O1    S    
C45   O7    A    
C33   C37   S    
C98   C107  A    
C108  C112  A    
H48   O70   S    
C9    C14   A    
C80   C85   A    
C11   C16   A    
C69   O65   S    
C77   C81   A    
Cu2   O4    S    
C40   C137  S    
C107  F17   S    
C79   O75   S    
C78   F13   S    
C84   C94   S    
C147  C156  A    
C46   C71   A    
C1    C92   S    
C153  O26   A    
C64   H17   S    
C50   C128  A    
C18   C151  S    
C2    N1    A    
C62   H15   S    
C47   C113  S    
Cu4   O2    S    
Cu9   O19   S    
Cu10  O20   S    
C38   O43   A    
C85   C111  A    
C148  O52   S    
H37   O59   S    
C63   H16   S    
C43   O5    A    
C73   O10   A    
C149  O27   A    
C104  C139  S    
C8    C30   A    
Cu7   O17   S    
C79   C83   A    
C123  C142  S    
C124  C129  A    
C57   C72   A    
C103  O20   A    
Cu12  O56   S    
C51   F15   S    
H42   O64   S    
C44   C111  S    
H52   O74   S    
C74   C78   A    
C24   N10   A    
C56   C61   A    
H54   O76   S    
C82   O79   S    
C153  O30   A    
H39   O61   S    
C114  H1    S    
C14   C18   A    
C95   C96   S    
Cu6   O16   S    
C4    C8    A    
C53   F6    S    
H35   O57   S    
C45   C112  S    
C7    C11   A    
Cu11  O39   S    
C126  C131  A    
C131  C135  A    
C10   C15   A    
C24   C59   S    
N2    N6    A    
N4    N8    A    
C68   C91   A    
Cu2   O41   S    
H50   O72   S    
C127  C132  A    
C125  C130  A    
C4    C158  A    
C88   C92   A    
C35   C70   A    
C5    C159  A    
C159  O54   S    
C32   C38   S    
C38   O78   A    
C43   O80   A    
C109  C113  A    
C104  O17   A    
C68   O70   S    
H24   O46   S    
C80   O76   S    
C115  H12   S    
N5    N16   A    
H26   O48   S    
C76   F10   S    
H28   O50   S    
C116  C138  A    
C99   H20   S    
H29   O51   S    
C73   O12   A    
N3    N7    A    
C97   H18   S    
C5    H10   S    
C154  H5    S    
C41   O33   A    
Cu6   O33   S    
C2    N13   A    
C147  O51   S    
H40   O62   S    
C102  O19   A    
C122  C126  A    
Cu2   O45   S    
C86   C112  A    
C132  H45   S    
C72   C77   A    
Cu10  O11   S    
Cu10  O29   S    
H27   O49   S    
Cu2   O7    S    
C72   O73   S    
C103  C128  S    
C143  N4    A    
C40   O37   A    
C75   F9    S    
C65   C106  A    
C44   O2    A    
C48   F1    S    
C45   O3    A    
C17   C149  S    
C134  C138  A    
C121  O47   S    
C14   C146  A    
C122  O48   S    
C127  F20   S    
C16   C148  A    
Cu1   O22   S    
C28   O60   S    
C84   O23   A    
C94   C99   A    
C109  F19   S    
Cu7   O34   S    
C95   O34   A    
C129  F2    S    
Cu1   Cu8   S    
N14   N15   A    
C9    C31   A    
C144  N8    A    
C10   C32   A    
H44   O66   S    
C115  C120  A    
C131  F4    S    
C22   H2    S    
H46   O68   S    
Cu11  O13   S    
C93   C98   A    
C65   O62   S    
C120  C124  A    
C51   C139  A    
