data_mof_unit_pretest_55.cif
_audit_creation_date              2012-12-10T17:33:08-0500
_audit_creation_method            fapswitch 2.2
_symmetry_space_group_name_H-M    P1
_symmetry_Int_Tables_number       1
_space_group_crystal_system       triclinic
_cell_length_a                    11.993737
_cell_length_b                    12.862116
_cell_length_c                    13.600487
_cell_angle_alpha                 90.997449
_cell_angle_beta                  79.601587
_cell_angle_gamma                 92.918282
_cell_volume                      2060.8707606

loop_
_atom_site_label
_atom_site_type_symbol
_atom_type_description
_atom_site_fract_x
_atom_site_fract_y
_atom_site_fract_z
_atom_type_partial_charge
C1    C     C_R   0.521571 0.699707 0.499445 1.018089
C2    C     C_R   0.149174 0.463925 0.453833 0.758676
C3    C     C_R   0.969917 0.531114 0.537962 -0.096249
C4    C     C_R   0.030060 0.469098 0.462058 -0.110424
C5    C     C_R   0.480434 0.502283 0.686883 0.939870
C6    C     C_R   0.519710 0.498376 0.313046 0.909179
C7    C     C_1   0.534442 0.496343 0.208572 -0.155729
C8    C     C_1   0.467155 0.512233 0.790837 -0.123969
C9    C     C_2   0.548064 0.495657 0.015281 0.411012
C10   C     C_2   0.457911 0.531229 0.983343 0.397874
C11   C     C_1   0.458985 0.521899 0.878610 -0.079945
C12   C     C_R   0.478571 0.299293 0.502006 1.001091
C13   C     C_1   0.544545 0.495248 0.120230 -0.042687
C14   C     C_R   0.467426 0.187409 0.499173 -0.406344
C15   C     C_R   0.531810 0.809495 0.509294 -0.357527
C16   C     C_R   0.571967 0.958843 0.609495 0.424439
C17   C     C_R   0.388829 0.032287 0.429653 0.446372
C18   C     C_R   0.573935 0.851489 0.591256 0.407973
C19   C     C_R   0.391333 0.139661 0.443572 0.441396
C20   C     C_R   0.476595 0.868876 0.449934 0.395124
C21   C     C_R   0.538221 0.127833 0.545941 0.457199
C22   C     C_3   0.276696 0.602523 0.009633 0.107260
C23   C     C_R   0.462072 0.973299 0.474076 -0.275596
C24   C     C_3   0.294327 0.710316 0.961042 -0.369371
C25   C     C_3   0.193158 0.735793 0.913502 -0.940505
C26   C     C_3   0.741366 0.477976 0.960935 0.070847
C27   C     C_3   0.777537 0.578703 0.902552 -0.333717
C28   C     C_3   0.900957 0.611670 0.905640 -0.977967
C29   C     C_3   0.725415 0.188161 0.512586 0.163179
C30   C     C_3   0.807295 0.100066 0.508826 -0.423469
C31   C     C_3   0.912675 0.120268 0.428824 -0.939222
C32   C     C_3   0.519125 0.825754 0.285283 0.100182
C33   C     C_3   0.469406 0.784951 0.195397 -0.257714
C34   C     C_R   0.523129 0.020069 0.544721 -0.230921
C35   C     C_3   0.559820 0.785028 0.100657 -0.999536
C36   C     C_3   0.695522 0.972515 0.726152 0.185305
C37   C     C_3   0.669355 0.916704 0.826947 -0.281964
C38   C     C_3   0.776528 0.874436 0.853714 -0.967642
C39   C     C_3   0.204788 0.981594 0.418586 0.150556
C40   C     C_3   0.179089 0.888166 0.489246 -0.366356
C41   C     C_3   0.053870 0.880026 0.537831 -0.969285
C42   C     C_R   0.969713 0.414313 0.396488 -0.268436
C43   C     C_R   0.030462 0.586666 0.602937 -0.279537
C44   C     C_R   0.851707 0.421701 0.407537 -0.174284
C45   C     C_R   0.148692 0.580086 0.591202 -0.128008
C46   C     C_R   0.850707 0.535864 0.546429 0.743453
F1    F     F_    0.327271 0.197788 0.394815 -0.603416
F2    F     F_    0.608244 0.786123 0.656081 -0.657762
F3    F     F_    0.208012 0.402728 0.382581 -0.616315
F4    F     F_    0.791805 0.597091 0.617631 -0.650508
H1    H     H_    0.194688 0.622989 0.641579 0.163716
H2    H     H_    0.208173 0.814121 0.879179 0.273260
H3    H     H_    0.114574 0.735844 0.970991 0.265349
H4    H     H_    0.799537 0.416655 0.928742 0.181250
H5    H     H_    0.751966 0.487700 0.040281 0.129360
H6    H     H_    0.767492 0.566632 0.823443 0.285477
H7    H     H_    0.722270 0.641932 0.935157 0.211942
H8    H     H_    0.912385 0.626134 0.984049 0.263510
H9    H     H_    0.925117 0.684385 0.862626 0.274506
H10   H     H_    0.958099 0.550257 0.871787 0.267651
H11   H     H_    0.770640 0.260905 0.531900 0.180615
H12   H     H_    0.805938 0.379731 0.356443 0.161913
H13   H     H_    0.706107 0.198706 0.436138 0.119108
H14   H     H_    0.835024 0.094581 0.581826 0.219940
H15   H     H_    0.765318 0.025035 0.491110 0.209993
H16   H     H_    0.888624 0.129915 0.354490 0.262136
H17   H     H_    0.967818 0.053190 0.424598 0.263105
H18   H     H_    0.961349 0.191266 0.447782 0.283431
H19   H     H_    0.589169 0.775672 0.295721 0.104761
H20   H     H_    0.553966 0.907037 0.269279 0.148991
H21   H     H_    0.433109 0.704378 0.210351 0.247925
H22   H     H_    0.399987 0.834841 0.183733 0.240114
H23   H     H_    0.013115 0.366283 0.336878 0.215033
H24   H     H_    0.596502 0.865195 0.084095 0.268336
H25   H     H_    0.521393 0.756405 0.036312 0.279002
H26   H     H_    0.628603 0.733272 0.109677 0.258165
H27   H     H_    0.747464 0.044314 0.736907 0.136686
H28   H     H_    0.749152 0.925312 0.668200 0.150493
H29   H     H_    0.632909 0.972312 0.886161 0.211018
H30   H     H_    0.605544 0.851421 0.825235 0.269383
H31   H     H_    0.811816 0.815847 0.797130 0.296443
H32   H     H_    0.756035 0.836695 0.927959 0.268710
H33   H     H_    0.841370 0.938622 0.856908 0.258552
H34   H     H_    0.987024 0.634694 0.662532 0.201643
H35   H     H_    0.150715 0.971981 0.360498 0.162774
H36   H     H_    0.180092 0.054905 0.459908 0.158996
H37   H     H_    0.201227 0.815217 0.446791 0.269763
H38   H     H_    0.230856 0.896659 0.549161 0.219319
H39   H     H_    0.029076 0.952886 0.579318 0.263086
H40   H     H_    0.038789 0.814619 0.591422 0.279360
H41   H     H_    0.000007 0.865341 0.480151 0.272948
H42   H     H_    0.202980 0.604952 0.072050 0.171953
H43   H     H_    0.252888 0.541217 0.957290 0.138191
H44   H     H_    0.305461 0.770199 0.018844 0.230821
H45   H     H_    0.372016 0.713718 0.902542 0.229382
H46   H     H_    0.181627 0.677751 0.854240 0.263072
N1    N     N_R   0.206090 0.519450 0.517820 -0.146974
N2    N     N_R   0.793910 0.480550 0.482180 -0.146449
O1    O     O_R   0.421240 0.658850 0.504760 -0.615671
O2    O     O_3   0.630300 0.443179 0.950079 -0.646876
O3    O     O_3   0.626597 0.173482 0.587769 -0.583831
O4    O     O_3   0.432949 0.822784 0.371154 -0.592583
O5    O     O_3   0.593610 0.003409 0.698928 -0.592057
O6    O     O_3   0.319343 0.985811 0.368606 -0.576263
O7    O     O_R   0.578760 0.341150 0.495240 -0.646148
O8    O     O_R   0.609960 0.646370 0.493320 -0.568145
O9    O     O_R   0.390040 0.353630 0.506680 -0.539659
O10   O     O_R   0.392060 0.507120 0.646890 -0.655837
O11   O     O_R   0.607940 0.492880 0.353110 -0.654511
O12   O     O_R   0.580780 0.494630 0.635450 -0.539409
O13   O     O_R   0.419220 0.505370 0.364550 -0.540358
O14   O     O_3   0.372253 0.578055 0.051124 -0.668305
Zn1   Zn    Zn3+2 0.373990 0.508340 0.507630 1.030736
Zn2   Zn    Zn3+2 0.626010 0.491660 0.492370 1.006486

loop_
_geom_bond_atom_site_label_1
_geom_bond_atom_site_label_2
_ccdc_geom_bond_type
C31   H16   S    
C41   H39   S    
C29   H13   S    
C35   H24   S    
C30   H14   S    
C38   H33   S    
C15   C18   A    
C6    O13   A    
C26   H5    S    
C1    O1    A    
C39   O6    S    
C31   H17   S    
C37   H29   S    
C3    C43   A    
C26   C27   S    
C29   C30   S    
O8    Zn2   S    
C36   O5    S    
C14   C21   A    
C36   C37   S    
C17   O6    S    
C25   H3    S    
C36   H27   S    
C30   C31   S    
C19   F1    S    
N2    Zn2   S    
C20   O4    S    
C5    O12   A    
C45   H1    S    
C9    C13   S    
O9    Zn1   S    
C33   H22   S    
C16   C34   A    
C44   N2    A    
C2    N1    A    
C10   O14   S    
C1    C15   S    
C9    C10   D    
O12   Zn2   S    
C1    O8    A    
C21   O3    S    
C41   H40   S    
C46   N2    A    
C38   H32   S    
C43   H34   S    
C15   C20   A    
C42   C44   A    
C26   H4    S    
C28   H10   S    
C31   H18   S    
C37   H30   S    
C29   H11   S    
C35   H26   S    
O7    Zn2   S    
C24   C25   S    
C27   H7    S    
C24   H45   S    
C39   C40   S    
C27   H6    S    
C17   C19   A    
C32   H20   S    
C21   C34   A    
C44   H12   S    
O10   Zn1   S    
C2    C4    A    
C37   C38   S    
C2    F3    S    
C24   H44   S    
C5    C8    S    
C16   O5    S    
C20   C23   A    
C23   C34   A    
C35   H25   S    
C29   O3    S    
O13   Zn1   S    
C17   C23   A    
C43   C45   A    
C6    C7    S    
O11   Zn2   S    
C40   C41   S    
C41   H41   S    
C12   C14   S    
C9    O2    S    
C22   O14   S    
C38   H31   S    
C22   H43   S    
C32   O4    S    
C39   H35   S    
N1    Zn1   S    
C3    C4    A    
C40   H37   S    
C28   H9    S    
C42   H23   S    
C14   C19   A    
C18   F2    S    
O1    Zn1   S    
C12   O9    A    
C32   H19   S    
C28   H8    S    
C6    O11   A    
C46   F4    S    
C3    C46   A    
C32   C33   S    
C40   H38   S    
C25   H2    S    
C45   N1    A    
C12   O7    A    
C4    C42   A    
C8    C11   T    
C33   C35   S    
C22   C24   S    
C30   H15   S    
C10   C11   S    
C33   H21   S    
C7    C13   T    
C25   H46   S    
C16   C18   A    
C27   C28   S    
C22   H42   S    
C36   H28   S    
C39   H36   S    
C26   O2    S    
C5    O10   A    
