data_mof_unit_pretest_1513.cif
_audit_creation_date              2012-12-10T17:55:56-0500
_audit_creation_method            fapswitch 2.2
_symmetry_space_group_name_H-M    P1
_symmetry_Int_Tables_number       1
_space_group_crystal_system       triclinic
_cell_length_a                    18.3678
_cell_length_b                    18.334151
_cell_length_c                    26.039094
_cell_angle_alpha                 90.000518
_cell_angle_beta                  89.997744
_cell_angle_gamma                 90.016275
_cell_volume                      8768.87334425

loop_
_atom_site_label
_atom_site_type_symbol
_atom_type_description
_atom_site_fract_x
_atom_site_fract_y
_atom_site_fract_z
_atom_type_partial_charge
C1    C     C_R   0.140059 0.859803 0.249980 0.513318
C2    C     C_R   0.243072 0.798372 0.207515 -0.117056
C3    C     C_3   0.681296 0.685790 0.124547 -0.274908
C4    C     C_1   0.908019 0.099428 0.054531 0.229346
C5    C     C_1   0.907911 0.099336 0.945491 0.231323
C6    C     C_1   0.092183 0.900618 0.054522 0.230243
C7    C     C_1   0.092199 0.900641 0.945483 0.230516
C8    C     C_1   0.408019 0.599428 0.554531 0.229345
C9    C     C_1   0.407912 0.599337 0.445491 0.231323
C10   C     C_1   0.592182 0.400618 0.554522 0.230243
C11   C     C_1   0.592198 0.400640 0.445483 0.230516
C12   C     C_R   0.732728 0.822484 0.765151 -0.122578
C13   C     C_R   0.756477 0.798829 0.207743 -0.122108
C14   C     C_R   0.739646 0.295047 0.293868 -0.118672
C15   C     C_R   0.743076 0.298376 0.707517 -0.117056
C16   C     C_R   0.232729 0.322483 0.265155 -0.122579
C17   C     C_R   0.256477 0.298829 0.707743 -0.122108
C18   C     C_R   0.793603 0.241723 0.294922 0.118732
C19   C     C_R   0.795718 0.243807 0.705745 0.125866
C20   C     C_R   0.177393 0.270470 0.263586 0.130671
C21   C     C_R   0.140018 0.859790 0.750022 0.510941
C22   C     C_R   0.203847 0.244242 0.705933 0.128281
C23   C     C_R   0.293609 0.741728 0.794919 0.118732
C24   C     C_R   0.295714 0.743802 0.205743 0.125867
C25   C     C_R   0.677392 0.770471 0.763582 0.130673
C26   C     C_R   0.703847 0.744243 0.205933 0.128281
C27   C     C_R   0.803127 0.196027 0.251640 0.060429
C28   C     C_R   0.802049 0.194906 0.747609 0.061240
C29   C     C_R   0.194332 0.198441 0.248298 0.065105
C30   C     C_R   0.197975 0.194877 0.747558 0.062623
C31   C     C_R   0.303127 0.696027 0.751641 0.060429
C32   C     C_R   0.859940 0.859811 0.249986 0.509016
C33   C     C_R   0.302048 0.694906 0.247609 0.061241
C34   C     C_R   0.694332 0.698441 0.748298 0.065107
C35   C     C_R   0.697975 0.694877 0.247558 0.062623
C36   C     C_R   0.953769 0.047946 0.027034 -0.049654
C37   C     C_R   0.953746 0.047926 0.972980 -0.049984
C38   C     C_R   0.046317 0.952012 0.027032 -0.048819
C39   C     C_R   0.046320 0.952018 0.972974 -0.048979
C40   C     C_R   0.453769 0.547946 0.527034 -0.049654
C41   C     C_R   0.453746 0.547927 0.472980 -0.049983
C42   C     C_R   0.546317 0.452012 0.527032 -0.048819
C43   C     C_R   0.859879 0.859850 0.749970 0.506405
C44   C     C_R   0.546320 0.452018 0.472974 -0.048978
C45   C     C_R   0.000015 0.999961 0.945770 -0.012259
C46   C     C_R   0.000025 0.999968 0.054237 -0.012082
C47   C     C_R   0.500015 0.499961 0.445770 -0.012259
C48   C     C_R   0.500025 0.499968 0.554237 -0.012082
C49   C     C_R   0.859514 0.139935 0.250578 0.524981
C50   C     C_R   0.859308 0.139713 0.749274 0.518133
C51   C     C_R   0.139573 0.140791 0.249524 0.513611
C52   C     C_R   0.140699 0.139698 0.749258 0.513661
C53   C     C_R   0.359514 0.639936 0.750578 0.524979
C54   C     C_R   0.640059 0.359803 0.749980 0.513319
C55   C     C_R   0.359308 0.639713 0.249274 0.518132
C56   C     C_R   0.639573 0.640790 0.749524 0.513611
C57   C     C_R   0.640699 0.639698 0.249258 0.513661
C58   C     C_R   0.000006 0.999974 0.111007 0.508789
C59   C     C_R   0.000003 0.999971 0.888995 0.511862
C60   C     C_R   0.500006 0.499974 0.611007 0.508789
C61   C     C_R   0.500002 0.499971 0.388995 0.511862
C62   C     C_R   0.999498 0.999958 0.388592 0.513097
C63   C     C_R   0.000446 0.999964 0.611415 0.503173
C64   C     C_R   0.499498 0.499957 0.888592 0.513096
C65   C     C_R   0.640018 0.359790 0.250022 0.510940
C66   C     C_R   0.500446 0.499964 0.111415 0.503173
C67   C     C_2   0.997877 0.059921 0.528152 -0.167144
C68   C     C_2   0.001170 0.059944 0.471887 -0.158472
C69   C     C_2   0.497877 0.559921 0.028152 -0.167144
C70   C     C_2   0.501170 0.559944 0.971887 -0.158472
C71   C     C_2   0.003991 0.998784 0.556016 -0.094909
C72   C     C_2   0.995831 0.998742 0.444002 -0.090459
C73   C     C_2   0.503991 0.498784 0.056016 -0.094909
C74   C     C_2   0.495831 0.498742 0.944002 -0.090459
C75   C     C_R   0.757688 0.203969 0.208725 -0.160867
C76   C     C_R   0.359940 0.359811 0.749986 0.509016
C77   C     C_R   0.753468 0.199749 0.789026 -0.160116
C78   C     C_R   0.265054 0.181079 0.232131 -0.165372
C79   C     C_R   0.247032 0.199246 0.788720 -0.166960
C80   C     C_R   0.257682 0.703964 0.708728 -0.160866
C81   C     C_R   0.253472 0.699753 0.289028 -0.160116
C82   C     C_R   0.765056 0.681077 0.732136 -0.165371
C83   C     C_R   0.747032 0.699246 0.288720 -0.166960
C84   C     C_R   0.204040 0.757164 0.708236 -0.145530
C85   C     C_R   0.200240 0.753283 0.289716 -0.145539
C86   C     C_R   0.819081 0.733916 0.732303 -0.144277
C87   C     C_R   0.359879 0.359850 0.249970 0.506406
C88   C     C_R   0.800246 0.752800 0.289430 -0.146729
C89   C     C_R   0.704045 0.257169 0.208233 -0.145529
C90   C     C_R   0.700237 0.253279 0.789714 -0.145539
C91   C     C_R   0.319079 0.233918 0.232299 -0.144278
C92   C     C_R   0.300246 0.252800 0.789431 -0.146729
C93   C     C_R   0.195414 0.803286 0.750584 0.014333
C94   C     C_R   0.195373 0.803173 0.249237 0.014910
C95   C     C_R   0.803276 0.804462 0.749397 0.016834
C96   C     C_R   0.804633 0.803172 0.249226 0.016152
C97   C     C_R   0.695414 0.303286 0.250584 0.014333
C98   C     C_R   0.239651 0.795052 0.793866 -0.118672
C99   C     C_R   0.695373 0.303173 0.749237 0.014910
C100  C     C_R   0.303276 0.304463 0.249397 0.016833
C101  C     C_R   0.304633 0.303172 0.749226 0.016152
C102  C     C_3   0.893306 0.283907 0.347232 -0.271255
C103  C     C_3   0.817255 0.184543 0.624532 -0.271889
C104  C     C_3   0.060522 0.306687 0.230642 -0.285197
C105  C     C_3   0.181297 0.185790 0.624547 -0.274909
C106  C     C_3   0.393320 0.783920 0.847219 -0.271259
C107  C     C_3   0.317244 0.684526 0.124534 -0.271890
C108  C     C_3   0.560525 0.806683 0.730628 -0.285200
H1    H     H_    0.991301 0.112405 0.546973 0.150821
H2    H     H_    0.757228 0.162747 0.821357 0.159706
H3    H     H_    0.278868 0.126280 0.219993 0.142076
H4    H     H_    0.243675 0.161849 0.820844 0.144894
H5    H     H_    0.264120 0.669491 0.675240 0.160959
H6    H     H_    0.257235 0.662754 0.321360 0.159708
H7    H     H_    0.778871 0.626277 0.720001 0.142073
H8    H     H_    0.743676 0.661848 0.320844 0.144894
H9    H     H_    0.170012 0.762891 0.674496 0.146793
H10   H     H_    0.163663 0.756330 0.322282 0.148059
H11   H     H_    0.873486 0.719304 0.719967 0.144496
H12   H     H_    0.007129 0.112512 0.453086 0.155475
H13   H     H_    0.837197 0.755466 0.321801 0.145267
H14   H     H_    0.670021 0.262901 0.174492 0.146791
H15   H     H_    0.663656 0.256324 0.822278 0.148060
H16   H     H_    0.373483 0.219306 0.219960 0.144499
H17   H     H_    0.337196 0.255466 0.821801 0.145267
H18   H     H_    0.231928 0.829535 0.827241 0.154184
H19   H     H_    0.238391 0.835927 0.175534 0.150462
H20   H     H_    0.719937 0.877711 0.776952 0.128211
H21   H     H_    0.760766 0.836775 0.175965 0.134218
H22   H     H_    0.731919 0.329526 0.327245 0.154185
H23   H     H_    0.491301 0.612405 0.046973 0.150823
H24   H     H_    0.738398 0.335934 0.675538 0.150461
H25   H     H_    0.219939 0.377709 0.276960 0.128215
H26   H     H_    0.260766 0.336774 0.675965 0.134218
H27   H     H_    0.802830 0.228135 0.373022 0.250846
H28   H     H_    0.870948 0.339773 0.352314 0.125038
H29   H     H_    0.930196 0.283082 0.313508 0.177958
H30   H     H_    0.925524 0.269347 0.381823 0.146634
H31   H     H_    0.852707 0.287735 0.644559 0.247150
H32   H     H_    0.857913 0.180463 0.593097 0.144643
H33   H     H_    0.811993 0.130000 0.642746 0.152624
H34   H     H_    0.507129 0.612512 0.953086 0.155477
H35   H     H_    0.763952 0.200816 0.607880 0.142812
H36   H     H_    0.101420 0.333066 0.302274 0.240153
H37   H     H_    0.083705 0.353144 0.208605 0.133167
H38   H     H_    0.004465 0.321212 0.242737 0.131444
H39   H     H_    0.057356 0.257887 0.205461 0.158206
H40   H     H_    0.146253 0.288839 0.645270 0.244759
H41   H     H_    0.234405 0.202178 0.607633 0.128108
H42   H     H_    0.140234 0.182013 0.593356 0.147088
H43   H     H_    0.186738 0.131078 0.642474 0.155825
H44   H     H_    0.302847 0.728156 0.873020 0.250847
H45   H     H_    0.013355 0.945901 0.538860 0.109501
H46   H     H_    0.370963 0.839787 0.852295 0.125036
H47   H     H_    0.430206 0.783087 0.813493 0.177964
H48   H     H_    0.425541 0.769369 0.881809 0.146634
H49   H     H_    0.352694 0.787723 0.144550 0.247152
H50   H     H_    0.357899 0.680444 0.093097 0.144644
H51   H     H_    0.311987 0.629986 0.142752 0.152621
H52   H     H_    0.263939 0.700794 0.107884 0.142811
H53   H     H_    0.601414 0.833072 0.802261 0.240152
H54   H     H_    0.583710 0.853137 0.708588 0.133169
H55   H     H_    0.504467 0.821211 0.742719 0.131441
H56   H     H_    0.986984 0.945756 0.461146 0.106994
H57   H     H_    0.557360 0.757878 0.705451 0.158205
H58   H     H_    0.646252 0.788839 0.145270 0.244760
H59   H     H_    0.734404 0.702179 0.107633 0.128108
H60   H     H_    0.640234 0.682014 0.093355 0.147089
H61   H     H_    0.686738 0.631078 0.142474 0.155824
H62   H     H_    0.513355 0.445901 0.038860 0.109501
H63   H     H_    0.486984 0.445756 0.961146 0.106994
H64   H     H_    0.764129 0.169500 0.175236 0.160961
N1    N     N_2   0.834933 0.231770 0.340607 -0.488795
N2    N     N_1   0.871395 0.140310 0.923587 -0.289530
N3    N     N_1   0.128726 0.859656 0.076418 -0.302725
N4    N     N_1   0.128755 0.859690 0.923588 -0.302802
N5    N     N_1   0.371579 0.640464 0.576442 -0.297870
N6    N     N_1   0.371396 0.640310 0.423587 -0.289533
N7    N     N_1   0.628726 0.359656 0.576418 -0.302723
N8    N     N_1   0.628754 0.359689 0.423588 -0.302807
N9    N     N_2   0.841178 0.238246 0.661599 -0.481129
N10   N     N_2   0.104752 0.291792 0.275436 -0.492939
N11   N     N_2   0.157906 0.239176 0.662003 -0.480990
N12   N     N_2   0.334945 0.731784 0.840602 -0.488793
N13   N     N_2   0.341169 0.738237 0.161595 -0.481131
N14   N     N_2   0.604750 0.791794 0.775425 -0.492943
N15   N     N_2   0.657906 0.739176 0.162003 -0.480990
N16   N     N_1   0.871579 0.140464 0.076442 -0.297872
O1    O     O_3   0.000000 0.000000 0.250030 -0.447177
O2    O     O_R   0.585480 0.353820 0.219950 -0.545471
O3    O     O_R   0.414520 0.353820 0.780050 -0.545306
O4    O     O_R   0.414520 0.353820 0.219950 -0.543376
O5    O     O_R   0.914530 0.146170 0.280090 -0.514911
O6    O     O_R   0.914530 0.146170 0.719910 -0.503595
O7    O     O_R   0.085470 0.146170 0.280090 -0.511583
O8    O     O_R   0.085470 0.146170 0.719910 -0.502980
O9    O     O_R   0.414530 0.646170 0.780090 -0.514907
O10   O     O_R   0.414530 0.646170 0.219910 -0.503595
O11   O     O_R   0.585470 0.646170 0.780090 -0.511585
O12   O     O_3   0.000000 1.000000 0.749970 -0.447693
O13   O     O_R   0.585470 0.646170 0.219910 -0.502980
O14   O     O_R   0.146180 0.085440 0.219990 -0.557224
O15   O     O_R   0.146180 0.085440 0.780010 -0.559131
O16   O     O_R   0.853820 0.085440 0.219990 -0.546196
O17   O     O_R   0.853820 0.085440 0.780010 -0.552144
O18   O     O_R   0.646180 0.585440 0.719990 -0.557224
O19   O     O_R   0.646180 0.585440 0.280010 -0.559130
O20   O     O_R   0.353820 0.585440 0.719990 -0.546198
O21   O     O_R   0.353820 0.585440 0.280010 -0.552145
O22   O     O_R   0.853820 0.914550 0.219980 -0.546249
O23   O     O_3   0.500000 0.500000 0.750030 -0.447177
O24   O     O_R   0.853820 0.914550 0.780020 -0.546680
O25   O     O_R   0.146180 0.914550 0.219980 -0.539222
O26   O     O_R   0.146180 0.914550 0.780020 -0.539853
O27   O     O_R   0.353820 0.414550 0.719980 -0.546249
O28   O     O_R   0.353820 0.414550 0.280020 -0.546681
O29   O     O_R   0.646180 0.414550 0.719980 -0.539223
O30   O     O_R   0.646180 0.414550 0.280020 -0.539852
O31   O     O_R   0.060720 0.999990 0.135450 -0.529238
O32   O     O_R   0.060720 0.999990 0.864550 -0.529225
O33   O     O_R   0.939280 0.999990 0.135450 -0.531204
O34   O     O_3   0.500000 0.500000 0.249970 -0.447693
O35   O     O_R   0.939280 0.999990 0.864550 -0.527429
O36   O     O_R   0.560720 0.499990 0.635450 -0.529238
O37   O     O_R   0.560720 0.499990 0.364550 -0.529225
O38   O     O_R   0.439280 0.499990 0.635450 -0.531204
O39   O     O_R   0.439280 0.499990 0.364550 -0.527429
O40   O     O_R   0.000000 0.939270 0.364600 -0.543165
O41   O     O_R   0.000000 0.939270 0.635400 -0.541936
O42   O     O_R   0.500000 0.439270 0.864600 -0.543165
O43   O     O_R   0.500000 0.439270 0.135400 -0.541936
O44   O     O_R   0.000000 0.060730 0.364620 -0.536923
O45   O     O_R   0.085480 0.853820 0.280050 -0.545510
O46   O     O_R   0.000000 0.060730 0.635380 -0.544347
O47   O     O_R   0.500000 0.560730 0.864620 -0.536923
O48   O     O_R   0.500000 0.560730 0.135380 -0.544346
O49   O     O_R   0.085480 0.853820 0.719950 -0.545473
O50   O     O_R   0.914520 0.853820 0.280050 -0.545306
O51   O     O_R   0.914520 0.853820 0.719950 -0.543375
O52   O     O_R   0.585480 0.353820 0.780050 -0.545511
Zn1   Zn    Zn3+2 0.000000 0.086760 0.292960 0.949879
Zn2   Zn    Zn3+2 0.586770 0.499990 0.292890 0.948482
Zn3   Zn    Zn3+2 0.413230 0.499990 0.707110 0.951452
Zn4   Zn    Zn3+2 0.413230 0.499990 0.292890 0.949565
Zn5   Zn    Zn3+2 0.000000 0.913240 0.292940 0.939024
Zn6   Zn    Zn3+2 0.000000 0.913240 0.707060 0.934225
Zn7   Zn    Zn3+2 0.500000 0.413240 0.792940 0.939024
Zn8   Zn    Zn3+2 0.500000 0.413240 0.207060 0.934225
Zn9   Zn    Zn3+2 0.000000 0.086760 0.707040 0.952935
Zn10  Zn    Zn3+2 0.500000 0.586760 0.792960 0.949881
Zn11  Zn    Zn3+2 0.500000 0.586760 0.207040 0.952936
Zn12  Zn    Zn3+2 0.086770 0.999990 0.207110 0.948642
Zn13  Zn    Zn3+2 0.086770 0.999990 0.792890 0.948482
Zn14  Zn    Zn3+2 0.913230 0.999990 0.207110 0.951453
Zn15  Zn    Zn3+2 0.913230 0.999990 0.792890 0.949566
Zn16  Zn    Zn3+2 0.586770 0.499990 0.707110 0.948641

loop_
_geom_bond_atom_site_label_1
_geom_bond_atom_site_label_2
_ccdc_geom_bond_type
C33   C55   S    
O14   Zn12  S    
C108  H57   S    
C4    C36   S    
O28   Zn4   S    
C5    C37   S    
C10   C42   S    
O3    Zn7   S    
C90   H15   S    
C14   C18   A    
C21   O49   A    
O43   Zn8   S    
C52   O8    A    
O20   Zn3   S    
O23   Zn16  S    
C80   C84   A    
O18   Zn16  S    
C92   H17   S    
C19   N9    S    
C58   O31   A    
C88   C96   A    
C107  H52   S    
O34   Zn2   S    
C3    H59   S    
C31   C80   A    
C86   H11   S    
C102  N1    S    
C15   C19   A    
C105  H42   S    
C81   C85   A    
C61   O39   A    
C32   O50   A    
C79   H4    S    
C14   C97   A    
O1    Zn12  S    
C10   N7    T    
H27   N1    S    
C108  N14   S    
C36   C37   A    
H49   N13   S    
C82   H7    S    
C59   O32   A    
C14   H22   S    
C38   C39   A    
C62   O40   A    
C31   C53   S    
C55   O10   A    
C6    N3    T    
C71   H45   S    
C103  H33   S    
C53   O20   A    
C32   O22   A    
O46   Zn9   S    
O25   Zn12  S    
C102  H30   S    
O23   Zn7   S    
C8    C40   S    
C17   C101  A    
O22   Zn14  S    
O27   Zn3   S    
O33   Zn14  S    
C28   C50   S    
C8    N5    T    
C67   H1    S    
C15   H24   S    
C7    N4    T    
C1    O45   A    
C84   H9    S    
C106  H46   S    
C74   H63   S    
C81   H6    S    
C70   C74   D    
O52   Zn7   S    
C43   C95   S    
C87   O28   A    
C6    C38   S    
C12   C95   A    
C36   C46   A    
O1    Zn14  S    
C91   C100  A    
H44   N12   S    
C2    C24   A    
C60   O38   A    
H31   N9    S    
C51   O14   A    
C68   C72   D    
O12   Zn13  S    
C63   O41   A    
C56   O11   A    
C2    H19   S    
C83   C88   A    
O7    Zn1   S    
C49   O16   A    
C9    N6    T    
C5    N2    T    
C46   C58   S    
O26   Zn13  S    
C104  H39   S    
C85   H10   S    
O34   Zn8   S    
C27   C75   A    
C16   H25   S    
C60   O36   A    
O21   Zn4   S    
C65   O2    A    
C58   O33   A    
C3    H60   S    
C48   C60   S    
C20   C29   A    
C41   C47   A    
C105  H43   S    
C108  H55   S    
H36   N10   S    
C77   C90   A    
C70   H34   S    
C29   C78   A    
C13   C96   A    
O1    Zn5   S    
O44   Zn1   S    
C104  H38   S    
C2    C94   A    
O1    Zn1   S    
C64   O47   A    
C25   N14   S    
O19   Zn2   S    
O12   Zn6   S    
O39   Zn4   S    
C35   C83   A    
C33   C81   A    
C3    H61   S    
C104  N10   S    
O40   Zn5   S    
O13   Zn11  S    
O37   Zn2   S    
C82   C86   A    
C66   C73   S    
C108  H54   S    
C66   O43   A    
C61   O37   A    
H58   N15   S    
C89   C97   A    
C24   N13   S    
C102  H29   S    
C23   C31   A    
C107  N13   S    
O8    Zn9   S    
C67   C68   S    
C18   N1    S    
C47   C61   S    
C22   N11   S    
C43   O24   A    
O23   Zn3   S    
O12   Zn9   S    
C55   O21   A    
O16   Zn14  S    
C85   C94   A    
O11   Zn10  S    
C16   C20   A    
O32   Zn13  S    
C72   H56   S    
O6    Zn9   S    
C62   C72   S    
C11   C44   S    
C42   C48   A    
C105  N11   S    
C69   C73   D    
C19   C28   A    
C106  N12   S    
C79   C92   A    
C78   H3    S    
C59   O35   A    
C92   C101  A    
C30   C79   A    
C93   C98   A    
C40   C41   A    
C32   C96   S    
C63   C71   S    
C106  H47   S    
C62   O44   A    
O31   Zn12  S    
O51   Zn6   S    
C1    O25   A    
C69   H23   S    
C54   C99   S    
C21   C93   S    
O41   Zn6   S    
O48   Zn11  S    
C37   C45   A    
C90   C99   A    
C17   H26   S    
C107  H50   S    
O5    Zn1   S    
O36   Zn16  S    
C54   O29   A    
C20   N10   S    
C87   C100  S    
C29   C51   S    
C76   C101  S    
C40   C48   A    
C30   C52   S    
C43   O51   A    
C45   C59   S    
O34   Zn4   S    
C22   C30   A    
C103  N9    S    
C103  H35   S    
C83   H8    S    
C34   C56   S    
C16   C100  A    
C18   C27   A    
C17   C22   A    
C106  H48   S    
C15   C99   A    
C88   H13   S    
O17   Zn15  S    
C1    C94   S    
C107  H51   S    
C44   C47   A    
C64   C74   S    
C12   H20   S    
C78   C91   A    
C105  H41   S    
C57   O19   A    
O2    Zn8   S    
C24   C33   A    
O4    Zn8   S    
C39   C45   A    
C12   C25   A    
C91   H16   S    
C52   O15   A    
C53   O9    A    
O10   Zn11  S    
C4    N16   T    
O24   Zn15  S    
C73   H62   S    
C42   C44   A    
C65   C97   S    
C23   N12   S    
C76   O3    A    
C51   O7    A    
C103  H32   S    
O34   Zn11  S    
C63   O46   A    
C64   O42   A    
C50   O6    A    
C76   O27   A    
O45   Zn5   S    
O38   Zn3   S    
C65   O30   A    
C49   O5    A    
O9    Zn10  S    
H40   N11   S    
C25   C34   A    
C104  H37   S    
O50   Zn5   S    
O49   Zn6   S    
C67   C71   D    
C84   C93   A    
O30   Zn2   S    
O23   Zn10  S    
C69   C70   S    
C13   C26   A    
C102  H28   S    
C38   C46   A    
C86   C95   A    
C75   C89   A    
O12   Zn15  S    
C54   O52   A    
C50   O17   A    
O35   Zn15  S    
C26   C35   A    
C98   H18   S    
C23   C98   A    
C56   O18   A    
C80   H5    S    
C68   H12   S    
C9    C41   S    
C35   C57   S    
C89   H14   S    
C26   N15   S    
C66   O48   A    
C75   H64   S    
C7    C39   S    
C21   O26   A    
C11   N8    T    
C34   C82   A    
O47   Zn10  S    
C28   C77   A    
C3    N15   S    
C77   H2    S    
O29   Zn16  S    
C13   H21   S    
O42   Zn7   S    
C27   C49   S    
C87   O4    A    
O15   Zn13  S    
H53   N14   S    
C57   O13   A    
