data_mof_unit_pretest_1581.cif
_audit_creation_date              2012-12-10T17:34:02-0500
_audit_creation_method            fapswitch 2.2
_symmetry_space_group_name_H-M    P1
_symmetry_Int_Tables_number       1
_space_group_crystal_system       triclinic
_cell_length_a                    30.278304
_cell_length_b                    30.278304
_cell_length_c                    29.124107
_cell_angle_alpha                 90.000018
_cell_angle_beta                  90.000019
_cell_angle_gamma                 90.0
_cell_volume                      26700.2733813

loop_
_atom_site_label
_atom_site_type_symbol
_atom_type_description
_atom_site_fract_x
_atom_site_fract_y
_atom_site_fract_z
_atom_type_partial_charge
C1    C     C_R   0.500000 0.913283 1.000000 0.948788
C2    C     C_R   0.086717 0.500000 0.000000 0.948787
C3    C     C_R   0.500000 0.086717 0.000000 0.948790
C4    C     C_R   0.913283 0.500000 0.000000 0.948792
C5    C     C_R   0.000000 0.413283 0.500000 0.948788
C6    C     C_R   0.586717 0.000000 0.500000 0.948787
C7    C     C_R   0.000000 0.586717 0.500000 0.948791
C8    C     C_R   0.413283 0.000000 0.500000 0.948792
C9    C     C_R   0.577270 0.727612 0.025949 0.325357
C10   C     C_R   0.272388 0.577270 0.025949 0.325357
C11   C     C_R   0.422731 0.272387 0.025952 0.325357
C12   C     C_R   0.727613 0.422731 0.025951 0.325357
C13   C     C_R   0.577269 0.272387 0.974049 0.325357
C14   C     C_R   0.272388 0.422730 0.974051 0.325357
C15   C     C_R   0.422730 0.727612 0.974051 0.325357
C16   C     C_R   0.727612 0.577269 0.974048 0.325358
C17   C     C_R   0.077270 0.227612 0.525949 0.325357
C18   C     C_R   0.772388 0.077270 0.525949 0.325356
C19   C     C_R   0.922731 0.772387 0.525952 0.325357
C20   C     C_R   0.227613 0.922731 0.525951 0.325357
C21   C     C_R   0.077269 0.772387 0.474048 0.325357
C22   C     C_R   0.772388 0.922730 0.474052 0.325357
C23   C     C_R   0.922730 0.227612 0.474051 0.325357
C24   C     C_R   0.227612 0.077269 0.474048 0.325357
C25   C     C_R   0.576395 0.773441 0.026373 0.664555
C26   C     C_R   0.226558 0.576395 0.026374 0.664554
C27   C     C_R   0.423606 0.226558 0.026377 0.664555
C28   C     C_R   0.773442 0.423606 0.026376 0.664554
C29   C     C_R   0.576394 0.226558 0.973624 0.664554
C30   C     C_R   0.226558 0.423605 0.973627 0.664555
C31   C     C_R   0.423605 0.773441 0.973626 0.664554
C32   C     C_R   0.773442 0.576394 0.973623 0.664555
C33   C     C_R   0.076395 0.273441 0.526373 0.664555
C34   C     C_R   0.726558 0.076395 0.526373 0.664556
C35   C     C_R   0.923606 0.726558 0.526377 0.664556
C36   C     C_R   0.273442 0.923606 0.526376 0.664554
C37   C     C_R   0.076394 0.726558 0.473623 0.664555
C38   C     C_R   0.726558 0.923605 0.473627 0.664555
C39   C     C_R   0.923605 0.273441 0.473626 0.664554
C40   C     C_R   0.273442 0.076394 0.473623 0.664555
C41   C     C_R   0.538043 0.796360 0.014219 -0.194040
C42   C     C_R   0.203640 0.538043 0.014220 -0.194040
C43   C     C_R   0.461958 0.203640 0.014222 -0.194039
C44   C     C_R   0.796360 0.461958 0.014221 -0.194039
C45   C     C_R   0.538042 0.203640 0.985779 -0.194039
C46   C     C_R   0.203640 0.461957 0.985781 -0.194040
C47   C     C_R   0.461957 0.796360 0.985780 -0.194039
C48   C     C_R   0.796360 0.538042 0.985778 -0.194039
C49   C     C_R   0.038043 0.296360 0.514219 -0.194040
C50   C     C_R   0.703640 0.038043 0.514219 -0.194041
C51   C     C_R   0.961958 0.703640 0.514222 -0.194039
C52   C     C_R   0.296360 0.961958 0.514221 -0.194039
C53   C     C_R   0.038042 0.703640 0.485779 -0.194040
C54   C     C_R   0.703640 0.961957 0.485781 -0.194040
C55   C     C_R   0.961957 0.296360 0.485780 -0.194040
C56   C     C_R   0.296360 0.038042 0.485778 -0.194039
C57   C     C_R   0.500000 0.773044 1.000000 -0.194929
C58   C     C_R   0.226956 0.500000 0.000000 -0.194929
C59   C     C_R   0.500000 0.226956 0.000000 -0.194928
C60   C     C_R   0.773044 0.500000 1.000000 -0.194929
C61   C     C_R   0.000000 0.273044 0.500000 -0.194928
C62   C     C_R   0.726956 1.000000 0.500000 -0.194928
C63   C     C_R   0.000000 0.726956 0.500000 -0.194928
C64   C     C_R   0.273044 1.000000 0.500000 -0.194928
C65   C     C_R   0.537421 0.842415 0.015051 0.633292
C66   C     C_R   0.157585 0.537421 0.015051 0.633291
C67   C     C_R   0.462579 0.157585 0.015053 0.633291
C68   C     C_R   0.842415 0.462579 0.015053 0.633291
C69   C     C_R   0.537421 0.157585 0.984947 0.633291
C70   C     C_R   0.157585 0.462578 0.984949 0.633291
C71   C     C_R   0.462579 0.842415 0.984949 0.633290
C72   C     C_R   0.842415 0.537421 0.984947 0.633290
C73   C     C_R   0.037422 0.342415 0.515051 0.633291
C74   C     C_R   0.657585 0.037422 0.515051 0.633292
C75   C     C_R   0.962579 0.657585 0.515053 0.633290
C76   C     C_R   0.342415 0.962579 0.515053 0.633291
C77   C     C_R   0.037421 0.657585 0.484947 0.633291
C78   C     C_R   0.657585 0.962578 0.484949 0.633291
C79   C     C_R   0.962578 0.342415 0.484949 0.633291
C80   C     C_R   0.342415 0.037421 0.484947 0.633291
C81   C     C_R   0.500000 0.865300 1.000000 -0.404028
C82   C     C_R   0.134700 0.500000 0.000000 -0.404028
C83   C     C_R   0.500000 0.134699 0.000000 -0.404028
C84   C     C_R   0.865300 0.500000 1.000000 -0.404027
C85   C     C_R   0.000000 0.365300 0.500000 -0.404028
C86   C     C_R   0.634700 0.000000 0.500000 -0.404029
C87   C     C_R   0.000000 0.634699 0.500000 -0.404027
C88   C     C_R   0.365300 1.000000 0.500000 -0.404027
C89   C     C_R   0.412469 0.500000 0.000000 1.046891
C90   C     C_R   0.500000 0.412469 0.000000 1.046891
C91   C     C_R   0.587531 0.500000 0.000000 1.046890
C92   C     C_R   0.500000 0.587531 0.000000 1.046890
C93   C     C_R   0.912469 0.000000 0.500000 1.046891
C94   C     C_R   1.000000 0.912469 0.500000 1.046891
C95   C     C_R   0.087531 0.000000 0.500000 1.046890
C96   C     C_R   0.000000 0.087531 0.500000 1.046890
C97   C     C_R   0.500000 0.000000 0.085660 0.847640
C98   C     C_R   0.000000 0.500000 0.085660 0.847640
C99   C     C_R   0.500000 0.000000 0.914340 0.847639
C100  C     C_R   0.000000 0.500000 0.914340 0.847639
C101  C     C_R   0.000000 0.500000 0.585660 0.847640
C102  C     C_R   0.500000 0.000000 0.585660 0.847640
C103  C     C_R   0.000000 0.500000 0.414340 0.847639
C104  C     C_R   0.500000 0.000000 0.414340 0.847639
C105  C     C_1   0.500000 0.000000 0.136509 -0.117892
C106  C     C_1   0.000000 0.500000 0.136509 -0.117892
C107  C     C_1   0.500000 0.000000 0.863491 -0.117892
C108  C     C_1   1.000000 0.500000 0.863491 -0.117892
C109  C     C_1   0.000000 0.500000 0.636509 -0.117892
C110  C     C_1   0.500000 0.000000 0.636509 -0.117892
C111  C     C_1   1.000000 0.500000 0.363491 -0.117892
C112  C     C_1   0.500000 1.000000 0.363491 -0.117892
C113  C     C_1   0.500000 0.000000 0.178840 0.053488
C114  C     C_1   0.000000 0.500000 0.178840 0.053488
C115  C     C_1   0.500000 0.000000 0.821160 0.053488
C116  C     C_1   0.000000 0.500000 0.821160 0.053488
C117  C     C_1   0.000000 0.500000 0.678840 0.053488
C118  C     C_1   0.500000 0.000000 0.678840 0.053488
C119  C     C_1   1.000000 0.500000 0.321160 0.053488
C120  C     C_1   0.500000 1.000000 0.321160 0.053488
C121  C     C_1   0.500000 1.000000 0.228835 0.060644
C122  C     C_1   1.000000 0.500000 0.228835 0.060644
C123  C     C_1   0.500000 0.000000 0.771165 0.060644
C124  C     C_1   0.000000 0.500000 0.771165 0.060644
C125  C     C_1   0.000000 0.500000 0.728835 0.060644
C126  C     C_1   0.500000 0.000000 0.728835 0.060644
C127  C     C_1   1.000000 0.500000 0.271165 0.060644
C128  C     C_1   0.500000 1.000000 0.271165 0.060644
C129  C     C_R   0.464337 0.657309 0.980064 0.376305
C130  C     C_R   0.342690 0.464337 0.980065 0.376304
C131  C     C_R   0.535663 0.342690 0.980064 0.376304
C132  C     C_R   0.657310 0.535663 0.980064 0.376305
C133  C     C_R   0.464337 0.342690 0.019936 0.376305
C134  C     C_R   0.342690 0.535663 0.019935 0.376305
C135  C     C_R   0.535663 0.657310 0.019935 0.376303
C136  C     C_R   0.657310 0.464337 0.019936 0.376304
C137  C     C_R   0.964337 0.157309 0.480064 0.376306
C138  C     C_R   0.842690 0.964337 0.480065 0.376304
C139  C     C_R   0.035663 0.842690 0.480064 0.376304
C140  C     C_R   0.157310 0.035663 0.480064 0.376305
C141  C     C_R   0.964337 0.842690 0.519937 0.376306
C142  C     C_R   0.842690 0.035663 0.519935 0.376305
C143  C     C_R   0.035663 0.157310 0.519935 0.376303
C144  C     C_R   0.157310 0.964337 0.519936 0.376304
C145  C     C_R   0.500000 0.635016 1.000000 -0.262805
C146  C     C_R   0.364984 0.500000 0.000000 -0.262806
C147  C     C_R   0.500000 0.364984 0.000000 -0.262805
C148  C     C_R   0.635016 0.500000 1.000000 -0.262805
C149  C     C_R   1.000000 0.135016 0.500000 -0.262806
C150  C     C_R   0.864984 0.000000 0.500000 -0.262806
C151  C     C_R   1.000000 0.864984 0.500000 -0.262806
C152  C     C_R   0.135016 0.000000 0.500000 -0.262805
C153  C     C_R   0.538291 0.703461 0.015473 -0.118416
C154  C     C_R   0.296539 0.538291 0.015473 -0.118416
C155  C     C_R   0.461709 0.296539 0.015474 -0.118416
C156  C     C_R   0.703461 0.461709 0.015474 -0.118416
C157  C     C_R   0.538291 0.296538 0.984526 -0.118416
C158  C     C_R   0.296539 0.461709 0.984527 -0.118416
C159  C     C_R   0.461709 0.703461 0.984527 -0.118416
C160  C     C_R   0.703461 0.538291 0.984526 -0.118416
C161  C     C_R   0.038291 0.203461 0.515473 -0.118416
C162  C     C_R   0.796539 0.038291 0.515473 -0.118416
C163  C     C_R   0.961709 0.796539 0.515474 -0.118416
C164  C     C_R   0.203461 0.961709 0.515474 -0.118416
C165  C     C_R   0.038291 0.796538 0.484526 -0.118416
C166  C     C_R   0.796539 0.961709 0.484527 -0.118417
C167  C     C_R   0.961709 0.203461 0.484527 -0.118417
C168  C     C_R   0.203461 0.038291 0.484525 -0.118416
C169  C     C_R   0.500000 0.726584 1.000000 -0.058335
C170  C     C_R   0.273416 0.500000 0.000000 -0.058335
C171  C     C_R   0.500000 0.273416 0.000000 -0.058334
C172  C     C_R   0.726584 0.500000 1.000000 -0.058334
C173  C     C_R   0.000000 0.226584 0.500000 -0.058334
C174  C     C_R   0.773416 1.000000 0.500000 -0.058334
C175  C     C_R   0.000000 0.773416 0.500000 -0.058334
C176  C     C_R   0.226584 1.000000 0.500000 -0.058334
O1    O     O_R   0.537310 0.933950 0.000030 -0.550730
O2    O     O_R   0.066050 0.537310 0.000030 -0.550730
O3    O     O_R   0.462690 0.066050 0.000030 -0.550731
O4    O     O_R   0.933950 0.462690 0.000030 -0.550731
O5    O     O_R   0.537310 0.066050 0.999970 -0.550732
O6    O     O_R   0.066050 0.462690 0.999970 -0.550730
O7    O     O_R   0.462690 0.933950 0.999970 -0.550730
O8    O     O_R   0.933950 0.537310 0.999970 -0.550732
O9    O     O_R   0.037310 0.433950 0.500030 -0.550730
O10   O     O_R   0.566050 0.037310 0.500030 -0.550730
O11   O     O_R   0.962690 0.566050 0.500030 -0.550731
O12   O     O_R   0.433950 0.962690 0.500030 -0.550731
O13   O     O_R   0.037310 0.566050 0.499970 -0.550732
O14   O     O_R   0.566050 0.962690 0.499970 -0.550730
O15   O     O_R   0.962690 0.433950 0.499970 -0.550730
O16   O     O_R   0.433950 0.037310 0.499970 -0.550732
O17   O     O_R   0.537300 0.000020 0.063150 -0.586840
O18   O     O_R   0.999980 0.537300 0.063150 -0.586840
O19   O     O_R   0.462700 0.999980 0.063150 -0.586838
O20   O     O_R   0.000020 0.462700 0.063150 -0.586838
O21   O     O_R   0.537300 0.999980 0.936850 -0.586838
O22   O     O_R   0.999980 0.462700 0.936850 -0.586839
O23   O     O_R   0.462700 0.000020 0.936850 -0.586839
O24   O     O_R   0.000020 0.537300 0.936850 -0.586837
O25   O     O_R   0.037300 0.500020 0.563150 -0.586840
O26   O     O_R   0.499980 0.037300 0.563150 -0.586840
O27   O     O_R   0.962700 0.499980 0.563150 -0.586838
O28   O     O_R   0.500020 0.962700 0.563150 -0.586838
O29   O     O_R   0.037300 0.499980 0.436850 -0.586838
O30   O     O_R   0.499980 0.962700 0.436850 -0.586839
O31   O     O_R   0.962700 0.500020 0.436850 -0.586839
O32   O     O_R   0.500020 0.037300 0.436850 -0.586837
O33   O     O_R   0.433890 0.500020 0.035650 -0.588665
O34   O     O_R   0.499980 0.433890 0.035650 -0.588665
O35   O     O_R   0.566110 0.499980 0.035650 -0.588665
O36   O     O_R   0.500020 0.566110 0.035650 -0.588665
O37   O     O_R   0.433890 0.499980 0.964350 -0.588665
O38   O     O_R   0.499980 0.566110 0.964350 -0.588665
O39   O     O_R   0.566110 0.500020 0.964350 -0.588665
O40   O     O_R   0.500020 0.433890 0.964350 -0.588665
O41   O     O_R   0.933890 0.000020 0.535650 -0.588665
O42   O     O_R   0.999980 0.933890 0.535650 -0.588665
O43   O     O_R   0.066110 0.999980 0.535650 -0.588665
O44   O     O_R   0.000020 0.066110 0.535650 -0.588665
O45   O     O_R   0.933890 0.999980 0.464350 -0.588665
O46   O     O_R   0.999980 0.066110 0.464350 -0.588665
O47   O     O_R   0.066110 0.000020 0.464350 -0.588665
O48   O     O_R   0.000020 0.933890 0.464350 -0.588665
Zn1   Zn    Zn3+2 0.549820 0.000000 0.000000 1.161470
Zn2   Zn    Zn3+2 0.000000 0.549820 0.000000 1.161470
Zn3   Zn    Zn3+2 0.450180 0.000000 0.000000 1.161471
Zn4   Zn    Zn3+2 1.000000 0.450180 0.000000 1.161470
Zn5   Zn    Zn3+2 0.049820 0.500000 0.500000 1.161470
Zn6   Zn    Zn3+2 0.500000 0.049820 0.500000 1.161470
Zn7   Zn    Zn3+2 0.950180 0.500000 0.500000 1.161471
Zn8   Zn    Zn3+2 0.500000 0.950180 0.500000 1.161470
Zn9   Zn    Zn3+2 0.500000 0.500000 0.047600 1.188020
Zn10  Zn    Zn3+2 0.500000 0.500000 0.952400 1.188020
Zn11  Zn    Zn3+2 0.000000 0.000000 0.547600 1.188020
Zn12  Zn    Zn3+2 1.000000 0.000000 0.452400 1.188020
Cl1   Cl    Cl    0.425799 0.626123 0.947280 -0.444652
Cl2   Cl    Cl    0.373877 0.425799 0.947280 -0.444654
Cl3   Cl    Cl    0.574200 0.373877 0.947279 -0.444652
Cl4   Cl    Cl    0.626123 0.574200 0.947279 -0.444651
Cl5   Cl    Cl    0.425800 0.373877 0.052721 -0.444651
Cl6   Cl    Cl    0.373877 0.574201 0.052720 -0.444653
Cl7   Cl    Cl    0.574201 0.626123 0.052720 -0.444654
Cl8   Cl    Cl    0.626123 0.425800 0.052721 -0.444653
Cl9   Cl    Cl    0.925799 0.126123 0.447280 -0.444652
Cl10  Cl    Cl    0.873877 0.925798 0.447281 -0.444654
Cl11  Cl    Cl    0.074200 0.873877 0.447279 -0.444653
Cl12  Cl    Cl    0.126123 0.074200 0.447279 -0.444652
Cl13  Cl    Cl    0.925800 0.873877 0.552721 -0.444651
Cl14  Cl    Cl    0.873877 0.074201 0.552719 -0.444653
Cl15  Cl    Cl    0.074201 0.126123 0.552720 -0.444654
Cl16  Cl    Cl    0.126123 0.925800 0.552721 -0.444653
Cl17  Cl    Cl    0.630345 0.704003 0.032398 -0.286446
Cl18  Cl    Cl    0.295996 0.630345 0.032399 -0.286444
Cl19  Cl    Cl    0.369656 0.295996 0.032403 -0.286445
Cl20  Cl    Cl    0.704004 0.369656 0.032401 -0.286448
Cl21  Cl    Cl    0.630344 0.295996 0.967598 -0.286448
Cl22  Cl    Cl    0.295996 0.369655 0.967602 -0.286446
Cl23  Cl    Cl    0.369655 0.704004 0.967601 -0.286444
Cl24  Cl    Cl    0.704004 0.630344 0.967597 -0.286446
Cl25  Cl    Cl    0.130345 0.204004 0.532398 -0.286446
Cl26  Cl    Cl    0.795996 0.130345 0.532398 -0.286443
Cl27  Cl    Cl    0.869656 0.795996 0.532403 -0.286445
Cl28  Cl    Cl    0.204004 0.869656 0.532402 -0.286448
Cl29  Cl    Cl    0.130344 0.795996 0.467598 -0.286448
Cl30  Cl    Cl    0.795996 0.869654 0.467602 -0.286446
Cl31  Cl    Cl    0.869655 0.204004 0.467601 -0.286443
Cl32  Cl    Cl    0.204004 0.130344 0.467597 -0.286446
F1    F     F_    0.614111 0.795531 0.037189 -0.516166
F2    F     F_    0.204469 0.614111 0.037190 -0.516165
F3    F     F_    0.385891 0.204468 0.037195 -0.516166
F4    F     F_    0.795531 0.385890 0.037194 -0.516166
F5    F     F_    0.614109 0.204468 0.962806 -0.516166
F6    F     F_    0.204469 0.385889 0.962811 -0.516166
F7    F     F_    0.385889 0.795531 0.962810 -0.516165
F8    F     F_    0.795531 0.614109 0.962805 -0.516166
F9    F     F_    0.114111 0.295531 0.537189 -0.516166
F10   F     F_    0.704469 0.114111 0.537189 -0.516166
F11   F     F_    0.885891 0.704469 0.537195 -0.516166
F12   F     F_    0.295531 0.885891 0.537194 -0.516166
F13   F     F_    0.114109 0.704469 0.462806 -0.516166
F14   F     F_    0.704469 0.885889 0.462811 -0.516166
F15   F     F_    0.885889 0.295531 0.462810 -0.516165
F16   F     F_    0.295531 0.114109 0.462805 -0.516166
F17   F     F_    0.572906 0.865134 0.031285 -0.551025
F18   F     F_    0.134866 0.572906 0.031285 -0.551024
F19   F     F_    0.427095 0.134866 0.031289 -0.551026
F20   F     F_    0.865134 0.427095 0.031289 -0.551025
F21   F     F_    0.572905 0.134866 0.968711 -0.551025
F22   F     F_    0.134866 0.427094 0.968715 -0.551025
F23   F     F_    0.427094 0.865134 0.968715 -0.551024
F24   F     F_    0.865134 0.572905 0.968711 -0.551025
F25   F     F_    0.072906 0.365134 0.531285 -0.551025
F26   F     F_    0.634866 0.072907 0.531285 -0.551024
F27   F     F_    0.927095 0.634866 0.531289 -0.551026
F28   F     F_    0.365134 0.927095 0.531289 -0.551026
F29   F     F_    0.072905 0.634866 0.468711 -0.551026
F30   F     F_    0.634866 0.927093 0.468716 -0.551024
F31   F     F_    0.927094 0.365134 0.468715 -0.551024
F32   F     F_    0.365134 0.072905 0.468711 -0.551026

loop_
_geom_bond_atom_site_label_1
_geom_bond_atom_site_label_2
_ccdc_geom_bond_type
O20   Zn4   S    
C12   Cl20  S    
C130  C146  A    
C141  Cl13  S    
O8    Zn2   S    
C139  Cl11  S    
C42   C58   A    
C90   O40   A    
O46   Zn12  S    
C143  Cl15  S    
C14   C158  A    
C48   C72   A    
C18   Cl26  S    
C22   C38   A    
C154  C170  A    
C65   F17   S    
C97   O17   A    
C91   O39   A    
C95   O43   A    
C159  C169  A    
C140  C152  A    
C129  C145  A    
O11   Zn7   S    
C34   F10   S    
C144  C164  A    
C110  C118  T    
C93   C150  S    
C59   C171  A    
O22   Zn4   S    
C134  C146  A    
C166  C174  A    
C115  C123  S    
C45   C69   A    
C74   F26   S    
C121  C128  T    
C25   C41   A    
C112  C120  T    
C123  C126  T    
O5    Zn1   S    
C96   O44   A    
C28   C44   A    
C29   C45   A    
C132  C148  A    
O28   Zn8   S    
C138  Cl10  S    
C66   C82   A    
C22   Cl30  S    
C4    C84   S    
C11   C27   A    
C160  C172  A    
C47   C71   A    
C72   C84   A    
C23   C167  A    
O45   Zn12  S    
C35   C51   A    
C49   C73   A    
C79   C85   A    
C99   C107  S    
C77   F29   S    
C45   C59   A    
C129  Cl1   S    
C9    Cl17  S    
O10   Zn6   S    
C6    O10   A    
C98   C106  S    
O19   Zn3   S    
C97   O19   A    
O17   Zn1   S    
C80   C88   A    
C19   C35   A    
C157  C171  A    
C142  C150  A    
C8    O16   A    
C23   Cl31  S    
O48   Zn12  S    
C70   C82   A    
C46   C70   A    
C22   C166  A    
C143  C149  A    
O15   Zn7   S    
C101  O25   A    
C95   C152  S    
C33   C49   A    
C143  C161  A    
C20   Cl28  S    
C100  O22   A    
C27   F3    S    
C67   C83   A    
C28   F4    S    
C16   C160  A    
O29   Zn5   S    
C163  C175  A    
O41   Zn11  S    
C1    O7    A    
C70   F22   S    
C105  C113  T    
C103  O31   A    
O42   Zn11  S    
C50   C74   A    
C16   Cl24  S    
C135  Cl7   S    
C93   O41   A    
O34   Zn9   S    
C122  C127  T    
C139  C165  A    
C13   Cl21  S    
C134  Cl6   S    
C56   C64   A    
C131  C147  A    
C133  C147  A    
C64   C176  A    
C36   C52   A    
C43   C59   A    
C5    C85   S    
O25   Zn5   S    
C9    C153  A    
C46   C58   A    
C94   O48   A    
C99   O21   A    
C12   C156  A    
C13   C157  A    
C29   F5    S    
C39   C55   A    
C100  C108  S    
O43   Zn11  S    
O18   Zn2   S    
C66   F18   S    
C5    O15   A    
C91   O35   A    
C101  O27   A    
C79   F31   S    
C104  C112  S    
C158  C170  A    
C89   O33   A    
C40   C56   A    
C156  C172  A    
C95   O47   A    
O35   Zn9   S    
C8    C88   S    
C90   C147  S    
C47   C57   A    
C137  Cl9   S    
C98   O20   A    
O24   Zn2   S    
C73   C85   A    
C136  C148  A    
C17   C161  A    
C100  O24   A    
C75   C87   A    
C92   O36   A    
C153  C169  A    
C37   F13   S    
C26   C42   A    
C168  C176  A    
C40   F16   S    
C140  Cl12  S    
C30   C46   A    
C103  O29   A    
C52   C76   A    
C15   C31   A    
C16   C32   A    
C6    C86   S    
C138  C166  A    
C132  Cl4   S    
C97   C105  S    
C144  C152  A    
C10   C154  A    
C53   C63   A    
O6    Zn4   S    
C55   C61   A    
C139  C151  A    
O3    Zn3   S    
C25   F1    S    
O47   Zn12  S    
O1    Zn1   S    
C78   F30   S    
C113  C121  S    
C77   C87   A    
C43   C67   A    
C2    O2    A    
C117  C125  S    
C71   C81   A    
C119  C127  S    
O40   Zn10  S    
O44   Zn11  S    
C5    O9    A    
C31   F7    S    
C9    C25   A    
C8    O12   A    
O16   Zn6   S    
C12   C28   A    
C13   C29   A    
C101  C109  S    
C20   C164  A    
C21   C165  A    
C98   O18   A    
C103  C111  S    
C131  C157  A    
C102  O28   A    
C36   F12   S    
C75   F27   S    
C26   F2    S    
C7    C87   S    
C135  C145  A    
C11   Cl19  S    
C92   O38   A    
C104  O30   A    
C167  C173  A    
C31   C47   A    
C24   Cl32  S    
C32   C48   A    
O38   Zn10  S    
O39   Zn10  S    
C17   C33   A    
C4    O4    A    
C49   C61   A    
O30   Zn8   S    
C68   C84   A    
C51   C63   A    
C52   C64   A    
C54   C62   A    
C94   C151  S    
C19   C163  A    
O4    Zn4   S    
C109  C117  T    
C53   C77   A    
C15   C159  A    
C55   C79   A    
C65   C81   A    
C38   C54   A    
C1    C81   S    
C3    O5    A    
C30   F6    S    
C96   O46   A    
C14   Cl22  S    
C102  C110  S    
O7    Zn3   S    
O37   Zn10  S    
C137  C167  A    
C89   O37   A    
C7    O11   A    
C116  C124  S    
C24   C168  A    
C10   Cl18  S    
C56   C80   A    
C142  C162  A    
C120  C128  S    
O9    Zn5   S    
C130  C158  A    
C108  C116  T    
C102  O26   A    
C41   C57   A    
O27   Zn7   S    
C18   C162  A    
C134  C154  A    
C44   C60   A    
C96   C149  S    
C164  C176  A    
C104  O32   A    
C17   Cl25  S    
C4    O8    A    
C38   F14   S    
C19   Cl27  S    
C20   C36   A    
C27   C43   A    
C21   C37   A    
C99   O23   A    
C7    O13   A    
O12   Zn8   S    
O23   Zn3   S    
C54   C78   A    
O21   Zn1   S    
C140  C168  A    
C142  Cl14  S    
O13   Zn5   S    
O31   Zn7   S    
O36   Zn9   S    
C33   F9    S    
C138  C150  A    
C132  C160  A    
C35   F11   S    
C106  C114  T    
C32   F8    S    
C111  C119  T    
C58   C170  A    
C51   C75   A    
C76   F28   S    
C136  C156  A    
C62   C174  A    
C94   O42   A    
C161  C173  A    
C73   F25   S    
C2    O6    A    
C3    O3    A    
C67   F19   S    
C133  Cl5   S    
C68   F20   S    
C1    O1    A    
C131  Cl3   S    
C76   C88   A    
C21   Cl29  S    
O26   Zn6   S    
C10   C26   A    
C144  Cl16  S    
C137  C149  A    
C71   F23   S    
C14   C30   A    
C91   C148  S    
C48   C60   A    
C57   C169  A    
C89   C146  S    
C34   C50   A    
C136  Cl8   S    
C60   C172  A    
C61   C173  A    
C39   F15   S    
C90   O34   A    
C41   C65   A    
C69   C83   A    
C6    O14   A    
C74   C86   A    
C18   C34   A    
C107  C115  T    
C141  C163  A    
C50   C62   A    
C44   C68   A    
C129  C159  A    
C15   Cl23  S    
C141  C151  A    
C130  Cl2   S    
C92   C145  S    
C133  C155  A    
C63   C175  A    
C162  C174  A    
C11   C155  A    
C165  C175  A    
C135  C153  A    
C37   C53   A    
C3    C83   S    
C78   C86   A    
C23   C39   A    
C24   C40   A    
C69   F21   S    
C72   F24   S    
O14   Zn8   S    
O33   Zn9   S    
O2    Zn2   S    
C2    C82   S    
C80   F32   S    
C114  C122  S    
C155  C171  A    
C42   C66   A    
C93   O45   A    
C118  C126  S    
O32   Zn6   S    
C124  C125  T    
