data_mof_unit_pretest_1661.cif
_audit_creation_date              2012-12-10T18:37:00-0500
_audit_creation_method            fapswitch 2.2
_symmetry_space_group_name_H-M    P1
_symmetry_Int_Tables_number       1
_space_group_crystal_system       triclinic
_cell_length_a                    15.009022
_cell_length_b                    15.57553
_cell_length_c                    23.372783
_cell_angle_alpha                 90.402294
_cell_angle_beta                  105.34011
_cell_angle_gamma                 81.339626
_cell_volume                      5206.1048065

loop_
_atom_site_label
_atom_site_type_symbol
_atom_type_description
_atom_site_fract_x
_atom_site_fract_y
_atom_site_fract_z
_atom_type_partial_charge
C1    C     C_R   0.440523 0.662084 0.490185 0.936622
C2    C     C_R   0.559477 0.337916 0.509815 0.936651
C3    C     C_R   0.569079 0.444023 0.772074 -0.232524
C4    C     C_R   0.431031 0.555904 0.227918 -0.232537
C5    C     C_R   0.568059 0.443699 0.712517 0.619524
C6    C     C_R   0.431998 0.556250 0.287466 0.619533
C7    C     C_R   0.504048 0.504652 0.672498 -0.342223
C8    C     C_R   0.495977 0.495303 0.327507 -0.342203
C9    C     C_R   0.442757 0.567915 0.692292 0.130386
C10   C     C_R   0.557279 0.432017 0.307740 0.130389
C11   C     C_R   0.444150 0.567763 0.752110 0.704845
C12   C     C_R   0.555940 0.432146 0.247931 0.704870
C13   C     C_R   0.506749 0.505449 0.791733 0.002337
C14   C     C_R   0.493385 0.494464 0.208290 0.002324
C15   C     C_R   0.402310 0.755003 0.480976 -0.201241
C16   C     C_R   0.597690 0.244997 0.519023 -0.201229
C17   C     C_R   0.282257 0.879053 0.441133 0.262000
C18   C     C_R   0.717743 0.120946 0.558862 0.261988
C19   C     C_R   0.310009 0.788313 0.448042 0.282605
C20   C     C_R   0.689992 0.211686 0.551954 0.282641
C21   C     C_R   0.464688 0.811902 0.503713 -0.141580
C22   C     C_R   0.535312 0.188098 0.496285 -0.141577
C23   C     C_R   0.501247 0.501196 0.610291 1.016853
C24   C     C_R   0.498754 0.498800 0.389709 1.016859
C25   C     C_R   0.443645 0.900019 0.488604 0.061202
C26   C     C_R   0.556355 0.099981 0.511391 0.061199
C27   C     C_R   0.349047 0.935064 0.462193 -0.077762
C28   C     C_R   0.650953 0.064935 0.537802 -0.077760
C29   C     C_R   0.513884 0.954374 0.502212 -0.101967
C30   C     C_R   0.486116 0.045626 0.497783 -0.101964
C31   C     C_R   0.388963 0.079143 0.481436 0.642838
C32   C     C_R   0.611037 0.920856 0.518558 0.642839
C33   C     C_R   0.322895 0.025048 0.460418 -0.169821
C34   C     C_R   0.677105 0.974952 0.539576 -0.169818
C35   C     C_R   0.850682 0.621308 0.597506 -0.234839
C36   C     C_R   0.149319 0.378690 0.402494 -0.234838
C37   C     C_R   0.757968 0.609461 0.577551 0.373446
C38   C     C_R   0.242033 0.390540 0.422448 0.373447
C39   C     C_R   0.793671 0.511980 0.505320 0.743135
C40   C     C_R   0.206328 0.488016 0.494681 0.743131
C41   C     C_R   0.885689 0.531982 0.518405 -0.116269
C42   C     C_R   0.114311 0.468013 0.481595 -0.116268
C43   C     C_R   0.915590 0.579519 0.569773 -0.032324
C44   C     C_R   0.084411 0.420476 0.430227 -0.032323
C45   C     C_R   0.458349 0.433993 0.111690 0.663787
C46   C     C_R   0.541874 0.565894 0.888342 0.663777
C47   C     C_R   0.951210 0.500251 0.486297 -0.007212
C48   C     C_R   0.048789 0.499740 0.513703 -0.007216
C49   C     C_R   0.076466 0.528920 0.572516 0.360725
C50   C     C_R   0.923534 0.471068 0.427484 0.360720
C51   C     C_R   0.010542 0.576843 0.596712 -0.128773
C52   C     C_R   0.989459 0.423149 0.403289 -0.128769
C53   C     C_R   0.532118 0.560506 0.127589 0.624826
C54   C     C_R   0.468113 0.439375 0.872456 0.624826
C55   C     C_R   0.529175 0.567745 0.067075 -0.146632
C56   C     C_R   0.471103 0.432122 0.932976 -0.146633
C57   C     C_R   0.498834 0.499291 0.029972 -0.074148
C58   C     C_R   0.501449 0.500576 0.970077 -0.074141
C59   C     C_R   0.465880 0.429551 0.052901 -0.148673
C60   C     C_R   0.534398 0.570316 0.947144 -0.148666
C61   C     C_R   0.554804 0.640579 0.042707 0.261580
C62   C     C_R   0.445513 0.359271 0.957349 0.261581
C63   C     C_R   0.557515 0.641815 0.983097 0.267076
C64   C     C_R   0.442808 0.358033 0.016959 0.267090
H1    H     H_    0.033225 0.603617 0.640186 0.194381
H2    H     H_    0.966777 0.396373 0.359815 0.194381
H3    H     H_    0.872335 0.660402 0.635806 0.206985
H4    H     H_    0.127667 0.339597 0.364193 0.206984
H5    H     H_    0.617514 0.396179 0.803006 0.218135
H6    H     H_    0.382622 0.603744 0.196969 0.218134
H7    H     H_    0.250361 0.054686 0.446005 0.222576
H8    H     H_    0.749639 0.945313 0.553989 0.222577
H9    H     H_    0.470130 0.213630 0.465132 0.254008
H10   H     H_    0.529870 0.786371 0.534866 0.254004
N1    N     N_R   0.494348 0.496485 0.147466 -0.329111
N2    N     N_R   0.505849 0.503411 0.852568 -0.329106
N3    N     N_R   0.731690 0.552740 0.533440 -0.185192
N4    N     N_R   0.268310 0.447260 0.466560 -0.185194
O1    O     O_R   0.383120 0.605620 0.483150 -0.542503
O2    O     O_R   0.616880 0.394380 0.516850 -0.542483
O3    O     O_R   0.531890 0.639510 0.504600 -0.600504
O4    O     O_R   0.468110 0.360490 0.495400 -0.600510
O5    O     O_R   0.425590 0.483070 0.573110 -0.560040
O6    O     O_R   0.574410 0.516930 0.426890 -0.560051
O7    O     O_R   0.574360 0.516970 0.594570 -0.573914
O8    O     O_R   0.425640 0.483030 0.405430 -0.573919
O9    O     O_2   0.414307 0.378036 0.133497 -0.453385
O10   O     O_2   0.585878 0.621865 0.866516 -0.453373
O11   O     O_2   0.573910 0.615032 0.167224 -0.452626
O12   O     O_2   0.426302 0.384852 0.832828 -0.452649
Zn1   Zn    Zn3+2 0.400660 0.477370 0.485670 1.122250
Zn2   Zn    Zn3+2 0.599340 0.522630 0.514330 1.122258
Br1   Br    Br    0.578324 0.744432 0.087355 -0.209611
Br2   Br    Br    0.422042 0.255402 0.912709 -0.209634
Br3   Br    Br    0.154064 0.925283 0.400827 -0.308435
Br4   Br    Br    0.845937 0.074716 0.599166 -0.308444
F1    F     F_    0.355226 0.162936 0.489412 -0.648131
F2    F     F_    0.644774 0.837063 0.510583 -0.648128
F3    F     F_    0.230639 0.556145 0.528457 -0.590673
F4    F     F_    0.769361 0.443848 0.471548 -0.590668
Br5   Br    Br    0.325943 0.332000 0.380825 -0.379469
Br6   Br    Br    0.674059 0.668002 0.619174 -0.379469
Br7   Br    Br    0.194293 0.486143 0.628690 -0.316651
Br8   Br    Br    0.805702 0.513834 0.371310 -0.316659
Br9   Br    Br    0.584980 0.747097 0.951569 -0.193680
Br10  Br    Br    0.415436 0.252723 0.048508 -0.193656
F5    F     F_    0.627726 0.382844 0.693578 -0.604121
F6    F     F_    0.372320 0.617129 0.306379 -0.604104
Br11  Br    Br    0.359831 0.657255 0.639504 -0.244910
Br12  Br    Br    0.640161 0.342684 0.360557 -0.244967
F7    F     F_    0.384434 0.627414 0.771913 -0.572558
F8    F     F_    0.615671 0.372474 0.228158 -0.572551
Br13  Br    Br    0.778916 0.286838 0.588695 -0.250634
Br14  Br    Br    0.221087 0.713160 0.411301 -0.250676

loop_
_geom_bond_atom_site_label_1
_geom_bond_atom_site_label_2
_ccdc_geom_bond_type
N3    Zn2   S    
C50   Br8   S    
C18   Br4   S    
C35   C43   A    
C40   F3    S    
C46   N2    A    
C57   C58   A    
C39   C41   A    
C27   C33   A    
C15   C19   A    
C59   C64   A    
C23   O5    A    
C60   C63   A    
C39   N3    A    
C3    H5    S    
C54   O12   S    
C38   Br5   S    
O8    Zn1   S    
C2    O2    A    
C37   Br6   S    
C61   Br1   S    
C57   C59   A    
C1    O3    A    
C18   C20   A    
C51   H1    S    
C61   C63   A    
C62   C64   A    
C17   C19   A    
O3    Zn2   S    
C56   C58   A    
C49   C51   A    
C50   C52   A    
C31   C33   A    
C1    C15   S    
C63   Br9   S    
C2    C16   S    
O1    Zn1   S    
C3    C13   A    
C46   C60   A    
C44   C52   A    
C40   C42   A    
C28   C34   A    
C25   C29   A    
C41   C43   A    
C53   N1    A    
C42   C44   A    
C4    H6    S    
O7    Zn2   S    
C47   C50   A    
C46   O10   S    
C53   C55   A    
C9    Br11  S    
C54   C56   A    
C11   F7    S    
C17   C27   A    
C18   C28   A    
C4    C6    A    
C5    C7    A    
C6    C8    A    
C38   N4    A    
C19   Br14  S    
C37   N3    A    
C21   H10   S    
O4    Zn1   S    
C32   C34   A    
O2    Zn2   S    
C29   C30   A    
C47   C48   A    
C13   N2    S    
C35   H3    S    
C30   C31   A    
C16   C20   A    
C41   C47   A    
C42   C48   A    
C9    C11   A    
C10   C12   A    
C54   N2    A    
C48   C49   A    
C12   C14   A    
C26   C30   A    
C55   C57   A    
C53   O11   S    
C1    O1    A    
C40   N4    A    
C2    O4    A    
C34   H8    S    
C12   F8    S    
C52   H2    S    
C35   C37   A    
C5    F5    S    
C7    C9    A    
C21   C25   A    
C45   C59   A    
C16   C22   A    
C45   O9    S    
C17   Br3   S    
C3    C5    A    
C49   Br7   S    
C36   H4    S    
C64   Br10  S    
N4    Zn1   S    
C25   C27   A    
O5    Zn1   S    
C58   C60   A    
C26   C28   A    
C45   N1    A    
C14   N1    S    
C62   Br2   S    
C24   O6    A    
C23   O7    A    
C29   C32   A    
C11   C13   A    
C43   C51   A    
C39   F4    S    
C20   Br13  S    
C7    C23   S    
C55   C61   A    
C36   C38   A    
C8    C24   S    
C32   F2    S    
C10   Br12  S    
C56   C62   A    
C31   F1    S    
C4    C14   A    
C36   C44   A    
C33   H7    S    
C15   C21   A    
C8    C10   A    
C22   C26   A    
C6    F6    S    
O6    Zn2   S    
C22   H9    S    
C24   O8    A    
