data_mof_unit_pretest_1847.cif
_audit_creation_date              2012-12-10T17:23:03-0500
_audit_creation_method            fapswitch 2.2
_symmetry_space_group_name_H-M    P1
_symmetry_Int_Tables_number       1
_space_group_crystal_system       triclinic
_cell_length_a                    21.709049
_cell_length_b                    21.709051
_cell_length_c                    39.03294
_cell_angle_alpha                 89.999952
_cell_angle_beta                  90.0001
_cell_angle_gamma                 90.000022
_cell_volume                      18395.5552813

loop_
_atom_site_label
_atom_site_type_symbol
_atom_type_description
_atom_site_fract_x
_atom_site_fract_y
_atom_site_fract_z
_atom_type_partial_charge
C1    C     C_R   0.618435 1.000000 0.500000 0.764670
C2    C     C_R   0.000000 0.618435 0.500000 0.764671
C3    C     C_R   0.381564 1.000000 0.500000 0.764670
C4    C     C_R   0.000000 0.381564 0.500000 0.764672
C5    C     C_R   0.118435 0.500000 1.000000 0.764668
C6    C     C_R   0.500000 0.118435 0.000000 0.764670
C7    C     C_R   0.881564 0.500000 0.000000 0.764668
C8    C     C_R   0.500000 0.881564 1.000000 0.764671
C9    C     C_R   0.781062 0.001564 0.468905 -0.158080
C10   C     C_R   0.998450 0.781062 0.468905 -0.158082
C11   C     C_R   0.218937 0.998436 0.468905 -0.158081
C12   C     C_R   0.001554 0.218937 0.468905 -0.158082
C13   C     C_R   0.781062 0.998436 0.531095 -0.158081
C14   C     C_R   0.998446 0.218937 0.531095 -0.158082
C15   C     C_R   0.218938 0.001564 0.531095 -0.158080
C16   C     C_R   0.001550 0.781062 0.531095 -0.158082
C17   C     C_R   0.281062 0.501572 0.968905 -0.158082
C18   C     C_R   0.498439 0.281062 0.968905 -0.158081
C19   C     C_R   0.718937 0.498433 0.968905 -0.158080
C20   C     C_R   0.501555 0.718938 0.968905 -0.158082
C21   C     C_R   0.281063 0.498428 0.031094 -0.158080
C22   C     C_R   0.498445 0.718937 0.031095 -0.158081
C23   C     C_R   0.718938 0.501567 0.031095 -0.158082
C24   C     C_R   0.501561 0.281062 0.031095 -0.158081
C25   C     C_R   0.813160 1.000000 0.500000 -0.130254
C26   C     C_R   1.000000 0.813160 0.500000 -0.130255
C27   C     C_R   0.186839 1.000000 0.500000 -0.130255
C28   C     C_R   1.000000 0.186839 0.500000 -0.130255
C29   C     C_R   0.313160 0.500000 1.000000 -0.130255
C30   C     C_R   0.500000 0.313160 0.000000 -0.130254
C31   C     C_R   0.686840 0.500000 0.000000 -0.130254
C32   C     C_R   0.500000 0.686840 1.000000 -0.130254
C33   C     C_R   0.685060 1.000000 0.500000 -0.103181
C34   C     C_R   1.000000 0.685060 0.500000 -0.103179
C35   C     C_R   0.314939 1.000000 0.500000 -0.103181
C36   C     C_R   0.000000 0.314939 0.500000 -0.103180
C37   C     C_R   0.185060 0.500000 1.000000 -0.103182
C38   C     C_R   0.500000 0.185060 0.000000 -0.103181
C39   C     C_R   0.814940 0.500000 0.000000 -0.103182
C40   C     C_R   0.500000 0.814940 1.000000 -0.103180
C41   C     C_R   0.000000 0.119456 0.500000 0.816536
C42   C     C_R   0.880544 1.000000 0.500000 0.816537
C43   C     C_R   1.000000 0.880544 0.500000 0.816537
C44   C     C_R   0.119456 1.000000 0.500000 0.816537
C45   C     C_R   0.500000 0.619456 1.000000 0.816537
C46   C     C_R   0.380544 0.500000 1.000000 0.816537
C47   C     C_R   0.500000 0.380544 0.000000 0.816537
C48   C     C_R   0.619456 0.500000 0.000000 0.816537
C49   C     C_R   0.500000 1.000000 0.566246 0.773506
C50   C     C_R   0.000000 0.500000 0.566246 0.773511
C51   C     C_R   0.500000 1.000000 0.433754 0.773506
C52   C     C_R   1.000000 0.500000 0.433754 0.773509
C53   C     C_R   1.000000 0.500000 0.066246 0.773505
C54   C     C_R   0.500000 1.000000 0.066246 0.773508
C55   C     C_R   0.000000 0.500000 0.933754 0.773506
C56   C     C_R   0.500000 0.000000 0.933754 0.773507
C57   C     C_R   0.555376 0.992979 0.877757 -0.213459
C58   C     C_R   0.007047 0.555373 0.877757 -0.213461
C59   C     C_R   0.444624 0.007021 0.877757 -0.213461
C60   C     C_R   0.992953 0.444627 0.877757 -0.213459
C61   C     C_R   0.555377 0.007014 0.122243 -0.213463
C62   C     C_R   0.007029 0.444625 0.122243 -0.213460
C63   C     C_R   0.444623 0.992986 0.122243 -0.213461
C64   C     C_R   0.992971 0.555375 0.122243 -0.213459
C65   C     C_R   0.055377 0.492985 0.377757 -0.213463
C66   C     C_R   0.507031 0.055375 0.377757 -0.213460
C67   C     C_R   0.944623 0.507015 0.377757 -0.213462
C68   C     C_R   0.492969 0.944625 0.377757 -0.213460
C69   C     C_R   0.055380 0.506991 0.622243 -0.213464
C70   C     C_R   0.507025 0.944624 0.622243 -0.213461
C71   C     C_R   0.944620 0.493009 0.622243 -0.213465
C72   C     C_R   0.492975 0.055376 0.622243 -0.213461
C73   C     C_R   0.555335 0.992892 0.842014 -0.073331
C74   C     C_R   0.007135 0.555332 0.842015 -0.073330
C75   C     C_R   0.444664 0.007108 0.842014 -0.073333
C76   C     C_R   0.992865 0.444668 0.842015 -0.073329
C77   C     C_R   0.555336 0.007102 0.157986 -0.073334
C78   C     C_R   0.007116 0.444666 0.157986 -0.073333
C79   C     C_R   0.444664 0.992899 0.157986 -0.073332
C80   C     C_R   0.992884 0.555334 0.157986 -0.073330
C81   C     C_R   0.055335 0.492897 0.342014 -0.073334
C82   C     C_R   0.507119 0.055334 0.342014 -0.073331
C83   C     C_R   0.944664 0.507102 0.342014 -0.073332
C84   C     C_R   0.492882 0.944666 0.342014 -0.073332
C85   C     C_R   0.055339 0.507077 0.657986 -0.073333
C86   C     C_R   0.507112 0.944665 0.657986 -0.073332
C87   C     C_R   0.944661 0.492923 0.657986 -0.073335
C88   C     C_R   0.492888 0.055335 0.657986 -0.073332
C89   C     C_R   0.500000 1.000000 0.823882 0.255781
C90   C     C_R   0.000000 0.500000 0.823883 0.255774
C91   C     C_R   0.500000 0.000000 0.176118 0.255781
C92   C     C_R   1.000000 0.500000 0.176118 0.255784
C93   C     C_R   1.000000 0.500000 0.323882 0.255777
C94   C     C_R   0.500000 0.000000 0.323882 0.255783
C95   C     C_R   0.000000 0.500000 0.676118 0.255775
C96   C     C_R   0.499999 1.000000 0.676118 0.255783
C97   C     C_R   0.500000 1.000000 0.895978 -0.046765
C98   C     C_R   0.000000 0.500000 0.895978 -0.046755
C99   C     C_R   0.500000 1.000000 0.104022 -0.046766
C100  C     C_R   1.000000 0.500000 0.104022 -0.046761
C101  C     C_R   1.000000 0.500000 0.395978 -0.046766
C102  C     C_R   0.500000 1.000000 0.395978 -0.046761
C103  C     C_R   0.000000 0.500000 0.604022 -0.046772
C104  C     C_R   0.500000 1.000000 0.604022 -0.046762
C105  C     C_R   0.539517 0.039555 0.767885 0.493851
C106  C     C_R   0.039533 0.460460 0.767885 0.493853
C107  C     C_R   0.460482 0.960445 0.767885 0.493852
C108  C     C_R   0.960468 0.539540 0.767885 0.493853
C109  C     C_R   0.539513 0.960441 0.232115 0.493850
C110  C     C_R   0.039549 0.539522 0.232115 0.493854
C111  C     C_R   0.460487 0.039559 0.232115 0.493849
C112  C     C_R   0.960451 0.460477 0.232115 0.493853
C113  C     C_R   0.039514 0.539557 0.267885 0.493849
C114  C     C_R   0.539548 0.960476 0.267885 0.493853
C115  C     C_R   0.960485 0.460443 0.267885 0.493850
C116  C     C_R   0.460453 0.039525 0.267885 0.493853
C117  C     C_R   0.039498 0.460426 0.732115 0.493851
C118  C     C_R   0.539551 0.039520 0.732115 0.493853
C119  C     C_R   0.960502 0.539575 0.732115 0.493851
C120  C     C_R   0.460448 0.960480 0.732115 0.493853
C121  C     C_R   0.499999 1.000000 0.713944 -0.375748
C122  C     C_R   0.000000 0.500000 0.713944 -0.375745
C123  C     C_R   0.500000 0.000000 0.286056 -0.375747
C124  C     C_R   1.000000 0.500000 0.286056 -0.375741
C125  C     C_R   1.000000 0.500000 0.213944 -0.375748
C126  C     C_R   0.500000 0.000000 0.213944 -0.375744
C127  C     C_R   0.000000 0.500000 0.786056 -0.375750
C128  C     C_R   0.499999 1.000000 0.786056 -0.375747
C129  C     C_R   0.716631 0.001602 0.468357 0.122502
C130  C     C_R   0.998413 0.716631 0.468357 0.122502
C131  C     C_R   0.283369 0.998398 0.468357 0.122501
C132  C     C_R   0.001591 0.283369 0.468357 0.122501
C133  C     C_R   0.716631 0.998398 0.531643 0.122501
C134  C     C_R   0.998409 0.283369 0.531643 0.122501
C135  C     C_R   0.283369 0.001601 0.531643 0.122501
C136  C     C_R   0.001587 0.716631 0.531644 0.122500
C137  C     C_R   0.216631 0.501610 0.968357 0.122505
C138  C     C_R   0.498402 0.216631 0.968357 0.122501
C139  C     C_R   0.783369 0.498395 0.968357 0.122503
C140  C     C_R   0.501592 0.783369 0.968356 0.122501
C141  C     C_R   0.216631 0.498391 0.031643 0.122504
C142  C     C_R   0.498408 0.783369 0.031643 0.122501
C143  C     C_R   0.783369 0.501604 0.031643 0.122502
C144  C     C_R   0.501598 0.216631 0.031643 0.122501
Cu1   Cu    Cu3+1 0.500000 0.061870 0.500000 0.956991
Cu2   Cu    Cu3+1 0.938130 0.500000 0.500000 0.956987
Cu3   Cu    Cu3+1 0.500000 0.938130 0.500000 0.956991
Cu4   Cu    Cu3+1 0.061870 0.500000 0.500000 0.956987
Cu5   Cu    Cu3+1 0.000000 0.561870 0.000000 0.956996
Cu6   Cu    Cu3+1 0.438130 0.000000 0.000000 0.956992
Cu7   Cu    Cu3+1 0.000000 0.438130 0.000000 0.956996
Cu8   Cu    Cu3+1 0.561870 0.000000 0.000000 0.956992
Cu9   Cu    Cu3+1 0.000000 1.000000 0.465870 0.957350
Cu10  Cu    Cu3+1 0.000000 1.000000 0.534130 0.957354
Cu11  Cu    Cu3+1 0.500000 0.500000 0.965870 0.957347
Cu12  Cu    Cu3+1 0.500000 0.500000 0.034130 0.957351
H1    H     H_    0.598737 0.987181 0.891083 0.166538
H2    H     H_    0.012866 0.598731 0.891083 0.166534
H3    H     H_    0.401262 0.012819 0.891083 0.166538
H4    H     H_    0.987134 0.401268 0.891083 0.166534
H5    H     H_    0.598739 0.012807 0.108917 0.166539
H6    H     H_    0.012833 0.401264 0.108917 0.166536
H7    H     H_    0.401261 0.987194 0.108917 0.166539
H8    H     H_    0.987167 0.598735 0.108917 0.166536
H9    H     H_    0.098739 0.487192 0.391083 0.166540
H10   H     H_    0.512837 0.098735 0.391083 0.166536
H11   H     H_    0.901261 0.512808 0.391083 0.166540
H12   H     H_    0.487163 0.901265 0.391083 0.166536
H13   H     H_    0.098744 0.512764 0.608918 0.166544
H14   H     H_    0.512826 0.901263 0.608917 0.166536
H15   H     H_    0.901256 0.487236 0.608917 0.166544
H16   H     H_    0.487174 0.098737 0.608917 0.166536
H17   H     H_    0.598454 0.986704 0.828484 0.169897
H18   H     H_    0.013344 0.598449 0.828484 0.169903
H19   H     H_    0.401545 0.013295 0.828484 0.169897
H20   H     H_    0.986657 0.401552 0.828484 0.169902
H21   H     H_    0.598457 0.013284 0.171516 0.169897
H22   H     H_    0.013310 0.401547 0.171516 0.169895
H23   H     H_    0.401544 0.986716 0.171516 0.169897
H24   H     H_    0.986690 0.598452 0.171516 0.169894
H25   H     H_    0.098455 0.486715 0.328484 0.169900
H26   H     H_    0.513314 0.098452 0.328484 0.169895
H27   H     H_    0.901544 0.513285 0.328483 0.169900
H28   H     H_    0.486687 0.901548 0.328484 0.169895
H29   H     H_    0.098462 0.513241 0.671516 0.169901
H30   H     H_    0.513302 0.901546 0.671516 0.169895
H31   H     H_    0.901538 0.486759 0.671516 0.169901
H32   H     H_    0.486697 0.098453 0.671516 0.169895
H33   H     H_    0.806847 0.002800 0.445252 0.173798
H34   H     H_    0.997226 0.806848 0.445252 0.173799
H35   H     H_    0.193152 0.997201 0.445252 0.173798
H36   H     H_    0.002781 0.193153 0.445252 0.173799
H37   H     H_    0.806848 0.997200 0.554748 0.173799
H38   H     H_    0.997219 0.193152 0.554748 0.173800
H39   H     H_    0.193153 0.002799 0.554748 0.173798
H40   H     H_    0.002773 0.806847 0.554748 0.173799
H41   H     H_    0.306847 0.502813 0.945252 0.173798
H42   H     H_    0.497206 0.306848 0.945252 0.173798
H43   H     H_    0.693152 0.497196 0.945252 0.173798
H44   H     H_    0.502783 0.693153 0.945252 0.173799
H45   H     H_    0.306848 0.497187 0.054747 0.173799
H46   H     H_    0.497217 0.693152 0.054748 0.173799
H47   H     H_    0.693153 0.502804 0.054748 0.173799
H48   H     H_    0.502794 0.306847 0.054748 0.173798
O1    O     O_R   0.590130 0.052260 0.500070 -0.580586
O2    O     O_R   0.947740 0.590130 0.500070 -0.580587
O3    O     O_R   0.409870 0.947740 0.500070 -0.580586
O4    O     O_R   0.052260 0.409870 0.500070 -0.580587
O5    O     O_R   0.590130 0.947740 0.499930 -0.580585
O6    O     O_R   0.947740 0.409870 0.499930 -0.580584
O7    O     O_R   0.409870 0.052260 0.499930 -0.580585
O8    O     O_R   0.052260 0.590130 0.499930 -0.580584
O9    O     O_R   0.090130 0.552260 0.000070 -0.580587
O10   O     O_R   0.447740 0.090130 0.000070 -0.580586
O11   O     O_R   0.909870 0.447740 0.000070 -0.580587
O12   O     O_R   0.552260 0.909870 0.000070 -0.580586
O13   O     O_R   0.090130 0.447740 0.999930 -0.580584
O14   O     O_R   0.447740 0.909870 0.999930 -0.580585
O15   O     O_R   0.909870 0.552260 0.999930 -0.580584
O16   O     O_R   0.552260 0.090130 0.999930 -0.580585
O17   O     O_R   0.499930 0.052260 0.549980 -0.587235
O18   O     O_R   0.947740 0.499930 0.549980 -0.587240
O19   O     O_R   0.500070 0.947740 0.549980 -0.587235
O20   O     O_R   0.052260 0.500070 0.549980 -0.587239
O21   O     O_R   0.499930 0.947740 0.450020 -0.587234
O22   O     O_R   0.947740 0.500070 0.450020 -0.587236
O23   O     O_R   0.500070 0.052260 0.450020 -0.587234
O24   O     O_R   0.052260 0.499930 0.450020 -0.587237
O25   O     O_R   0.999930 0.552260 0.049980 -0.587233
O26   O     O_R   0.447740 0.999930 0.049980 -0.587235
O27   O     O_R   0.000070 0.447740 0.049980 -0.587235
O28   O     O_R   0.552260 0.000070 0.049980 -0.587237
O29   O     O_R   0.999930 0.447740 0.950020 -0.587232
O30   O     O_R   0.447740 0.000070 0.950020 -0.587236
O31   O     O_R   0.000070 0.552260 0.950020 -0.587233
O32   O     O_R   0.552260 0.999930 0.950020 -0.587234
O33   O     O_R   0.999990 0.090340 0.471200 -0.590867
O34   O     O_R   0.909660 0.999990 0.471200 -0.590867
O35   O     O_R   0.000010 0.909660 0.471200 -0.590867
O36   O     O_R   0.090340 0.000010 0.471200 -0.590867
O37   O     O_R   0.999990 0.909660 0.528800 -0.590867
O38   O     O_R   0.909660 0.000010 0.528800 -0.590866
O39   O     O_R   0.000010 0.090340 0.528800 -0.590866
O40   O     O_R   0.090340 0.999990 0.528800 -0.590866
O41   O     O_R   0.499990 0.590340 0.971200 -0.590868
O42   O     O_R   0.409660 0.499990 0.971200 -0.590868
O43   O     O_R   0.500010 0.409660 0.971200 -0.590867
O44   O     O_R   0.590340 0.500010 0.971200 -0.590867
O45   O     O_R   0.499990 0.409660 0.028800 -0.590867
O46   O     O_R   0.409660 0.500010 0.028800 -0.590866
O47   O     O_R   0.500010 0.590340 0.028800 -0.590866
O48   O     O_R   0.590340 0.499990 0.028800 -0.590867
F1    F     F_    0.577335 0.079038 0.784789 -0.604626
F2    F     F_    0.078995 0.422620 0.784789 -0.604623
F3    F     F_    0.422664 0.920962 0.784789 -0.604628
F4    F     F_    0.921005 0.577381 0.784789 -0.604623
F5    F     F_    0.577327 0.920954 0.215211 -0.604629
F6    F     F_    0.079027 0.577346 0.215210 -0.604625
F7    F     F_    0.422674 0.079047 0.215211 -0.604628
F8    F     F_    0.920972 0.422654 0.215210 -0.604626
F9    F     F_    0.077330 0.579043 0.284789 -0.604630
F10   F     F_    0.579025 0.922651 0.284789 -0.604626
F11   F     F_    0.922670 0.420957 0.284789 -0.604630
F12   F     F_    0.420976 0.077350 0.284789 -0.604625
F13   F     F_    0.077297 0.420923 0.715211 -0.604632
F14   F     F_    0.579032 0.077341 0.715211 -0.604626
F15   F     F_    0.922704 0.579077 0.715211 -0.604633
F16   F     F_    0.420967 0.922659 0.715211 -0.604626
C145  C     C_3   0.680060 0.003236 0.434900 -0.400178
C146  C     C_3   0.717831 0.004663 0.401838 -0.802159
H49   H     H_    0.747004 0.046661 0.400898 0.250360
H50   H     H_    0.746921 0.962741 0.399748 0.255698
H51   H     H_    0.686109 0.005688 0.379516 0.262837
H52   H     H_    0.649774 0.961986 0.433856 0.211520
H53   H     H_    0.649958 0.044660 0.435031 0.208409
C147  C     C_3   0.996794 0.680060 0.434900 -0.400184
C148  C     C_3   0.995379 0.717831 0.401838 -0.802149
H54   H     H_    0.953382 0.747005 0.400892 0.250363
H55   H     H_    0.037301 0.746922 0.399753 0.255691
H56   H     H_    0.994364 0.686110 0.379516 0.262848
H57   H     H_    0.038045 0.649775 0.433862 0.211528
H58   H     H_    0.955371 0.649958 0.435026 0.208404
C149  C     C_3   0.319940 0.996765 0.434900 -0.400175
C150  C     C_3   0.282169 0.995338 0.401838 -0.802159
H59   H     H_    0.252995 0.953341 0.400898 0.250360
H60   H     H_    0.253079 0.037260 0.399748 0.255697
H61   H     H_    0.313890 0.994313 0.379516 0.262837
H62   H     H_    0.350225 0.038015 0.433857 0.211520
H63   H     H_    0.350041 0.955341 0.435031 0.208409
C151  C     C_3   0.003215 0.319940 0.434900 -0.400184
C152  C     C_3   0.004633 0.282169 0.401838 -0.802152
H64   H     H_    0.046630 0.252995 0.400894 0.250363
H65   H     H_    0.962711 0.253079 0.399751 0.255693
H66   H     H_    0.005651 0.313891 0.379516 0.262846
H67   H     H_    0.961964 0.350225 0.433860 0.211525
H68   H     H_    0.044638 0.350042 0.435028 0.208406
C153  C     C_3   0.680060 0.996764 0.565100 -0.400178
C154  C     C_3   0.717831 0.995337 0.598162 -0.802154
H69   H     H_    0.747005 0.953340 0.599102 0.250360
H70   H     H_    0.746921 0.037259 0.600252 0.255697
H71   H     H_    0.686110 0.994312 0.620484 0.262838
H72   H     H_    0.649775 0.038014 0.566143 0.211519
H73   H     H_    0.649959 0.955340 0.564968 0.208410
C155  C     C_3   0.996786 0.319940 0.565100 -0.400189
C156  C     C_3   0.995369 0.282169 0.598162 -0.802135
H74   H     H_    0.953371 0.252995 0.599106 0.250362
H75   H     H_    0.037291 0.253079 0.600248 0.255692
H76   H     H_    0.994351 0.313890 0.620484 0.262853
H77   H     H_    0.038036 0.350225 0.566140 0.211522
H78   H     H_    0.955362 0.350041 0.564972 0.208411
C157  C     C_3   0.319940 0.003235 0.565100 -0.400180
C158  C     C_3   0.282169 0.004662 0.598162 -0.802153
H79   H     H_    0.252995 0.046659 0.599102 0.250360
H80   H     H_    0.253079 0.962740 0.600252 0.255697
H81   H     H_    0.313891 0.005686 0.620484 0.262838
H82   H     H_    0.350226 0.961985 0.566143 0.211519
H83   H     H_    0.350041 0.044659 0.564969 0.208410
C159  C     C_3   0.003206 0.680060 0.565100 -0.400190
C160  C     C_3   0.004619 0.717831 0.598162 -0.802133
H84   H     H_    0.046617 0.747004 0.599108 0.250363
H85   H     H_    0.962697 0.746921 0.600247 0.255690
H86   H     H_    0.005634 0.686109 0.620484 0.262855
H87   H     H_    0.961955 0.649775 0.566138 0.211525
H88   H     H_    0.044629 0.649958 0.564974 0.208408
C161  C     C_3   0.180060 0.503252 0.934900 -0.400173
C162  C     C_3   0.217831 0.504686 0.901839 -0.802178
H89   H     H_    0.247005 0.546683 0.900901 0.250360
H90   H     H_    0.246920 0.462765 0.899745 0.255701
H91   H     H_    0.186109 0.505716 0.879517 0.262828
H92   H     H_    0.149774 0.462002 0.933854 0.211517
H93   H     H_    0.149959 0.544676 0.935035 0.208412
C163  C     C_3   0.496771 0.180060 0.934900 -0.400178
C164  C     C_3   0.495347 0.217831 0.901838 -0.802153
H94   H     H_    0.453349 0.247005 0.900896 0.250361
H95   H     H_    0.537269 0.246921 0.899749 0.255694
H96   H     H_    0.494324 0.186110 0.879516 0.262841
H97   H     H_    0.538021 0.149775 0.933858 0.211520
H98   H     H_    0.455347 0.149959 0.935030 0.208410
C165  C     C_3   0.819940 0.496758 0.934900 -0.400172
C166  C     C_3   0.782169 0.495327 0.901838 -0.802173
H99   H     H_    0.752995 0.453329 0.900900 0.250361
H100  H     H_    0.753078 0.537249 0.899746 0.255699
H101  H     H_    0.813890 0.494300 0.879516 0.262830
H102  H     H_    0.850225 0.538009 0.933855 0.211520
H103  H     H_    0.850041 0.455335 0.935033 0.208409
C167  C     C_3   0.503217 0.819940 0.934899 -0.400180
C168  C     C_3   0.504636 0.782169 0.901838 -0.802153
H104  H     H_    0.546633 0.752996 0.900894 0.250362
H105  H     H_    0.462713 0.753079 0.899751 0.255693
H106  H     H_    0.505654 0.813890 0.879516 0.262844
H107  H     H_    0.461966 0.850225 0.933860 0.211525
H108  H     H_    0.544640 0.850042 0.935028 0.208406
C169  C     C_3   0.180060 0.496749 0.065100 -0.400178
C170  C     C_3   0.217831 0.495315 0.098161 -0.802161
H109  H     H_    0.247005 0.453317 0.099099 0.250360
H110  H     H_    0.246921 0.537236 0.100254 0.255700
H111  H     H_    0.186110 0.494285 0.120483 0.262834
H112  H     H_    0.149774 0.537998 0.066146 0.211515
H113  H     H_    0.149959 0.455325 0.064965 0.208416
C171  C     C_3   0.496783 0.819940 0.065100 -0.400183
C172  C     C_3   0.495365 0.782169 0.098162 -0.802147
H114  H     H_    0.453368 0.752995 0.099106 0.250362
H115  H     H_    0.537287 0.753079 0.100249 0.255692
H116  H     H_    0.494346 0.813890 0.120484 0.262845
H117  H     H_    0.538034 0.850225 0.066140 0.211524
H118  H     H_    0.455360 0.850041 0.064972 0.208407
C173  C     C_3   0.819940 0.503241 0.065100 -0.400176
C174  C     C_3   0.782169 0.504669 0.098162 -0.802157
H119  H     H_    0.752995 0.546667 0.099101 0.250359
H120  H     H_    0.753079 0.462748 0.100253 0.255698
H121  H     H_    0.813891 0.505696 0.120484 0.262836
H122  H     H_    0.850226 0.461991 0.066144 0.211517
H123  H     H_    0.850041 0.544665 0.064968 0.208411
C175  C     C_3   0.503229 0.180060 0.065100 -0.400181
C176  C     C_3   0.504653 0.217831 0.098162 -0.802147
H124  H     H_    0.546650 0.247005 0.099104 0.250361
H125  H     H_    0.462731 0.246921 0.100251 0.255694
H126  H     H_    0.505675 0.186109 0.120484 0.262843
H127  H     H_    0.461979 0.149774 0.066142 0.211520
H128  H     H_    0.544653 0.149959 0.064970 0.208410

loop_
_geom_bond_atom_site_label_1
_geom_bond_atom_site_label_2
_ccdc_geom_bond_type
C4    C36   S    
C82   C94   A    
C5    C37   S    
C32   C45   S    
C152  H64   S    
C105  F1    S    
C64   H8    S    
C47   O43   A    
C164  H94   S    
C155  H78   S    
C50   O20   A    
C159  H87   S    
C72   H16   S    
C150  H59   S    
C60   C98   A    
Cu4   O8    S    
C141  C169  S    
C171  H117  S    
Cu1   O17   S    
C83   C93   A    
C46   O46   A    
C72   C88   A    
C5    O13   A    
C153  H72   S    
C17   H41   S    
C162  H89   S    
C135  C157  S    
C2    C34   S    
C69   C103  A    
C14   H38   S    
C50   C103  S    
Cu7   O11   S    
C85   H29   S    
C23   C143  A    
C9    H33   S    
C140  C167  S    
C174  H119  S    
C4    O4    A    
C12   H36   S    
C172  H116  S    
C52   C101  S    
Cu9   O35   S    
C21   H45   S    
C166  H99   S    
C145  H53   S    
Cu12  O45   S    
Cu6   O30   S    
C21   C29   A    
C106  C127  A    
C42   O38   A    
C23   C31   A    
C48   O48   A    
C63   H7    S    
C116  F12   S    
Cu6   Cu8   S    
C66   C82   A    
C15   C27   A    
C34   C136  A    
C57   C97   A    
C162  H91   S    
C38   C138  A    
C83   H27   S    
C167  H108  S    
C112  C125  A    
C43   O35   A    
C173  H122  S    
C41   O39   A    
Cu11  O43   S    
C31   C48   S    
C146  H50   S    
C105  C118  A    
C154  H69   S    
C163  H98   S    
C107  C120  A    
C164  H96   S    
C67   H11   S    
Cu10  O39   S    
C77   C91   A    
C12   C132  A    
C149  H62   S    
C13   C133  A    
C150  H61   S    
C68   C102  A    
C8    O12   A    
C176  H124  S    
Cu8   O32   S    
C144  C175  S    
Cu6   O26   S    
C3    O3    A    
C44   O40   A    
C114  F10   S    
C48   O44   A    
C74   C90   A    
C113  C124  A    
C147  H58   S    
C40   C140  A    
C55   C98   S    
C161  H93   S    
C70   C104  A    
C175  H127  S    
Cu5   O9    S    
C73   C89   A    
C19   C139  A    
Cu11  Cu12  S    
C7    C39   S    
C17   C137  A    
C8    C40   S    
C174  H121  S    
C160  H85   S    
C67   C83   A    
C116  C123  A    
Cu4   O24   S    
C166  H101  S    
C65   C101  A    
C92   C125  S    
C49   C104  S    
Cu1   O1    S    
C42   O34   A    
Cu12  O47   S    
C167  H107  S    
C51   C102  S    
Cu1   O23   S    
C22   C32   A    
C96   C121  S    
C151  H68   S    
C152  H65   S    
C110  F6    S    
C36   C132  A    
C158  H79   S    
Cu5   O15   S    
C57   C73   A    
C175  C176  S    
C20   H44   S    
C63   C99   A    
C27   C44   S    
Cu7   O27   S    
C61   C77   A    
C156  H75   S    
C87   C95   A    
C6    C38   S    
C2    O2    A    
C79   C91   A    
C165  H102  S    
Cu10  O37   S    
C148  H54   S    
C56   O30   A    
C56   C97   S    
C44   O36   A    
C54   O28   A    
C171  C172  S    
Cu11  O41   S    
C3    O7    A    
C1    O5    A    
C84   H28   S    
C163  C164  S    
C46   O42   A    
C35   C135  A    
C87   H31   S    
C78   C92   A    
C77   H21   S    
C117  C122  A    
C3    C35   S    
C22   C142  A    
C107  F3    S    
C69   H13   S    
C169  H113  S    
C109  C114  A    
C6    O16   A    
C114  C123  A    
C68   H12   S    
C52   O22   A    
C71   H15   S    
C54   C99   S    
C130  C147  S    
C16   C136  A    
C69   C85   A    
C120  C121  A    
C67   C101  A    
C20   C32   A    
C176  H126  S    
C71   C103  A    
C50   O18   A    
C49   O17   A    
C62   C78   A    
C36   C134  A    
C163  H97   S    
C82   H26   S    
C19   H43   S    
C158  H81   S    
C159  H88   S    
Cu5   O25   S    
C150  H60   S    
C15   H39   S    
C112  F8    S    
C168  H106  S    
C171  H118  S    
C85   C95   A    
C11   H35   S    
C47   O45   A    
C75   C89   A    
C109  C126  A    
C147  C148  S    
C170  H109  S    
C148  H56   S    
C53   O25   A    
C149  C150  S    
C56   O32   A    
C162  H90   S    
C54   O26   A    
C49   O19   A    
Cu8   O28   S    
C88   C96   A    
C120  F16   S    
C143  C173  S    
C17   C29   A    
C106  F2    S    
C146  H51   S    
C19   C31   A    
C174  H120  S    
C169  C170  S    
Cu3   O21   S    
C9    C25   A    
C41   O33   A    
C172  H115  S    
C58   C74   A    
Cu5   O31   S    
C37   C141  A    
Cu9   O34   S    
C12   C28   A    
C166  H100  S    
Cu2   O18   S    
Cu12  O46   S    
C119  C122  A    
Cu7   O29   S    
C65   H9    S    
C28   C41   S    
C112  C115  A    
C151  C152  S    
C18   C138  A    
C59   H3    S    
C52   O24   A    
C58   C98   A    
C18   H42   S    
C90   C127  S    
C111  C116  A    
C139  C165  S    
C94   C123  S    
C13   H37   S    
C145  C146  S    
C108  F4    S    
C64   C80   A    
C108  C119  A    
C154  H70   S    
C111  F7    S    
Cu1   Cu3   S    
C137  C161  S    
Cu2   Cu4   S    
C164  H95   S    
C53   C100  S    
C16   C26   A    
C155  H77   S    
C165  H103  S    
Cu10  O40   S    
C22   H46   S    
C75   H19   S    
C68   C84   A    
C76   H20   S    
C45   O41   A    
C168  H104  S    
C72   C104  A    
C138  C163  S    
C43   O37   A    
C154  H71   S    
C10   C130  A    
C16   H40   S    
Cu8   O12   S    
C65   C81   A    
C165  C166  S    
C6    O10   A    
C111  C126  A    
C153  H73   S    
C161  H92   S    
C84   C94   A    
C86   C96   A    
C62   C100  A    
C131  C149  S    
C145  H52   S    
C86   H30   S    
C60   C76   A    
C106  C117  A    
C51   O23   A    
C132  C151  S    
C35   C131  A    
Cu3   O19   S    
C33   C129  A    
C115  C124  A    
Cu9   O36   S    
C78   H22   S    
C38   C144  A    
C55   O31   A    
C25   C42   S    
Cu12  O48   S    
C74   H18   S    
Cu2   O22   S    
C2    O8    A    
C29   C46   S    
C20   C140  A    
Cu5   Cu7   S    
C70   H14   S    
C21   C141  A    
C62   H6    S    
C24   C144  A    
C157  H83   S    
C158  H80   S    
C161  C162  S    
C8    O14   A    
Cu4   O4    S    
C160  H84   S    
C64   C100  A    
C156  H74   S    
C133  C153  S    
C146  H49   S    
Cu3   O5    S    
C7    O11   A    
C76   C90   A    
C89   C128  S    
C157  C158  S    
Cu10  O38   S    
C80   C92   A    
C91   C126  S    
C40   C142  A    
C153  C154  S    
C66   C102  A    
C173  C174  S    
C93   C124  S    
C81   H25   S    
Cu2   O2    S    
C1    C33   S    
C63   C79   A    
Cu11  O44   S    
C149  H63   S    
C10   H34   S    
C61   H5    S    
C80   H24   S    
C107  C128  A    
C15   C135  A    
C147  H57   S    
C4    O6    A    
C118  F14   S    
C51   O21   A    
C18   C30   A    
C11   C27   A    
C1    O1    A    
C169  H112  S    
C7    O15   A    
C10   C26   A    
C160  H86   S    
C5    O9    A    
C37   C137  A    
C157  H82   S    
C73   H17   S    
C13   C25   A    
C61   C99   A    
C134  C155  S    
C55   O29   A    
Cu2   O6    S    
C26   C43   S    
C24   C30   A    
C176  H125  S    
C66   H10   S    
C151  H67   S    
C30   C47   S    
C152  H66   S    
C58   H2    S    
C136  C159  S    
C175  H128  S    
C14   C134  A    
C23   H47   S    
C118  C121  A    
C159  C160  S    
C168  H105  S    
C81   C93   A    
C156  H76   S    
C119  F15   S    
Cu7   O13   S    
Cu6   O14   S    
C113  F9    S    
Cu3   O3    S    
C110  C113  A    
C115  F11   S    
C53   O27   A    
C155  C156  S    
C39   C143  A    
C170  H110  S    
C148  H55   S    
C59   C97   A    
C71   C87   A    
C70   C86   A    
C59   C75   A    
C95   C122  S    
Cu11  O42   S    
C57   H1    S    
C24   H48   S    
C105  C128  A    
C60   H4    S    
C11   C131  A    
C9    C129  A    
C170  H111  S    
C172  H114  S    
C142  C171  S    
Cu9   O33   S    
C173  H123  S    
C14   C28   A    
Cu4   O20   S    
C167  C168  S    
C45   O47   A    
Cu8   O16   S    
C79   H23   S    
Cu6   O10   S    
C108  C127  A    
C109  F5    S    
C117  F13   S    
C129  C145  S    
C110  C125  A    
C33   C133  A    
C88   H32   S    
C34   C130  A    
Cu1   O7    S    
Cu9   Cu10  S    
C39   C139  A    
