data_mof_unit_pretest_1561.cif
_audit_creation_date              2012-12-10T17:23:35-0500
_audit_creation_method            fapswitch 2.2
_symmetry_space_group_name_H-M    P1
_symmetry_Int_Tables_number       1
_space_group_crystal_system       triclinic
_cell_length_a                    18.756267
_cell_length_b                    18.872718
_cell_length_c                    18.777339
_cell_angle_alpha                 109.611431
_cell_angle_beta                  109.345257
_cell_angle_gamma                 109.522251
_cell_volume                      5112.58838036

loop_
_atom_site_label
_atom_site_type_symbol
_atom_type_description
_atom_site_fract_x
_atom_site_fract_y
_atom_site_fract_z
_atom_type_partial_charge
C1    C     C_R   0.381131 0.499983 0.380983 0.777568
C2    C     C_R   0.820307 0.815913 0.574315 0.041675
C3    C     C_3   0.875597 0.866571 0.671230 -0.416963
C4    C     C_3   0.803526 0.796476 0.671210 0.203911
C5    C     C_R   0.242942 0.421115 0.241629 -0.175445
C6    C     C_R   0.178132 0.421181 0.178330 -0.175001
C7    C     C_R   0.186195 0.500154 0.185643 -0.012216
C8    C     C_R   0.258526 0.579067 0.257073 -0.176003
C9    C     C_R   0.321817 0.579004 0.321898 -0.176274
C10   C     C_R   0.314427 0.500025 0.313901 -0.011317
C11   C     C_R   0.321675 0.242592 0.499510 -0.177962
C12   C     C_R   0.618458 0.618479 0.499681 0.797071
C13   C     C_R   0.258281 0.179166 0.500837 -0.180102
C14   C     C_R   0.186163 0.186065 0.500565 -0.019520
C15   C     C_R   0.178624 0.257576 0.501084 -0.182859
C16   C     C_R   0.243579 0.322532 0.502864 -0.170406
C17   C     C_R   0.314648 0.314594 0.500995 -0.009037
C18   C     C_R   0.748568 0.487475 0.675907 -0.211763
C19   C     C_R   0.814175 0.490977 0.741262 -0.197935
C20   C     C_R   0.813493 0.503276 0.818575 -0.108075
C21   C     C_R   0.746744 0.513498 0.831854 0.049745
C22   C     C_R   0.678481 0.506767 0.764211 0.385299
C23   C     C_R   0.617088 0.498333 0.619083 0.779683
C24   C     C_R   0.681120 0.495976 0.686821 -0.146787
C25   C     C_R   0.999793 0.881036 0.380930 0.779309
C26   C     C_R   0.881182 0.881227 0.499717 0.799029
C27   C     C_R   0.000192 0.118748 0.618755 0.775738
C28   C     C_R   0.119027 0.118926 0.500075 0.770315
C29   C     C_R   0.999649 0.618851 0.118755 0.767220
C30   C     C_R   0.119052 0.500153 0.118951 0.782113
C31   C     C_R   0.000343 0.381100 0.881154 0.795061
C32   C     C_R   0.881046 0.501323 0.882728 0.800405
C33   C     C_R   0.996040 0.819242 0.240236 -0.172260
C34   C     C_R   0.381240 0.381184 0.500315 0.766152
C35   C     C_R   0.997369 0.755823 0.176788 -0.181169
C36   C     C_R   0.998952 0.685368 0.185274 -0.012345
C37   C     C_R   0.000172 0.678889 0.257739 -0.177201
C38   C     C_R   0.001836 0.743828 0.322640 -0.174710
C39   C     C_R   0.999232 0.813814 0.313710 -0.013363
C40   C     C_R   0.935931 0.164018 0.706058 -0.215070
C41   C     C_R   0.935544 0.227215 0.770308 -0.173929
C42   C     C_R   0.001187 0.314302 0.814103 -0.055575
C43   C     C_R   0.067563 0.337447 0.793193 -0.198276
C44   C     C_R   0.068821 0.274368 0.728770 0.089467
C45   C     C_R   0.757027 0.754960 0.574304 0.071301
C46   C     C_R   0.002090 0.187060 0.685394 -0.013000
C47   C     C_R   0.683507 0.684085 0.497916 -0.094272
C48   C     C_R   0.675096 0.678144 0.418329 -0.197684
C49   C     C_R   0.739567 0.743657 0.418423 -0.200845
C50   C     C_R   0.814230 0.813843 0.497985 -0.072843
Cu1   Cu    Cu3+1 0.499970 0.561780 0.561770 0.956287
Cu2   Cu    Cu3+1 0.500030 0.438220 0.438230 0.952514
Cu3   Cu    Cu3+1 0.061810 0.000000 0.561760 0.947732
Cu4   Cu    Cu3+1 0.938190 0.000070 0.438240 0.950924
Cu5   Cu    Cu3+1 0.938200 0.438300 0.000110 0.936128
Cu6   Cu    Cu3+1 0.061800 0.561880 0.000070 0.952808
H1    H     H_    0.618634 0.624094 0.356788 0.152234
H2    H     H_    0.377129 0.640322 0.377454 0.139440
H3    H     H_    0.376741 0.236251 0.498634 0.139340
H4    H     H_    0.264539 0.124013 0.500398 0.141780
H5    H     H_    0.123353 0.263708 0.501562 0.137349
H6    H     H_    0.237596 0.377972 0.503917 0.140553
H7    H     H_    0.751238 0.479464 0.617098 0.172795
H8    H     H_    0.865396 0.483264 0.731208 0.156549
H9    H     H_    0.994198 0.873263 0.232921 0.142766
H10   H     H_    0.731813 0.738797 0.356887 0.154196
H11   H     H_    0.995873 0.760930 0.120593 0.140777
H12   H     H_    0.001567 0.624613 0.264777 0.140678
H13   H     H_    0.003787 0.738880 0.379023 0.143029
H14   H     H_    0.884783 0.096849 0.672597 0.128916
H15   H     H_    0.883575 0.207948 0.785216 0.157071
H16   H     H_    0.118626 0.404673 0.826921 0.154374
H17   H     H_    0.938658 0.867075 0.693789 0.230488
H18   H     H_    0.880852 0.931368 0.699428 0.141275
H19   H     H_    0.768836 0.820427 0.702311 0.105601
H20   H     H_    0.236609 0.359754 0.235151 0.141124
H21   H     H_    0.122528 0.359859 0.123074 0.140400
H22   H     H_    0.265050 0.640426 0.263354 0.140615
O1    O     O_R   0.409790 0.552170 0.461990 -0.585712
O2    O     O_R   0.947790 0.909920 0.357650 -0.585441
O3    O     O_R   0.962030 0.909820 0.552150 -0.582012
O4    O     O_R   0.857630 0.909880 0.447840 -0.587560
O5    O     O_R   0.052210 0.090150 0.642360 -0.584919
O6    O     O_R   0.947820 0.090210 0.538040 -0.584597
O7    O     O_R   0.142360 0.090190 0.552160 -0.585939
O8    O     O_R   0.037970 0.090250 0.447850 -0.584510
O9    O     O_R   0.947800 0.538090 0.090240 -0.590999
O10   O     O_R   0.052170 0.642450 0.090210 -0.582179
O11   O     O_R   0.038000 0.447920 0.090280 -0.584853
O12   O     O_R   0.409840 0.447810 0.357660 -0.585857
O13   O     O_R   0.142370 0.552280 0.090250 -0.584174
O14   O     O_R   0.947830 0.357730 0.909970 -0.591010
O15   O     O_R   0.052200 0.462090 0.909940 -0.590898
O16   O     O_R   0.857630 0.447900 0.909930 -0.589345
O17   O     O_R   0.962000 0.552260 0.909900 -0.579482
O18   O     O_R   0.590140 0.642360 0.552170 -0.599536
O19   O     O_R   0.590190 0.538010 0.447840 -0.577863
O20   O     O_R   0.590160 0.552190 0.642340 -0.568769
O21   O     O_R   0.590210 0.447830 0.538010 -0.584941
O22   O     O_R   0.409810 0.461990 0.552160 -0.586078
O23   O     O_R   0.409860 0.357640 0.447830 -0.585321
O24   O     O_R   0.052180 0.909860 0.461960 -0.585179
C51   C     C_3   0.748572 0.534506 0.918230 -0.338783
C52   C     C_3   0.686387 0.453504 0.913498 -0.308369
C53   C     C_3   0.693264 0.473935 0.002128 -0.841521
H23   H     H_    0.760645 0.496467 0.051298 0.265995
H24   H     H_    0.676188 0.525120 0.024275 0.256898
H25   H     H_    0.647350 0.414461 0.996793 0.238248
H26   H     H_    0.617936 0.428904 0.865168 0.242236
H27   H     H_    0.702260 0.401183 0.892231 0.228283
H28   H     H_    0.815732 0.563534 0.972122 0.173852
H29   H     H_    0.729931 0.585235 0.936004 0.223770
O25   O     O_3   0.610599 0.510786 0.775781 -0.741723
H30   H     H_    0.556426 0.475150 0.718235 0.322737
C54   C     C_3   0.140821 0.302407 0.707229 -0.424559
C55   C     C_3   0.225489 0.317169 0.775079 -0.338087
C56   C     C_3   0.297945 0.343440 0.752896 -0.807185
H31   H     H_    0.279621 0.290410 0.689664 0.264355
H32   H     H_    0.310351 0.403438 0.748921 0.256306
H33   H     H_    0.358994 0.356103 0.804449 0.240283
H34   H     H_    0.247315 0.369366 0.840642 0.216556
H35   H     H_    0.213772 0.256486 0.777554 0.235098
H36   H     H_    0.121746 0.253443 0.641338 0.187324
H37   H     H_    0.152134 0.363397 0.705509 0.195227
O26   O     O_3   0.831820 0.745594 0.698742 -0.694871
H38   H     H_    0.780514 0.701251 0.693766 0.326504

loop_
_geom_bond_atom_site_label_1
_geom_bond_atom_site_label_2
_ccdc_geom_bond_type
Cu6   O17   S    
C32   O16   A    
Cu5   Cu6   S    
C43   H16   S    
C31   C42   S    
C25   O2    A    
C41   C42   A    
C23   O21   A    
C19   C20   A    
Cu4   O6    S    
C33   H9    S    
C48   H1    S    
C13   H4    S    
Cu3   Cu4   S    
C28   O7    A    
C40   C46   A    
C53   H24   S    
C29   C36   S    
C33   C39   A    
C40   H14   S    
C4    O26   S    
C18   C24   A    
C51   H28   S    
C36   C37   A    
C18   C19   A    
C56   H32   S    
C38   C39   A    
C25   O24   A    
Cu6   O10   S    
C54   C55   S    
C37   H12   S    
Cu2   O19   S    
C55   C56   S    
Cu3   O3    S    
C9    H2    S    
C3    H18   S    
C4    H19   S    
C2    C50   A    
C3    H17   S    
Cu2   O12   S    
C22   O25   S    
C11   C17   A    
C35   C36   A    
C44   C54   S    
C8    C9    A    
C29   O10   A    
Cu5   O16   S    
C34   O22   A    
C23   C24   S    
C9    C10   A    
Cu3   O24   S    
Cu1   O18   S    
C41   H15   S    
Cu1   O20   S    
C38   H13   S    
C26   O4    A    
C7    C30   S    
C21   C22   A    
C8    H22   S    
C16   H6    S    
C12   C47   S    
C11   H3    S    
C52   C53   S    
C44   C46   A    
Cu4   O2    S    
C4    C45   S    
C45   C47   A    
C2    C45   A    
Cu6   O15   S    
C53   H25   S    
Cu2   O23   S    
C34   O23   A    
C54   H36   S    
C49   H10   S    
Cu1   Cu2   S    
C7    C8    A    
C55   H34   S    
C56   H33   S    
Cu4   O8    S    
C16   C17   A    
C6    H21   S    
C31   O15   A    
C51   H29   S    
C43   C44   A    
C37   C38   A    
C47   C48   A    
C35   H11   S    
C19   H8    S    
C32   O17   A    
C15   H5    S    
C12   O19   A    
C55   H35   S    
C27   C46   S    
C40   C41   A    
Cu5   O14   S    
C31   O14   A    
C26   O3    A    
C28   O8    A    
O26   H38   S    
C1    O1    A    
C22   C24   A    
C42   C43   A    
C3    C4    S    
C1    O12   A    
Cu4   O4    S    
O25   H30   S    
C20   C32   S    
Cu1   O22   S    
C27   O6    A    
C48   C49   A    
C54   H37   S    
C14   C15   A    
C1    C10   S    
C30   O13   A    
C6    C7    A    
C30   O11   A    
C53   H23   S    
Cu2   O21   S    
Cu3   O5    S    
C5    H20   S    
C26   C50   S    
C2    C3    S    
C5    C10   A    
Cu5   O11   S    
C56   H31   S    
C25   C39   S    
C52   H27   S    
C11   C13   A    
C5    C6    A    
C27   O5    A    
C33   C35   A    
Cu5   O9    S    
C18   H7    S    
Cu1   O1    S    
C29   O9    A    
C21   C51   S    
C23   O20   A    
C20   C21   A    
C49   C50   A    
C17   C34   S    
C51   C52   S    
C52   H26   S    
C12   O18   A    
Cu3   O7    S    
C14   C28   S    
C13   C14   A    
Cu6   O13   S    
C15   C16   A    
