data_mof_unit_pretest_894.cif
_audit_creation_date              2012-12-10T19:48:33-0500
_audit_creation_method            fapswitch 2.2
_symmetry_space_group_name_H-M    P1
_symmetry_Int_Tables_number       1
_space_group_crystal_system       triclinic
_cell_length_a                    10.920955
_cell_length_b                    10.621898
_cell_length_c                    9.477099
_cell_angle_alpha                 92.786301
_cell_angle_beta                  90.99403
_cell_angle_gamma                 89.711265
_cell_volume                      1097.88091037

loop_
_atom_site_label
_atom_site_type_symbol
_atom_type_description
_atom_site_fract_x
_atom_site_fract_y
_atom_site_fract_z
_atom_type_partial_charge
C1    C     C_R   0.499305 0.259565 0.497172 0.793631
C2    C     C_3   0.396919 0.046968 0.558612 -0.217292
C3    C     C_3   0.499986 0.878128 0.505985 -0.034382
C4    C     C_3   0.498756 0.122479 0.493195 -0.036197
C5    C     C_3   0.495686 0.970071 0.635257 -0.105585
C6    C     C_3   0.502892 0.031010 0.363549 -0.085405
C7    C     C_3   0.581116 0.577425 0.057403 -0.112828
C8    C     C_3   0.418747 0.422230 0.942788 -0.134893
C9    C     C_3   0.475090 0.608407 0.958521 0.365436
C10   C     C_3   0.524664 0.391159 0.042278 0.368607
C11   C     C_3   0.606372 0.466291 0.948857 -0.105929
C12   C     C_R   0.500170 0.740642 0.502700 0.787668
C13   C     C_3   0.393541 0.533271 0.051417 -0.061391
C14   C     C_R   0.262628 0.495693 0.498329 0.780821
C15   C     C_R   0.737454 0.504318 0.501720 0.782332
C16   C     C_R   0.130507 0.373257 0.001076 -0.250175
C17   C     C_R   0.870647 0.622618 0.000244 -0.252596
C18   C     C_R   0.108250 0.438470 0.129368 -0.160609
C19   C     C_R   0.893069 0.558616 0.871281 -0.161568
C20   C     C_R   0.109103 0.375167 0.255547 0.067153
C21   C     C_R   0.891184 0.622970 0.745781 0.066897
C22   C     C_R   0.132197 0.244593 0.251749 -0.214927
C23   C     C_R   0.871584 0.505642 0.503903 -0.082360
C24   C     C_R   0.866745 0.753254 0.750875 -0.222793
C25   C     C_R   0.153129 0.178613 0.121915 0.484867
C26   C     C_R   0.845734 0.817985 0.881365 0.485717
C27   C     C_R   0.152449 0.243777 0.997124 -0.174529
C28   C     C_R   0.847734 0.751923 0.005526 -0.172732
C29   C     C_R   0.930933 0.448166 0.387883 -0.225329
C30   C     C_R   0.069473 0.552152 0.612386 -0.226074
C31   C     C_3   0.326972 0.757958 0.863118 -0.536729
C32   C     C_3   0.675738 0.244123 0.132182 -0.557910
C33   C     C_R   0.128661 0.494431 0.496365 -0.081324
C34   C     C_R   0.942256 0.559312 0.617705 0.038003
C35   C     C_R   0.058052 0.440326 0.382863 0.036323
C36   C     C_3   0.597564 0.047699 0.569662 -0.074932
C37   C     C_3   0.401112 0.953020 0.429243 -0.068411
C38   C     C_3   0.601786 0.953861 0.440118 -0.211298
Cu1   Cu    Cu3+1 0.500030 0.499990 0.643150 0.943061
Cu2   Cu    Cu3+1 0.499970 0.500010 0.356850 0.965257
H1    H     H_    0.168655 0.194294 0.896529 0.162759
H2    H     H_    0.913387 0.458720 0.869094 0.159992
H3    H     H_    0.128440 0.194118 0.348162 0.159438
H4    H     H_    0.869456 0.804508 0.654936 0.161796
H5    H     H_    0.878031 0.406568 0.300210 0.149227
H6    H     H_    0.122726 0.594172 0.699860 0.152323
H7    H     H_    0.686089 0.912981 0.392279 0.148728
H8    H     H_    0.312641 0.087932 0.606436 0.147841
H9    H     H_    0.677963 0.091378 0.625144 0.214780
H10   H     H_    0.320589 0.908901 0.374569 0.217704
H11   H     H_    0.490180 0.947905 0.747186 0.170110
H12   H     H_    0.831466 0.800507 0.106618 0.165872
H13   H     H_    0.506426 0.058703 0.252796 0.184605
H14   H     H_    0.520245 0.773501 0.862261 0.254644
H15   H     H_    0.258525 0.735105 0.943091 0.249217
H16   H     H_    0.308184 0.701495 0.764414 0.225229
H17   H     H_    0.316341 0.858851 0.840771 0.230096
H18   H     H_    0.516294 0.196139 0.021260 0.243487
H19   H     H_    0.737205 0.251251 0.040871 0.253654
H20   H     H_    0.685508 0.148598 0.173225 0.230131
H21   H     H_    0.703730 0.313033 0.217069 0.231388
H22   H     H_    0.356790 0.028025 0.029032 0.319928
H23   H     H_    0.642860 0.647042 0.112028 0.137724
H24   H     H_    0.640949 0.968567 0.979233 0.326443
H25   H     H_    0.356844 0.352725 0.888194 0.134649
H26   H     H_    0.691744 0.429943 0.900675 0.152129
H27   H     H_    0.308301 0.569852 0.099732 0.147001
H28   H     H_    0.131027 0.423253 0.904298 0.162705
H29   H     H_    0.870667 0.571836 0.096475 0.163353
H30   H     H_    0.088675 0.538489 0.130469 0.160026
N1    N     N_3   0.500090 0.499970 0.858290 -0.191283
N2    N     N_3   0.499910 0.500030 0.141710 -0.181140
N3    N     N_2   0.449773 0.734365 0.915379 -0.436566
N4    N     N_2   0.549985 0.266229 0.090035 -0.428888
O1    O     O_R   0.500060 0.316850 0.620870 -0.576473
O2    O     O_2   0.116830 0.957664 0.978969 -0.268169
O3    O     O_3   0.325397 0.981571 0.108883 -0.572551
O4    O     O_2   0.879138 0.038280 0.026275 -0.269553
O5    O     O_2   0.876276 0.041872 0.767936 -0.290297
O6    O     O_3   0.670707 0.011888 0.896217 -0.600799
O7    O     O_R   0.499940 0.683150 0.379130 -0.568423
O8    O     O_R   0.500000 0.316860 0.379090 -0.553277
O9    O     O_R   0.500000 0.683140 0.620910 -0.590822
O10   O     O_R   0.319670 0.500010 0.620890 -0.601600
O11   O     O_R   0.680330 0.499990 0.379110 -0.602598
O12   O     O_R   0.319620 0.500010 0.379110 -0.569426
O13   O     O_R   0.680380 0.499990 0.620890 -0.570149
O14   O     O_2   0.119223 0.956164 0.237418 -0.290853
S1    S     S_3+6 0.174980 0.013994 0.112122 -0.022005
S2    S     S_3+6 0.821599 0.982130 0.892668 -0.029682

loop_
_geom_bond_atom_site_label_1
_geom_bond_atom_site_label_2
_ccdc_geom_bond_type
C18   H30   S    
C4    C36   S    
C17   H29   S    
C8    C13   S    
C28   H12   S    
H22   O3    S    
Cu1   O13   S    
C14   C33   S    
O4    S2    D    
C7    C11   S    
O3    S1    S    
C23   C29   A    
C19   C21   A    
C24   C26   A    
Cu1   O10   S    
C32   N4    S    
C11   N1    S    
C31   N3    S    
C5    C36   S    
Cu2   O12   S    
C9    C13   S    
O5    S2    D    
C3    C12   S    
C17   C19   A    
C20   C35   S    
C3    C38   S    
C22   C25   A    
C6    C38   S    
C16   H28   S    
Cu1   O1    S    
C31   H16   S    
C19   H2    S    
O2    S1    D    
C15   O11   A    
C16   C27   A    
C15   C23   S    
C8    H25   S    
H24   O6    S    
C9    N3    S    
C30   C34   A    
C1    O1    A    
Cu2   O8    S    
C14   O12   A    
C4    C6    S    
C7    N2    S    
C21   C34   S    
C2    H8    S    
C1    O8    A    
C12   O9    A    
C29   H5    S    
Cu2   O11   S    
C2    C4    S    
H14   N3    S    
C27   H1    S    
C22   H3    S    
C14   O10   A    
C23   C34   A    
C6    C37   S    
C7    H23   S    
C38   H7    S    
C16   C18   A    
C20   C22   A    
C24   H4    S    
C2    C5    S    
C26   S2    S    
C32   H20   S    
C6    H13   S    
Cu1   Cu2   S    
H18   N4    S    
C15   O13   A    
C13   H27   S    
C7    C9    S    
C8    N1    S    
Cu2   N2    S    
C30   C33   A    
C17   C28   A    
C25   S1    S    
Cu2   O7    S    
C30   H6    S    
C9    N1    S    
C3    C5    S    
C32   H21   S    
C11   H26   S    
C13   N2    S    
C25   C27   A    
C29   C35   A    
C26   C28   A    
C1    C4    S    
C31   H17   S    
C36   C38   S    
Cu1   O9    S    
C37   H10   S    
C10   N4    S    
C2    C37   S    
C33   C35   A    
C12   O7    A    
C18   C20   A    
O6    S2    S    
C10   C11   S    
O14   S1    D    
C3    C37   S    
C8    C10   S    
C21   C24   A    
Cu1   N1    S    
C5    H11   S    
C32   H19   S    
C31   H15   S    
C36   H9    S    
C10   N2    S    
