data_mof_unit_pretest_225.cif
_audit_creation_date              2012-12-11T14:14:34-0500
_audit_creation_method            fapswitch 2.2
_symmetry_space_group_name_H-M    P1
_symmetry_Int_Tables_number       1
_space_group_crystal_system       triclinic
_cell_length_a                    24.368056
_cell_length_b                    17.366754
_cell_length_c                    15.540985
_cell_angle_alpha                 90.611041
_cell_angle_beta                  128.169655
_cell_angle_gamma                 90.244144
_cell_volume                      5169.83127459

loop_
_atom_site_label
_atom_site_type_symbol
_atom_type_description
_atom_site_fract_x
_atom_site_fract_y
_atom_site_fract_z
_atom_type_partial_charge
C1    C     C_R   0.336561 0.385885 0.205627 0.494844
C2    C     C_R   0.666099 0.400773 0.802506 0.500118
C3    C     C_R   0.836672 0.885527 0.205958 0.494290
C4    C     C_R   0.166460 0.901262 0.802351 0.502021
C5    C     C_R   0.396683 0.623274 0.594594 -0.156535
C6    C     C_R   0.605620 0.620564 0.407007 -0.158343
C7    C     C_R   0.896785 0.123402 0.594631 -0.156488
C8    C     C_R   0.105744 0.120454 0.407101 -0.159049
C9    C     C_R   0.335351 0.654202 0.504769 -0.097476
C10   C     C_R   0.668544 0.650176 0.497878 -0.094353
C11   C     C_R   0.835486 0.154379 0.504813 -0.097737
C12   C     C_R   0.168663 0.150064 0.498017 -0.095307
C13   C     C_R   0.361382 0.643544 0.156503 -0.056989
C14   C     C_R   0.640554 0.643535 0.848780 -0.051373
C15   C     C_R   0.862539 0.145684 0.158897 -0.048811
C16   C     C_R   0.141349 0.141735 0.850532 -0.061703
C17   C     C_2   0.733147 0.665611 0.428469 -0.274649
C18   C     C_2   0.269478 0.671124 0.571253 -0.276175
C19   C     C_2   0.233232 0.165535 0.428543 -0.274224
C20   C     C_2   0.769286 0.171041 0.570707 -0.276057
C21   C     C_2   0.720158 0.691479 0.496454 0.531500
C22   C     C_2   0.285505 0.697571 0.507786 0.533184
C23   C     C_2   0.220328 0.191319 0.496667 0.531896
C24   C     C_2   0.785674 0.197804 0.507839 0.533453
C25   C     C_2   0.280074 0.207597 0.416312 -0.103781
C26   C     C_2   0.721160 0.212098 0.580453 -0.095556
C27   C     C_2   0.780050 0.707617 0.416323 -0.103542
C28   C     C_2   0.221486 0.712316 0.581191 -0.094365
C29   C     C_2   0.340082 0.237156 0.504475 -0.104019
C30   C     C_2   0.662558 0.240839 0.491374 -0.103268
C31   C     C_2   0.840025 0.737206 0.504526 -0.103868
C32   C     C_2   0.162684 0.740746 0.492124 -0.103590
C33   C     C_2   0.685237 0.333629 0.960695 0.475583
C34   C     C_2   0.331582 0.283798 0.083496 0.480729
C35   C     C_2   0.185038 0.832804 0.959586 0.458518
C36   C     C_2   0.831484 0.783440 0.083641 0.482154
C37   C     C_2   0.725958 0.281397 0.963360 -0.112748
C38   C     C_2   0.299084 0.231814 0.101605 -0.116070
C39   C     C_2   0.224674 0.779816 0.960447 -0.141025
C40   C     C_2   0.798736 0.731559 0.101408 -0.113819
C41   C     C_2   0.320310 0.691713 0.061319 0.466948
C42   C     C_2   0.684559 0.681823 0.956689 0.477032
C43   C     C_2   0.822185 0.194680 0.064778 0.457196
C44   C     C_2   0.185460 0.179701 0.958799 0.478427
C45   C     C_R   0.588281 0.358159 0.406934 -0.108730
C46   C     C_R   0.413781 0.356906 0.591770 -0.113389
C47   C     C_R   0.088350 0.858038 0.407216 -0.110374
C48   C     C_R   0.913801 0.856916 0.591803 -0.114557
C49   C     C_2   0.274480 0.737000 0.056557 -0.188885
C50   C     C_2   0.753819 0.673804 0.018339 -0.166773
C51   C     C_2   0.776685 0.240183 0.060513 -0.204428
C52   C     C_2   0.254814 0.173468 0.019184 -0.177700
C53   C     C_R   0.660224 0.357306 0.589524 -0.119354
C54   C     C_R   0.339328 0.356258 0.409314 -0.128977
C55   C     C_R   0.160277 0.857389 0.589939 -0.113319
C56   C     C_R   0.839285 0.856285 0.409345 -0.129183
C57   C     C_R   0.574841 0.394678 0.800480 -0.214060
C58   C     C_R   0.428426 0.380130 0.209027 -0.203484
C59   C     C_R   0.075196 0.894862 0.800746 -0.201138
C60   C     C_R   0.928520 0.879808 0.209306 -0.204323
C61   C     C_R   0.361721 0.351761 0.155434 -0.250966
C62   C     C_R   0.644279 0.378104 0.861941 -0.227180
C63   C     C_R   0.861889 0.851220 0.155980 -0.250498
C64   C     C_R   0.144890 0.879045 0.862491 -0.240191
C65   C     C_R   0.636537 0.314474 0.496687 0.091929
C66   C     C_R   0.364635 0.312661 0.500829 0.090900
C67   C     C_R   0.136641 0.814438 0.497197 0.089756
C68   C     C_R   0.864615 0.812685 0.500871 0.091658
C69   C     C_R   0.322422 0.623906 0.410957 -0.100952
C70   C     C_R   0.679833 0.621832 0.590478 -0.094078
C71   C     C_R   0.822467 0.123969 0.410994 -0.101311
C72   C     C_R   0.179854 0.121816 0.590583 -0.092245
C73   C     C_R   0.428751 0.618231 0.209028 -0.114964
C74   C     C_R   0.572475 0.617497 0.793709 -0.127451
C75   C     C_R   0.929472 0.119459 0.210499 -0.118725
C76   C     C_R   0.072903 0.116595 0.794591 -0.128602
C77   C     C_R   0.663195 0.617942 0.790611 -0.160066
C78   C     C_R   0.336796 0.614549 0.209568 -0.166773
C79   C     C_R   0.163815 0.116328 0.792012 -0.134892
C80   C     C_R   0.837368 0.115984 0.210833 -0.167333
H1    H     H_    0.258265 0.225542 0.334340 0.134139
H2    H     H_    0.740649 0.229174 0.662293 0.137820
H3    H     H_    0.758316 0.725491 0.334356 0.133500
H4    H     H_    0.241211 0.729786 0.663022 0.137113
H5    H     H_    0.362652 0.214582 0.584960 0.169187
H6    H     H_    0.642290 0.219075 0.410655 0.166676
H7    H     H_    0.862531 0.714684 0.585013 0.169021
H8    H     H_    0.142224 0.718681 0.411447 0.166848
H9    H     H_    0.273356 0.742017 0.125298 0.156924
H10   H     H_    0.777424 0.635276 0.994522 0.107002
H11   H     H_    0.775828 0.245499 0.129507 0.158675
H12   H     H_    0.278704 0.136487 0.994422 0.123470
H13   H     H_    0.722762 0.270089 0.891329 0.174931
H14   H     H_    0.295645 0.239763 0.167652 0.133185
H15   H     H_    0.222038 0.770028 0.888642 0.168008
H16   H     H_    0.795431 0.739383 0.167610 0.130787
H17   H     H_    0.563027 0.342399 0.322950 0.104082
H18   H     H_    0.442684 0.340330 0.675981 0.109372
H19   H     H_    0.063132 0.842113 0.323294 0.104912
H20   H     H_    0.942764 0.840351 0.676035 0.109111
H21   H     H_    0.698366 0.340486 0.673070 0.160914
H22   H     H_    0.299515 0.338834 0.325885 0.161766
H23   H     H_    0.198302 0.840875 0.673841 0.153362
H24   H     H_    0.799390 0.838902 0.325934 0.161849
H25   H     H_    0.543086 0.392982 0.827174 0.132049
H26   H     H_    0.460200 0.373112 0.183054 0.129636
H27   H     H_    0.043455 0.892670 0.827443 0.131113
H28   H     H_    0.960279 0.872727 0.183313 0.129748
H29   H     H_    0.275229 0.629176 0.327738 0.111735
H30   H     H_    0.727509 0.626284 0.673708 0.115884
H31   H     H_    0.775229 0.129211 0.327819 0.111325
H32   H     H_    0.227450 0.126335 0.673901 0.114963
H33   H     H_    0.460684 0.624564 0.183092 0.092998
H34   H     H_    0.542181 0.619251 0.823013 0.094648
H35   H     H_    0.961573 0.126163 0.184930 0.093483
H36   H     H_    0.042547 0.118177 0.823794 0.095117
H37   H     H_    0.714746 0.623625 0.813228 0.107198
H38   H     H_    0.284022 0.615697 0.183099 0.106827
H39   H     H_    0.215738 0.119963 0.815647 0.113855
H40   H     H_    0.784624 0.117844 0.184396 0.106946
H41   H     H_    0.417933 0.628657 0.679443 0.099455
H42   H     H_    0.584785 0.624379 0.322388 0.100473
H43   H     H_    0.918082 0.128854 0.679499 0.099526
H44   H     H_    0.085027 0.124171 0.322535 0.100636
H45   H     H_    0.702376 0.618554 0.370915 0.116929
H46   H     H_    0.297473 0.623120 0.625552 0.117685
H47   H     H_    0.202403 0.118540 0.370899 0.116966
H48   H     H_    0.797037 0.122797 0.624630 0.117702
N1    N     N_R   0.389060 0.424180 0.294540 -0.077402
N2    N     N_R   0.610940 0.424180 0.705460 -0.082008
N3    N     N_R   0.889060 0.924180 0.294540 -0.077839
N4    N     N_R   0.110940 0.924180 0.705460 -0.078165
N5    N     N_R   0.579670 0.423790 0.443360 -0.046816
N6    N     N_R   0.420330 0.423790 0.556640 -0.047230
N7    N     N_R   0.079670 0.923790 0.443360 -0.047662
N8    N     N_R   0.920330 0.923790 0.556640 -0.047637
N9    N     N_R   0.625470 0.423490 0.556600 -0.043769
N10   N     N_R   0.374530 0.423490 0.443400 -0.042447
N11   N     N_R   0.125470 0.923490 0.556600 -0.042240
N12   N     N_R   0.874530 0.923490 0.443400 -0.042570
N13   N     N_R   0.555250 0.423100 0.705420 -0.060910
N14   N     N_R   0.444750 0.423100 0.294580 -0.060474
N15   N     N_R   0.055250 0.923100 0.705420 -0.063007
N16   N     N_R   0.944750 0.923100 0.294580 -0.060543
N17   N     N_R   0.375210 0.577180 0.443400 -0.036097
N18   N     N_R   0.624790 0.577180 0.556600 -0.038423
N19   N     N_R   0.875210 0.077180 0.443400 -0.036048
N20   N     N_R   0.124790 0.077180 0.556600 -0.038243
N21   N     N_R   0.445430 0.577570 0.294580 -0.036659
N22   N     N_R   0.554570 0.577570 0.705420 -0.034346
N23   N     N_R   0.945430 0.077570 0.294580 -0.036735
N24   N     N_R   0.054570 0.077570 0.705420 -0.036099
N25   N     N_R   0.611620 0.576500 0.705460 -0.039616
N26   N     N_R   0.388380 0.576500 0.294540 -0.033502
N27   N     N_R   0.111620 0.076500 0.705460 -0.038352
N28   N     N_R   0.888380 0.076500 0.294540 -0.034012
N29   N     N_R   0.421010 0.576890 0.556640 -0.031371
N30   N     N_R   0.578990 0.576890 0.443360 -0.031726
N31   N     N_R   0.921010 0.076890 0.556640 -0.031657
N32   N     N_R   0.078990 0.076890 0.443360 -0.032406
Ni1   Ni    Ni4+2 0.383200 0.500680 0.370150 0.244079
Ni2   Ni    Ni4+2 0.616800 0.500680 0.629850 0.233708
Ni3   Ni    Ni4+2 0.883200 0.000680 0.370150 0.242793
Ni4   Ni    Ni4+2 0.116800 0.000680 0.629850 0.245510
Ni5   Ni    Ni4+2 0.512440 0.500680 0.370150 0.204513
Ni6   Ni    Ni4+2 0.487560 0.500680 0.629850 0.202650
Ni7   Ni    Ni4+2 0.012440 0.000680 0.370150 0.203922
Ni8   Ni    Ni4+2 0.987560 0.000680 0.629850 0.202227
O1    O     O_3   0.267510 0.392934 0.163729 -0.654392
C81   C     C_3   0.227341 0.421673 0.056366 0.298988
H49   H     H_    0.218022 0.376187 0.997638 0.130388
H50   H     H_    0.253148 0.472673 0.051216 0.078479
C82   C     C_3   0.156935 0.446776 0.022811 -0.864652
H51   H     H_    0.164390 0.492954 0.079326 0.246283
H52   H     H_    0.124615 0.469172 0.938239 0.204857
H53   H     H_    0.129200 0.397069 0.025462 0.273579
O2    O     O_3   0.733806 0.404319 0.836950 -0.663294
C83   C     C_3   0.775626 0.455573 0.927312 0.252344
H54   H     H_    0.758167 0.463155 0.978333 0.084242
H55   H     H_    0.775973 0.512699 0.896677 0.101659
C84   C     C_3   0.850251 0.426814 0.000670 -0.840439
H56   H     H_    0.870316 0.421313 0.953308 0.258660
H57   H     H_    0.884104 0.468141 0.069816 0.202820
H58   H     H_    0.852269 0.369816 0.034094 0.268584
O3    O     O_3   0.767575 0.892622 0.163734 -0.653795
C85   C     C_3   0.727984 0.922808 0.057227 0.300742
H59   H     H_    0.718882 0.878287 0.997567 0.130506
H60   H     H_    0.754179 0.974259 0.053906 0.077659
C86   C     C_3   0.657431 0.947584 0.023378 -0.862851
H61   H     H_    0.664705 0.992858 0.080790 0.245894
H62   H     H_    0.625551 0.971064 0.939433 0.204388
H63   H     H_    0.629329 0.897471 0.024293 0.274522
O4    O     O_3   0.234080 0.912204 0.837877 -0.656705
C87   C     C_3   0.275434 0.953481 0.938571 0.267477
H64   H     H_    0.298086 0.913461 0.007845 0.124086
H65   H     H_    0.245416 0.998483 0.944565 0.074887
C88   C     C_3   0.335480 0.993025 0.949956 -0.880639
H66   H     H_    0.314931 0.033020 0.881179 0.248994
H67   H     H_    0.368168 0.026242 0.028352 0.213279
H68   H     H_    0.368364 0.949377 0.949188 0.265580
O5    O     O_3   0.758761 0.752528 0.569219 -0.632457
C89   C     C_3   0.714493 0.806600 0.566182 0.292206
H69   H     H_    0.696742 0.785232 0.612655 0.108036
H70   H     H_    0.668237 0.819130 0.480463 0.083821
C90   C     C_3   0.755040 0.881597 0.619633 -0.892284
H71   H     H_    0.773238 0.904537 0.574550 0.259707
H72   H     H_    0.721014 0.924771 0.618210 0.210508
H73   H     H_    0.801006 0.871609 0.705954 0.257862
O6    O     O_3   0.250350 0.760025 0.439594 -0.632697
C91   C     C_3   0.296409 0.809521 0.439397 0.285940
H74   H     H_    0.309610 0.784339 0.388241 0.108554
H75   H     H_    0.345228 0.821157 0.524017 0.082820
C92   C     C_3   0.260600 0.885962 0.390328 -0.867340
H76   H     H_    0.246735 0.912734 0.439747 0.254069
H77   H     H_    0.296154 0.925645 0.389582 0.209809
H78   H     H_    0.212301 0.876692 0.305024 0.264476
O7    O     O_3   0.259017 0.252274 0.569570 -0.632527
C93   C     C_3   0.214814 0.306442 0.566546 0.292009
H79   H     H_    0.196997 0.285119 0.612946 0.107493
H80   H     H_    0.168600 0.319056 0.480831 0.083823
C94   C     C_3   0.255473 0.381365 0.620119 -0.892162
H81   H     H_    0.273711 0.404278 0.575080 0.259621
H82   H     H_    0.221510 0.424600 0.618758 0.210558
H83   H     H_    0.301418 0.371287 0.706426 0.257865
O8    O     O_3   0.750848 0.260585 0.440167 -0.632771
C95   C     C_3   0.797031 0.309681 0.439740 0.285080
H84   H     H_    0.809871 0.284300 0.388217 0.108830
H85   H     H_    0.846029 0.321034 0.524271 0.082692
C96   C     C_3   0.761611 0.386348 0.391057 -0.865781
H86   H     H_    0.748056 0.413307 0.440782 0.253375
H87   H     H_    0.797290 0.425739 0.390218 0.210262
H88   H     H_    0.713166 0.377347 0.305820 0.264832
O9    O     O_3   0.326645 0.690291 0.978767 -0.759607
H89   H     H_    0.360334 0.649827 0.995330 0.309146
O10   O     O_3   0.656705 0.731263 0.990733 -0.755837
H90   H     H_    0.605878 0.735218 0.931041 0.308825
O11   O     O_3   0.828190 0.193076 0.981849 -0.760464
H91   H     H_    0.861426 0.152219 0.997775 0.310080
O12   O     O_3   0.157475 0.227675 0.994098 -0.755627
H92   H     H_    0.106516 0.231072 0.935057 0.309082
O13   O     O_3   0.683740 0.345260 0.047346 -0.763051
H93   H     H_    0.652037 0.388668 0.028884 0.314848
O14   O     O_3   0.335101 0.273359 0.998675 -0.759144
H94   H     H_    0.358440 0.319350 0.996508 0.314754
O15   O     O_3   0.183456 0.843167 0.046346 -0.761610
H95   H     H_    0.152668 0.887233 0.029448 0.316003
O16   O     O_3   0.834835 0.773173 0.998629 -0.759569
H96   H     H_    0.858374 0.819081 0.996741 0.314551

loop_
_geom_bond_atom_site_label_1
_geom_bond_atom_site_label_2
_ccdc_geom_bond_type
C15   C75   A    
C23   O7    S    
C18   C28   S    
N5    N9    A    
C55   H23   S    
C28   H4    S    
C69   N17   A    
O1    C81   S    
N26   Ni1   S    
C33   O13   S    
O12   H92   S    
N8    N12   A    
N19   N31   A    
C72   H32   S    
C83   H54   S    
C93   H79   S    
C55   N11   A    
C57   C62   A    
C4    N4    A    
C84   H56   S    
N12   Ni3   S    
N7    N11   A    
N18   Ni2   S    
C12   C23   S    
N13   Ni6   S    
C96   H86   S    
C89   H70   S    
C60   C63   A    
C3    N3    A    
C14   C74   A    
N11   Ni4   S    
C78   H38   S    
C9    C69   A    
C46   C66   A    
C96   H88   S    
C77   H37   S    
N9    Ni2   S    
C56   N12   A    
C11   C71   A    
C9    C22   S    
C90   H73   S    
C87   C88   S    
C38   C52   S    
C81   H49   S    
C76   N24   A    
O14   H94   S    
C74   H34   S    
C22   O6    S    
C5    H41   S    
C11   C24   S    
C47   H19   S    
N31   Ni8   S    
C88   H67   S    
O13   H93   S    
N20   N32   A    
C14   C77   A    
C41   C49   D    
C86   H62   S    
N2    N13   A    
C43   O11   S    
C51   H11   S    
C69   H29   S    
C50   H10   S    
C20   C24   D    
N28   Ni3   S    
C53   H21   S    
C33   C62   S    
N22   N25   A    
C71   H31   S    
O10   H90   S    
N6    Ni6   S    
C35   C64   S    
C70   N18   A    
C2    O2    S    
N3    Ni3   S    
C30   H6    S    
C36   C63   S    
C53   C65   A    
O9    H89   S    
C16   C44   S    
C73   H33   S    
C29   H5    S    
N23   Ni7   S    
C60   H28   S    
C14   C42   S    
C77   N25   A    
N2    Ni2   S    
N4    N15   A    
C90   H72   S    
C87   H64   S    
C46   H18   S    
C1    N1    A    
C59   N15   A    
C26   H2    S    
C82   H51   S    
O11   H91   S    
C25   H1    S    
C26   C30   D    
C31   C68   S    
C40   H16   S    
C3    O3    S    
C47   C67   A    
C6    N30   A    
C44   C52   D    
C54   H22   S    
C80   N28   A    
N4    Ni4   S    
C82   H52   S    
C10   C21   S    
C25   C29   D    
C4    O4    S    
C48   H20   S    
C5    N29   A    
C35   O15   S    
C31   H7    S    
C89   H69   S    
N16   Ni7   S    
C27   C31   D    
C86   H63   S    
C17   C27   S    
C92   H76   S    
C21   O5    S    
C36   C40   D    
N21   Ni5   S    
C56   H24   S    
C70   H30   S    
C84   H57   S    
C75   N23   A    
C2    N2    A    
C19   C23   D    
C8    H44   S    
N1    N14   A    
N8    Ni8   S    
O7    C93   S    
C90   H71   S    
C89   C90   S    
C34   C61   S    
C33   C37   D    
C29   C66   S    
C79   H39   S    
C58   H26   S    
C34   C38   D    
C88   H68   S    
C7    C11   A    
N21   N26   A    
C17   H45   S    
C6    C10   A    
C94   H81   S    
N5    Ni5   S    
C46   N6    A    
N17   N29   A    
C42   O10   S    
C58   N14   A    
C93   H80   S    
C15   C80   A    
C45   H17   S    
N24   N27   A    
C28   C32   D    
N32   Ni7   S    
C8    C12   A    
C38   H14   S    
O6    C91   S    
C59   C64   A    
C37   H13   S    
C40   C50   S    
N23   N28   A    
C48   C68   A    
C39   H15   S    
C71   N19   A    
C42   C50   D    
C32   C67   S    
N18   N30   A    
C10   C70   A    
C39   C49   S    
C13   C73   A    
C91   H74   S    
C95   H85   S    
C45   C65   A    
C30   C65   S    
C53   N9    A    
C80   H40   S    
C52   H12   S    
C32   H8    S    
C75   H35   S    
N24   Ni8   S    
C85   H60   S    
C24   O8    S    
C8    N32   A    
C44   O12   S    
C87   H65   S    
C1    O1    S    
C93   C94   S    
C82   H53   S    
C86   H61   S    
C92   H78   S    
C13   C78   A    
N7    Ni7   S    
C84   H58   S    
C73   N21   A    
C34   O14   S    
C16   C76   A    
C45   N5    A    
C48   N8    A    
N20   Ni4   S    
C78   N26   A    
C95   H84   S    
C49   H9    S    
C20   C26   S    
C1    C61   A    
N29   Ni6   S    
N6    N10   A    
C83   H55   S    
O16   H96   S    
C59   H27   S    
C20   H48   S    
C13   C41   S    
C54   C66   A    
C3    C63   A    
N27   Ni4   S    
C94   H83   S    
C91   C92   S    
C4    C64   A    
C91   H75   S    
O5    C89   S    
C57   N13   A    
N25   Ni2   S    
N17   Ni1   S    
C16   C79   A    
C56   C68   A    
C85   C86   S    
C18   C22   D    
C92   H77   S    
C15   C43   S    
C55   C67   A    
C96   H87   S    
C72   N20   A    
C18   H46   S    
N14   Ni5   S    
C43   C51   D    
O3    C85   S    
C54   N10   A    
C41   O9    S    
C57   H25   S    
C58   C61   A    
C37   C51   S    
C35   C39   D    
N1    Ni1   S    
C19   H47   S    
C76   H36   S    
N10   Ni1   S    
C47   N7    A    
C12   C72   A    
C88   H66   S    
C19   C25   S    
C17   C21   D    
N15   Ni8   S    
C83   C84   S    
O2    C83   S    
C79   N27   A    
C27   H3    S    
C7    N31   A    
C95   C96   S    
C94   H82   S    
O4    C87   S    
C36   O16   S    
C6    H42   S    
C74   N22   A    
N19   Ni3   S    
C5    C9    A    
C81   H50   S    
C85   H59   S    
O15   H95   S    
C60   N16   A    
N3    N16   A    
C2    C62   A    
N30   Ni5   S    
C7    H43   S    
O8    C95   S    
C81   C82   S    
N22   Ni6   S    
