data_mof_unit_pretest_432.cif
_audit_creation_date              2013-03-05T15:40:07-0500
_audit_creation_method            fapswitch 2.2
_symmetry_space_group_name_H-M    P1
_symmetry_Int_Tables_number       1
_space_group_crystal_system       triclinic
_cell_length_a                    28.130059
_cell_length_b                    18.397837
_cell_length_c                    17.035164
_cell_angle_alpha                 89.363211
_cell_angle_beta                  60.937208
_cell_angle_gamma                 89.375543
_cell_volume                      7705.54567087

loop_
_atom_site_label
_atom_site_type_symbol
_atom_site_description
_atom_site_fract_x
_atom_site_fract_y
_atom_site_fract_z
_atom_type_partial_charge
O1    O     O_R   0.746490 0.236330 0.638080 -0.620556
O2    O     O_R   0.253510 0.763670 0.361920 -0.643005
O3    O     O_R   0.253510 0.236330 0.361920 -0.624800
O4    O     O_R   0.746490 0.763670 0.638080 -0.628482
O5    O     O_R   0.246490 0.736330 0.638080 -0.623707
O6    O     O_R   0.753510 0.263670 0.361920 -0.643365
O7    O     O_R   0.753510 0.736330 0.361920 -0.625958
O8    O     O_R   0.246490 0.263670 0.638080 -0.627253
O9    O     O_R   0.674170 0.186160 0.516270 -0.647386
O10   O     O_R   0.325830 0.813840 0.483730 -0.640224
O11   O     O_R   0.325830 0.186160 0.483730 -0.633112
O12   O     O_R   0.674170 0.813840 0.516270 -0.639346
O13   O     O_R   0.174170 0.686160 0.516270 -0.634945
O14   O     O_R   0.825830 0.313840 0.483730 -0.640563
O15   O     O_R   0.825830 0.686160 0.483730 -0.633909
O16   O     O_R   0.174170 0.313840 0.516270 -0.638293
O17   O     O_R   0.739960 0.127620 0.525000 -0.570273
O18   O     O_R   0.260040 0.872380 0.475000 -0.565750
O19   O     O_R   0.260040 0.127620 0.475000 -0.562851
O20   O     O_R   0.739960 0.872380 0.525000 -0.569497
O21   O     O_R   0.239960 0.627620 0.525000 -0.571674
O22   O     O_R   0.760040 0.372380 0.475000 -0.548543
O23   O     O_R   0.760040 0.627620 0.475000 -0.555955
O24   O     O_R   0.239960 0.372380 0.525000 -0.569594
O25   O     O_R   0.680700 0.294870 0.629350 -0.565427
O26   O     O_R   0.319300 0.705130 0.370650 -0.581320
O27   O     O_R   0.319300 0.294870 0.370650 -0.577199
O28   O     O_R   0.680700 0.705130 0.629350 -0.563384
O29   O     O_R   0.180700 0.794870 0.629350 -0.563231
O30   O     O_R   0.819300 0.205130 0.370650 -0.583184
O31   O     O_R   0.819300 0.794870 0.370650 -0.577796
O32   O     O_R   0.180700 0.205130 0.629350 -0.570880
C1    C     C_R   0.703064 0.271091 0.675113 0.962651
C2    C     C_R   0.299042 0.733014 0.323473 0.904624
C3    C     C_R   0.299143 0.266786 0.323714 0.914735
C4    C     C_R   0.700813 0.733295 0.676310 0.932514
C5    C     C_R   0.200874 0.766800 0.676536 0.954637
C6    C     C_R   0.798512 0.232017 0.323686 0.905235
C7    C     C_R   0.799127 0.766816 0.323718 0.912491
C8    C     C_R   0.200824 0.233271 0.676309 0.927981
C9    C     C_R   0.695571 0.127650 0.520626 0.929002
C10   C     C_R   0.309150 0.870321 0.462162 0.921555
C11   C     C_R   0.309490 0.129909 0.461292 0.907417
C12   C     C_R   0.690974 0.870573 0.534760 0.914234
C13   C     C_R   0.195445 0.627658 0.521007 0.939676
C14   C     C_R   0.809149 0.370300 0.462135 0.937100
C15   C     C_R   0.809425 0.629872 0.461455 0.913043
C16   C     C_R   0.190947 0.370538 0.534906 0.915696
Zn1   Zn    Zn3+2 0.792340 0.208750 0.507670 1.120054
Zn2   Zn    Zn3+2 0.207660 0.791250 0.492330 1.130425
Zn3   Zn    Zn3+2 0.207660 0.208750 0.492330 1.125275
Zn4   Zn    Zn3+2 0.792340 0.791250 0.507670 1.111163
Zn5   Zn    Zn3+2 0.292340 0.708750 0.507670 1.119342
Zn6   Zn    Zn3+2 0.707660 0.291250 0.492330 1.132939
Zn7   Zn    Zn3+2 0.707660 0.708750 0.492330 1.137837
Zn8   Zn    Zn3+2 0.292340 0.291250 0.507670 1.109371
C17   C     C_R   0.557497 0.997628 0.474188 -0.032932
C18   C     C_R   0.468008 0.998384 0.442790 -0.042256
C19   C     C_R   0.056668 0.497687 0.476417 -0.032792
C20   C     C_R   0.967396 0.498479 0.444501 -0.040461
C21   C     C_R   0.543273 0.062934 0.444052 0.008086
C22   C     C_R   0.487875 0.932150 0.458407 0.004842
C23   C     C_R   0.498009 0.063000 0.427565 -0.013906
C24   C     C_R   0.527193 0.933407 0.487370 -0.005478
C25   C     C_R   0.041937 0.563209 0.447602 0.005158
C26   C     C_R   0.987415 0.432162 0.459725 0.004977
C27   C     C_R   0.996920 0.563369 0.430674 -0.011972
C28   C     C_R   0.026678 0.433327 0.488848 -0.006021
C29   C     C_R   0.611970 0.934953 0.532417 -0.034795
C30   C     C_R   0.397126 0.064734 0.427178 -0.032716
C31   C     C_R   0.395141 0.932896 0.435082 -0.029938
C32   C     C_R   0.631302 0.060275 0.483715 -0.033593
C33   C     C_R   0.111665 0.434856 0.533446 -0.033598
C34   C     C_R   0.896745 0.564704 0.428184 -0.033662
C35   C     C_R   0.895004 0.432908 0.435476 -0.029226
C36   C     C_R   0.130556 0.560430 0.485484 -0.030323
C37   C     C_R   0.657048 0.935200 0.548890 -0.161715
C38   C     C_R   0.344933 0.065027 0.433159 -0.176896
C39   C     C_R   0.344249 0.934422 0.435789 -0.176874
C40   C     C_R   0.668026 0.061928 0.520047 -0.183926
C41   C     C_R   0.156936 0.435132 0.549422 -0.163357
C42   C     C_R   0.844761 0.564962 0.433546 -0.177019
C43   C     C_R   0.844208 0.434394 0.435861 -0.178005
C44   C     C_R   0.167716 0.561962 0.520918 -0.182837
C45   C     C_R   0.676750 0.000136 0.559185 0.307012
C46   C     C_R   0.323753 0.000029 0.422699 0.322471
C47   C     C_R   0.176695 0.500089 0.559631 0.309293
C48   C     C_R   0.823686 0.499989 0.422812 0.331850
C49   C     C_R   0.600082 0.997698 0.496954 0.070309
C50   C     C_R   0.419757 0.998672 0.435803 0.071254
C51   C     C_R   0.099441 0.497728 0.498703 0.071286
C52   C     C_R   0.919405 0.498690 0.436781 0.073436
C53   C     C_R   0.075941 0.375852 0.558027 -0.143420
C54   C     C_R   0.930620 0.625851 0.399995 -0.158561
C55   C     C_R   0.925720 0.368690 0.423109 -0.145396
C56   C     C_R   0.119429 0.621000 0.445231 -0.152796
C57   C     C_R   0.576097 0.876136 0.557279 -0.144771
C58   C     C_R   0.431347 0.125602 0.397786 -0.160282
C59   C     C_R   0.425788 0.868611 0.422781 -0.147442
C60   C     C_R   0.620847 0.120599 0.442312 -0.150736
C61   C     C_R   0.032917 0.375700 0.539239 0.424473
C62   C     C_R   0.982525 0.622529 0.391809 0.442619
C63   C     C_R   0.971304 0.367817 0.435059 0.428692
C64   C     C_R   0.070689 0.626608 0.443968 0.425734
C65   C     C_R   0.533141 0.876031 0.538368 0.424197
C66   C     C_R   0.483752 0.121621 0.387830 0.445527
C67   C     C_R   0.471495 0.867723 0.434384 0.429247
C68   C     C_R   0.572677 0.126202 0.438966 0.424488
H1    H     H_    0.078455 0.331977 0.598769 0.219221
H2    H     H_    0.920282 0.672551 0.371903 0.217736
H3    H     H_    0.917433 0.319761 0.397519 0.219802
H4    H     H_    0.144762 0.668295 0.421167 0.203420
H5    H     H_    0.578414 0.832439 0.598418 0.218591
H6    H     H_    0.420912 0.172141 0.369578 0.217955
H7    H     H_    0.417358 0.819616 0.397508 0.220867
H8    H     H_    0.646502 0.167641 0.418529 0.204504
C69   C     C_R   0.714716 0.251602 0.957888 -0.239954
C70   C     C_R   0.277950 0.735171 0.048657 -0.237161
C71   C     C_R   0.277905 0.266774 0.048436 -0.227154
C72   C     C_R   0.721360 0.734340 0.952324 -0.226914
C73   C     C_R   0.221816 0.763598 0.951260 -0.239470
C74   C     C_R   0.772271 0.223610 0.053500 -0.231803
C75   C     C_R   0.777715 0.767122 0.048601 -0.226357
C76   C     C_R   0.221527 0.234017 0.952184 -0.227444
C77   C     C_R   0.762087 0.291069 0.937990 0.322823
C78   C     C_R   0.233773 0.691334 0.062020 0.319054
C79   C     C_R   0.273993 0.194286 0.025627 0.311938
C80   C     C_R   0.725029 0.806800 0.975513 0.315580
C81   C     C_R   0.266025 0.807322 0.937831 0.318281
C82   C     C_R   0.725116 0.183670 0.073270 0.329935
C83   C     C_R   0.773977 0.694665 0.025514 0.315215
C84   C     C_R   0.225382 0.306499 0.975082 0.313779
C85   C     C_R   0.791109 0.276776 0.984662 0.204463
C86   C     C_R   0.205861 0.705056 0.013163 0.214275
C87   C     C_R   0.246018 0.177758 0.977897 0.194904
C88   C     C_R   0.752981 0.823348 0.023301 0.197969
C89   C     C_R   0.294416 0.792984 0.985684 0.212051
C90   C     C_R   0.696513 0.197015 0.025249 0.213949
C91   C     C_R   0.746011 0.678123 0.977780 0.194424
C92   C     C_R   0.253345 0.323028 0.022846 0.194977
C93   C     C_R   0.640368 0.319840 0.948306 -0.114618
C94   C     C_R   0.356228 0.674535 0.054233 -0.155479
C95   C     C_R   0.355840 0.327880 0.054954 -0.169933
C96   C     C_R   0.643661 0.672912 0.945489 -0.151922
C97   C     C_R   0.143598 0.824878 0.945895 -0.152278
C98   C     C_R   0.852246 0.167152 0.057784 -0.156396
C99   C     C_R   0.855686 0.828153 0.055077 -0.158773
C100  C     C_R   0.143734 0.172769 0.945444 -0.151360
H9    H     H_    0.623074 0.333097 0.018808 0.202056
H10   H     H_    0.367837 0.651927 0.988829 0.193755
H11   H     H_    0.367323 0.351648 0.989715 0.188140
H12   H     H_    0.632095 0.649300 0.010836 0.193759
H13   H     H_    0.132050 0.847455 0.011288 0.195871
H14   H     H_    0.863624 0.143542 0.992957 0.193650
H15   H     H_    0.867144 0.851973 0.989872 0.191331
H16   H     H_    0.132162 0.149150 0.010790 0.193710
C101  C     C_R   0.621655 0.354901 0.894236 -0.177839
C102  C     C_R   0.386528 0.658584 0.098471 -0.170398
C103  C     C_R   0.386159 0.342511 0.099365 -0.172322
C104  C     C_R   0.613607 0.657788 0.900779 -0.168222
C105  C     C_R   0.113393 0.841222 0.901563 -0.171836
C106  C     C_R   0.884407 0.155511 0.099767 -0.167090
C107  C     C_R   0.886074 0.842635 0.099411 -0.169010
C108  C     C_R   0.113626 0.157766 0.900791 -0.172069
C109  C     C_R   0.648939 0.347140 0.802498 0.321414
C110  C     C_R   0.373707 0.691643 0.179274 0.336493
C111  C     C_R   0.373785 0.307994 0.179647 0.330764
C112  C     C_R   0.626076 0.692073 0.820321 0.339969
C113  C     C_R   0.126178 0.808257 0.820710 0.335417
C114  C     C_R   0.872031 0.190078 0.179329 0.335199
C115  C     C_R   0.873725 0.808058 0.179645 0.330635
C116  C     C_R   0.126092 0.192093 0.820359 0.331365
C117  C     C_R   0.683179 0.288223 0.767958 -0.161881
C118  C     C_R   0.322633 0.723054 0.227226 -0.153295
C119  C     C_R   0.323117 0.276326 0.227172 -0.158044
C120  C     C_R   0.676672 0.723986 0.772952 -0.156295
C121  C     C_R   0.177151 0.776545 0.772837 -0.166000
C122  C     C_R   0.820460 0.219529 0.228389 -0.151637
C123  C     C_R   0.823046 0.776438 0.227202 -0.157616
C124  C     C_R   0.176724 0.223902 0.772935 -0.157057
C125  C     C_R   0.702871 0.251282 0.820182 -0.146381
C126  C     C_R   0.291252 0.738819 0.184342 -0.127451
C127  C     C_R   0.292216 0.260762 0.183783 -0.116870
C128  C     C_R   0.707323 0.740034 0.816650 -0.121919
C129  C     C_R   0.208372 0.760322 0.815837 -0.113114
C130  C     C_R   0.787130 0.230995 0.187897 -0.131557
C131  C     C_R   0.792083 0.761001 0.183884 -0.118232
C132  C     C_R   0.207445 0.239791 0.816556 -0.122328
H17   H     H_    0.734869 0.210759 0.790232 0.196621
H18   H     H_    0.252300 0.766373 0.219793 0.195608
H19   H     H_    0.253668 0.232803 0.219148 0.198880
H20   H     H_    0.745809 0.768147 0.781400 0.195113
H21   H     H_    0.247217 0.732499 0.780460 0.197057
H22   H     H_    0.747753 0.257361 0.224170 0.197346
H23   H     H_    0.753530 0.733056 0.219262 0.199022
H24   H     H_    0.245966 0.267819 0.781264 0.194445
C133  C     C_R   0.683943 0.271063 0.909757 0.199183
C134  C     C_R   0.309488 0.717488 0.095766 0.204512
C135  C     C_R   0.309776 0.283849 0.095460 0.204790
C136  C     C_R   0.689611 0.717159 0.905119 0.203048
C137  C     C_R   0.190176 0.781553 0.904403 0.200459
C138  C     C_R   0.804243 0.207424 0.100462 0.203698
C139  C     C_R   0.809597 0.784177 0.095608 0.202185
C140  C     C_R   0.189748 0.216895 0.905012 0.203142
O33   O     O_R   0.062020 0.072840 0.007170 -0.618933
O34   O     O_R   0.937980 0.927160 0.992830 -0.622304
O35   O     O_R   0.937980 0.072840 0.992830 -0.620417
O36   O     O_R   0.062020 0.927160 0.007170 -0.616918
O37   O     O_R   0.562020 0.572840 0.007170 -0.623626
O38   O     O_R   0.437980 0.427160 0.992830 -0.631179
O39   O     O_R   0.437980 0.572840 0.992830 -0.619567
O40   O     O_R   0.562020 0.427160 0.007170 -0.617663
O41   O     O_R   0.947860 0.073950 0.109290 -0.570571
O42   O     O_R   0.052140 0.926050 0.890710 -0.570282
O43   O     O_R   0.052140 0.073950 0.890710 -0.567766
O44   O     O_R   0.947860 0.926050 0.109290 -0.568778
O45   O     O_R   0.447860 0.573950 0.109290 -0.569594
O46   O     O_R   0.552140 0.426050 0.890710 -0.573973
O47   O     O_R   0.552140 0.573950 0.890710 -0.552794
O48   O     O_R   0.447860 0.426050 0.109290 -0.563658
C141  C     C_R   0.072722 0.101560 0.934974 0.952780
C142  C     C_R   0.927177 0.898553 0.065107 0.947999
C143  C     C_R   0.926998 0.101370 0.064716 0.948882
C144  C     C_R   0.072487 0.897974 0.935654 0.947618
C145  C     C_R   0.572733 0.601549 0.934958 0.959322
C146  C     C_R   0.427216 0.398509 0.065077 0.945442
C147  C     C_R   0.427536 0.602027 0.064325 0.945163
C148  C     C_R   0.576261 0.403489 0.932220 0.960349
Zn9   Zn    Zn3+2 0.505960 0.500000 0.080520 1.132622
Zn10  Zn    Zn3+2 0.494040 0.500000 0.919480 1.122323
Zn11  Zn    Zn3+2 0.005960 0.000000 0.080520 1.128559
Zn12  Zn    Zn3+2 0.994040 1.000000 0.919480 1.124385
Cl1   Cl    Cl    0.707743 0.002547 0.628733 -0.507437
Cl2   Cl    Cl    0.277540 0.000815 0.379349 -0.493051
Cl3   Cl    Cl    0.208049 0.502462 0.628640 -0.489592
Cl4   Cl    Cl    0.777508 0.500803 0.379389 -0.485550
Cl5   Cl    Cl    0.981275 0.311304 0.599149 -0.448890
Cl6   Cl    Cl    0.031743 0.678266 0.306597 -0.417764
Cl7   Cl    Cl    0.014013 0.290325 0.396585 -0.491378
Cl8   Cl    Cl    0.040187 0.713845 0.471705 -0.497309
Cl9   Cl    Cl    0.481246 0.812064 0.598777 -0.462257
Cl10  Cl    Cl    0.533624 0.173485 0.298206 -0.408170
Cl11  Cl    Cl    0.513994 0.790012 0.396303 -0.489277
Cl12  Cl    Cl    0.544020 0.214602 0.460233 -0.514169
N1    N     N_R   0.649863 0.153990 0.043754 0.265140
O49   O     O_R   0.603575 0.184948 0.063793 -0.313757
O50   O     O_R   0.653633 0.083397 0.040079 -0.218453
N2    N     N_R   0.340004 0.837207 0.970229 0.263550
O51   O     O_R   0.342668 0.866101 0.037342 -0.299572
O52   O     O_R   0.379753 0.847235 0.889065 -0.251891
N3    N     N_R   0.255537 0.396937 0.047342 0.255483
O53   O     O_R   0.241287 0.413075 0.130083 -0.330633
O54   O     O_R   0.273210 0.448092 0.986583 -0.285317
N4    N     N_R   0.743842 0.604206 0.953290 0.252885
O55   O     O_R   0.726077 0.553091 0.014098 -0.280015
O56   O     O_R   0.758121 0.588036 0.870547 -0.325124
N5    N     N_R   0.161842 0.658890 0.025373 0.265904
O57   O     O_R   0.122200 0.645078 0.105485 -0.228711
O58   O     O_R   0.160943 0.630920 0.956295 -0.298310
N6    N     N_R   0.839500 0.317140 0.962743 0.260847
O59   O     O_R   0.844617 0.350368 0.025237 -0.296684
O60   O     O_R   0.879198 0.319379 0.880447 -0.250881
N7    N     N_R   0.754975 0.897220 0.048133 0.255165
O61   O     O_R   0.740795 0.913124 0.130911 -0.332775
O62   O     O_R   0.772327 0.948604 0.987669 -0.291428
N8    N     N_R   0.243711 0.103816 0.953625 0.253881
O63   O     O_R   0.225867 0.052807 0.014570 -0.280409
O64   O     O_R   0.257976 0.087516 0.870924 -0.332146
Cl13  Cl    Cl    0.783612 0.362402 0.857598 -0.408735
Cl14  Cl    Cl    0.215623 0.615957 0.136214 -0.438617
Cl15  Cl    Cl    0.308200 0.124037 0.050405 -0.416788
Cl16  Cl    Cl    0.690518 0.876905 0.951185 -0.412069
Cl17  Cl    Cl    0.284047 0.883044 0.864223 -0.417295
Cl18  Cl    Cl    0.701107 0.117431 0.159870 -0.453387
Cl19  Cl    Cl    0.808375 0.624486 0.049981 -0.412677
Cl20  Cl    Cl    0.191097 0.376703 0.950412 -0.406425
Cl21  Cl    Cl    0.648454 0.418801 0.731062 -0.516916
Cl22  Cl    Cl    0.422063 0.696713 0.217866 -0.524946
Cl23  Cl    Cl    0.422184 0.301556 0.218256 -0.514107
Cl24  Cl    Cl    0.577859 0.697904 0.781291 -0.507671
Cl25  Cl    Cl    0.077900 0.803672 0.781925 -0.502699
Cl26  Cl    Cl    0.921510 0.199319 0.215011 -0.524570
Cl27  Cl    Cl    0.922161 0.801499 0.218164 -0.517383
Cl28  Cl    Cl    0.077838 0.198085 0.781422 -0.508694

loop_
_geom_bond_atom_site_label_1
_geom_bond_atom_site_label_2
_geom_bond_distance
_ccdc_geom_bond_type
C18   C22   1.410829 A    
C26   C28   1.414046 A    
O4    C4    1.257770 A    
N1    O50   1.301660 A    
O35   C143  1.230355 A    
C6    C122  1.449434 S    
O39   Zn10  1.980099 S    
O5    C5    1.251311 A    
O10   C10   1.258304 A    
C94   C134  1.392752 A    
C34   C54   1.403921 A    
C29   C37   1.425678 A    
C69   C90   1.415014 A    
C126  C134  1.396686 A    
O16   Zn3   2.096792 S    
O15   C15   1.272261 A    
O31   Zn4   2.075023 S    
C125  C133  1.401130 A    
O16   C16   1.255094 A    
C9    C40   1.445914 S    
C31   C39   1.425760 A    
O1    C1    1.241949 A    
N7    O61   1.301288 A    
O22   Zn6   2.025254 S    
C107  C142  1.446690 S    
O47   C145  1.265187 A    
C104  C145  1.446973 S    
C11   C38   1.473480 S    
C98   C106  1.413076 A    
O30   C6    1.290784 A    
N4    O55   1.301089 A    
C17   C49   1.427184 A    
O48   Zn9   2.004442 S    
C76   C140  1.501264 S    
C130  H22   1.083525 S    
C71   C135  1.501213 S    
C71   C92   1.416130 A    
O5    Zn5   2.020726 S    
C12   C37   1.463186 S    
C114  Cl26  1.779051 S    
C79   C87   1.416052 A    
C131  H23   1.083487 S    
C53   H1    1.082727 S    
C80   C88   1.416434 A    
C71   C79   1.413456 A    
C59   H7    1.080072 S    
C72   C80   1.413580 A    
C29   C49   1.407735 A    
O35   Zn12  1.980099 S    
C15   C42   1.472355 S    
O14   Zn1   2.107342 S    
C123  C131  1.420687 A    
C96   C104  1.416929 A    
C34   C52   1.404527 A    
C84   Cl20  1.769055 S    
C105  C144  1.445527 S    
C131  C139  1.398744 A    
N8    O64   1.301258 A    
O44   Zn11  2.004442 S    
C121  C129  1.418247 A    
C16   C41   1.463091 S    
C76   C84   1.413511 A    
C120  C128  1.420799 A    
N5    O57   1.300191 A    
C55   H3    1.080159 S    
C103  C146  1.446926 S    
C129  C137  1.396190 A    
C106  C114  1.385106 A    
O10   Zn5   2.107342 S    
C21   C68   1.412678 A    
O46   Zn10  1.987586 S    
C132  H24   1.083461 S    
C22   C24   1.413595 A    
C124  C132  1.420797 A    
C130  C138  1.396973 A    
O45   Zn9   1.987584 S    
C8    C124  1.452890 S    
C81   Cl17  1.768924 S    
C108  C141  1.447038 S    
O26   C2    1.289639 A    
C85   N6    1.437318 S    
C84   C92   1.416256 A    
C61   Cl5   1.767975 S    
C20   C27   1.412734 A    
C55   C63   1.392491 A    
C118  C126  1.418892 A    
C25   C27   1.428780 A    
C98   H14   1.083945 S    
C3    C119  1.452219 S    
C87   N8    1.437451 S    
N4    O56   1.301276 A    
C30   C58   1.405052 A    
C44   C47   1.390460 A    
C69   C133  1.492010 S    
O11   C11   1.272111 A    
C82   C90   1.416878 A    
O7    Zn7   2.015379 S    
C73   C86   1.413860 A    
C82   Cl18  1.768501 S    
C70   C89   1.413969 A    
C1    C117  1.435791 S    
C27   C62   1.421920 A    
O41   Zn11  1.987584 S    
C57   C65   1.393622 A    
C116  C124  1.383276 A    
C95   H11   1.083601 S    
C43   C48   1.393759 A    
C97   C137  1.393455 A    
O42   Zn12  1.987586 S    
C10   C39   1.466322 S    
C79   Cl15  1.769132 S    
N1    O49   1.301031 A    
C88   N7    1.437599 S    
O8    Zn8   2.015379 S    
C80   Cl16  1.769027 S    
C67   Cl11  1.767477 S    
C30   C50   1.405022 A    
C92   N3    1.437469 S    
O37   C145  1.229594 A    
C59   C67   1.392429 A    
C66   Cl10  1.767903 S    
C115  Cl27  1.779003 S    
O43   C141  1.265268 A    
C33   C41   1.425751 A    
O20   C12   1.306086 A    
O28   Zn7   2.075023 S    
O19   C11   1.294889 A    
C126  H18   1.083566 S    
O21   C13   1.286617 A    
O29   Zn2   2.076157 S    
C20   C52   1.418484 A    
C108  C116  1.384922 A    
C48   Cl4   1.779763 S    
C36   C44   1.439412 A    
C60   C68   1.386298 A    
C62   Cl6   1.766583 S    
N2    O52   1.301081 A    
C35   C55   1.411824 A    
O43   Zn12  2.004441 S    
C100  C108  1.416965 A    
N3    O53   1.301284 A    
C91   N4    1.437447 S    
O23   C15   1.294010 A    
O25   Zn6   2.076157 S    
C33   C51   1.407238 A    
O14   C14   1.258198 A    
O3    C3    1.257464 A    
C96   H12   1.083623 S    
C101  C109  1.374399 A    
C125  H17   1.083483 S    
C83   C91   1.415960 A    
O3    Zn3   2.015379 S    
O27   Zn8   2.075023 S    
C19   C51   1.426754 A    
C107  C115  1.384791 A    
O36   Zn11  1.980101 S    
C128  C136  1.399144 A    
C47   Cl3   1.780769 S    
O34   Zn12  1.984562 S    
C54   H2    1.082774 S    
C112  Cl24  1.778929 S    
C127  C135  1.398769 A    
C81   C89   1.412461 A    
C98   C138  1.391862 A    
C65   Cl9   1.768058 S    
C77   Cl13  1.770935 S    
C30   C38   1.421443 A    
N5    O58   1.301094 A    
O24   C16   1.305917 A    
C74   C85   1.412372 A    
C83   Cl19  1.769093 S    
C40   C45   1.390385 A    
C2    C118  1.452286 S    
C122  C130  1.421311 A    
O40   Zn9   1.980101 S    
C19   C28   1.414648 A    
O21   Zn5   2.025254 S    
C56   H4    1.074591 S    
C100  H16   1.083621 S    
O46   C148  1.259431 A    
C96   C136  1.397593 A    
C129  H21   1.083561 S    
C68   Cl12  1.768331 S    
N6    O60   1.301104 A    
C128  H20   1.083457 S    
O38   Zn10  1.984562 S    
O48   C146  1.265337 A    
C72   C91   1.416020 A    
O37   Zn9   1.984561 S    
O15   Zn4   2.096792 S    
C28   C61   1.419096 A    
C23   C66   1.421353 A    
C95   C103  1.417255 A    
C18   C50   1.418889 A    
O28   C4    1.297651 A    
C41   C47   1.371263 A    
C14   C43   1.465679 S    
O42   C144  1.261387 A    
C35   C52   1.403532 A    
O45   C147  1.261211 A    
C24   C65   1.419137 A    
O18   Zn2   2.025254 S    
C57   H5    1.082771 S    
C93   C101  1.411398 A    
O22   C14   1.289498 A    
O30   Zn1   2.076157 S    
O4    Zn4   2.015379 S    
O6    Zn6   2.020726 S    
C113  C121  1.384825 A    
O2    Zn2   2.020726 S    
O29   C5    1.289349 A    
C45   Cl1   1.780805 S    
O33   Zn11  1.984561 S    
C4    C120  1.452909 S    
O36   C144  1.233630 A    
O47   Zn10  2.004441 S    
O17   Zn1   2.025254 S    
C70   C134  1.488800 S    
O26   Zn5   2.076157 S    
C111  Cl23  1.779024 S    
C35   C43   1.425701 A    
O33   C141  1.229521 A    
C99   H15   1.083613 S    
N2    O51   1.301109 A    
C100  C140  1.397553 A    
C17   C24   1.415335 A    
C111  C119  1.383067 A    
C34   C42   1.420127 A    
O32   Zn3   2.075023 S    
C77   C85   1.410337 A    
C13   C44   1.446042 S    
C112  C120  1.383281 A    
C56   C64   1.384370 A    
C73   C81   1.409735 A    
O40   C148  1.221462 A    
O7    C7    1.257360 A    
C76   C87   1.416125 A    
C75   C83   1.413391 A    
O2    C2    1.251021 A    
C119  C127  1.420658 A    
C26   C63   1.411071 A    
C78   Cl14  1.769402 S    
C21   C23   1.430919 A    
C18   C23   1.412470 A    
C104  C112  1.384924 A    
C109  Cl21  1.788679 S    
N6    O59   1.301176 A    
C127  H19   1.083488 S    
C89   N2    1.437289 S    
C7    C123  1.452133 S    
C93   C133  1.395029 A    
C17   C21   1.429192 A    
C22   C67   1.410885 A    
C70   C78   1.410516 A    
O24   Zn8   2.006331 S    
C58   H6    1.082865 S    
C95   C135  1.397559 A    
C93   H9    1.083922 S    
C110  C118  1.384779 A    
O9    C9    1.246673 A    
C53   C61   1.394131 A    
C58   C66   1.400810 A    
C75   C139  1.501143 S    
C75   C88   1.416200 A    
O20   Zn4   2.006331 S    
C132  C140  1.399137 A    
O27   C3    1.297626 A    
C60   H8    1.075071 S    
C115  C123  1.382967 A    
O18   C10   1.289666 A    
O38   C146  1.229341 A    
C20   C26   1.411693 A    
C105  C113  1.388088 A    
C32   C40   1.439933 A    
C90   N1    1.436389 S    
N7    O62   1.301098 A    
C36   C56   1.412055 A    
O13   C13   1.246620 A    
C32   C49   1.404088 A    
C73   C137  1.488730 S    
C94   H10   1.083902 S    
C31   C50   1.403884 A    
C97   C105  1.412627 A    
C32   C60   1.411624 A    
C37   C45   1.370655 A    
C86   N5    1.437606 S    
C42   C48   1.392645 A    
C33   C53   1.403021 A    
O23   Zn7   2.006331 S    
C99   C139  1.397463 A    
C109  C117  1.374655 A    
C72   C136  1.501246 S    
C97   H13   1.083874 S    
C103  C111  1.384866 A    
C94   C102  1.412168 A    
C113  Cl25  1.778609 S    
O32   C8    1.297686 A    
C99   C107  1.417306 A    
C31   C59   1.412001 A    
C46   Cl2   1.779769 S    
O17   C9    1.286495 A    
O44   C142  1.265393 A    
N3    O54   1.301090 A    
N8    O63   1.301095 A    
C36   C51   1.404378 A    
C117  C125  1.420342 A    
O13   Zn2   2.107342 S    
C116  Cl28  1.778886 S    
C102  C110  1.387880 A    
O19   Zn3   2.006331 S    
C74   C138  1.491806 S    
O12   Zn7   2.096792 S    
C110  Cl22  1.778825 S    
C106  C143  1.440952 S    
C78   C86   1.413780 A    
C63   Cl7   1.767468 S    
C38   C46   1.392888 A    
O6    C6    1.247872 A    
C5    C121  1.452264 S    
O31   C7    1.297670 A    
O34   C142  1.229185 A    
C64   Cl8   1.768696 S    
O12   C12   1.254915 A    
O39   C147  1.233478 A    
O9    Zn6   2.107342 S    
O8    C8    1.257716 A    
C25   C64   1.410247 A    
C101  C148  1.426047 S    
C69   C77   1.412305 A    
O1    Zn1   2.020726 S    
C102  C147  1.444695 S    
C74   C82   1.412324 A    
C39   C46   1.393832 A    
C19   C25   1.428074 A    
O11   Zn8   2.096792 S    
O41   C143  1.262296 A    
C54   C62   1.398380 A    
O25   C1    1.287574 A    
C114  C122  1.382607 A    
C29   C57   1.402508 A    
