data_mof_unit_pretest_434.cif
_audit_creation_date              2013-03-05T15:46:58-0500
_audit_creation_method            fapswitch 2.2
_symmetry_space_group_name_H-M    P1
_symmetry_Int_Tables_number       1
_space_group_crystal_system       triclinic
_cell_length_a                    10.220406
_cell_length_b                    10.610474
_cell_length_c                    14.89499
_cell_angle_alpha                 91.508843
_cell_angle_beta                  82.277862
_cell_angle_gamma                 95.275445
_cell_volume                      1593.67460971

loop_
_atom_site_label
_atom_site_type_symbol
_atom_site_description
_atom_site_fract_x
_atom_site_fract_y
_atom_site_fract_z
_atom_type_partial_charge
O1    O     O_R   0.431060 0.692470 0.507460 -0.528124
O2    O     O_R   0.568940 0.307530 0.492540 -0.541513
O3    O     O_R   0.651120 0.659650 0.483670 -0.642918
O4    O     O_R   0.348880 0.340350 0.516330 -0.660826
C1    C     C_R   0.554609 0.733951 0.497945 0.877457
C2    C     C_R   0.445186 0.266404 0.510158 0.950603
O5    O     O_R   0.389960 0.516440 0.644050 -0.605067
O6    O     O_R   0.610040 0.483560 0.355950 -0.581787
O7    O     O_R   0.610030 0.483620 0.620260 -0.600783
O8    O     O_R   0.389970 0.516380 0.379740 -0.622046
C3    C     C_R   0.502451 0.505548 0.672759 0.988683
C4    C     C_R   0.498667 0.496543 0.327116 0.924973
Zn1   Zn    Zn3+2 0.353060 0.521920 0.515880 1.049619
Zn2   Zn    Zn3+2 0.646940 0.478080 0.484120 1.056487
C5    C     C_R   0.431266 0.384187 0.189722 -0.005399
C6    C     C_R   0.590825 0.594536 0.810431 -0.063730
C7    C     C_R   0.500121 0.486394 0.230645 -0.107991
C8    C     C_R   0.506675 0.505650 0.768581 -0.088402
C9    C     C_R   0.590105 0.571071 0.180052 -0.164895
C10   C     C_R   0.433749 0.406282 0.816173 -0.118113
C11   C     C_R   0.608807 0.562349 0.086535 0.034654
C12   C     C_R   0.445111 0.389231 0.906664 0.021778
C13   C     C_R   0.530239 0.469330 0.043241 0.021804
C14   C     C_R   0.531270 0.475275 0.949535 0.026448
C15   C     C_R   0.447934 0.373305 0.093887 0.020912
C16   C     C_R   0.613942 0.571147 0.899438 0.019870
C17   C     C_R   0.705669 0.644278 0.035732 0.248847
C18   C     C_R   0.375533 0.285279 0.953905 0.248445
C19   C     C_R   0.715073 0.641687 0.941016 -0.179832
C20   C     C_R   0.385520 0.271631 0.046076 -0.167964
H1    H     H_    0.644937 0.644974 0.215048 0.187763
H2    H     H_    0.368318 0.341936 0.781227 0.202246
C21   C     C_2   0.580620 0.870655 0.505444 -0.287920
C22   C     C_2   0.417864 0.130746 0.524486 -0.352156
C23   C     C_2   0.499642 0.934084 0.568173 0.325377
C24   C     C_2   0.503056 0.071127 0.568631 0.285632
N1    N     N_2   0.842700 0.448880 0.462930 -0.208746
N2    N     N_2   0.157300 0.551120 0.537070 -0.200846
C25   C     C_2   0.931760 0.526306 0.495713 -0.032302
C26   C     C_2   0.075874 0.503511 0.482128 0.016603
H3    H     H_    0.118916 0.599753 0.593809 0.237204
H4    H     H_    0.872373 0.366689 0.431583 0.226874
C27   C     C_2   0.338551 0.294715 0.247234 0.461745
H5    H     H_    0.239019 0.270068 0.230876 0.095059
O9    O     O_2   0.374933 0.243492 0.310766 -0.596314
C28   C     C_2   0.632984 0.721571 0.769931 0.531099
H6    H     H_    0.658669 0.801569 0.812991 0.111312
O10   O     O_2   0.636778 0.740321 0.689337 -0.598497
N3    N     N_R   0.798502 0.725471 0.079935 0.180063
O11   O     O_R   0.800795 0.847790 0.074031 -0.350292
O12   O     O_R   0.880328 0.677210 0.126403 -0.338516
N4    N     N_R   0.301374 0.189116 0.907133 0.183914
O13   O     O_R   0.362164 0.118220 0.845464 -0.287394
O14   O     O_R   0.173469 0.170068 0.928065 -0.352487
C29   C     C_2   0.839601 0.698104 0.887586 0.463263
H7    H     H_    0.898060 0.777083 0.914499 0.155362
O15   O     O_2   0.881607 0.652689 0.814309 -0.544228
C30   C     C_2   0.346818 0.144248 0.085439 0.468297
H8    H     H_    0.255682 0.090827 0.072048 0.135290
O16   O     O_2   0.420701 0.095010 0.129234 -0.487229
N5    N     N_R   0.595668 0.138997 0.621534 0.249899
O17   O     O_R   0.556876 0.229277 0.676405 -0.390560
O18   O     O_R   0.706259 0.092117 0.630933 -0.300953
N6    N     N_R   0.411589 0.871234 0.640403 0.223108
O19   O     O_R   0.431285 0.898262 0.723456 -0.303384
O20   O     O_R   0.293024 0.826949 0.626261 -0.298656
C31   C     C_2   0.307072 0.065671 0.480239 0.539399
H9    H     H_    0.232727 0.121247 0.459332 0.094928
O21   O     O_2   0.298906 0.952186 0.463791 -0.495267
C32   C     C_2   0.685981 0.931977 0.437244 0.484509
H10   H     H_    0.741521 0.873120 0.388032 0.105746
O22   O     O_2   0.712352 0.046459 0.434363 -0.517651
C33   C     C_2   0.124466 0.424910 0.404062 0.454238
H11   H     H_    0.192508 0.355458 0.411472 0.108625
O23   O     O_2   0.086693 0.436385 0.330576 -0.563997
C34   C     C_2   0.891898 0.639526 0.547776 0.518004
H12   H     H_    0.804310 0.633024 0.596496 0.154828
O24   O     O_2   0.958458 0.740942 0.537187 -0.504184

loop_
_geom_bond_atom_site_label_1
_geom_bond_atom_site_label_2
_geom_bond_distance
_ccdc_geom_bond_type
C29   H7    1.083746 S    
C3    C8    1.433681 S    
C17   C19   1.400822 A    
C33   H11   1.076092 S    
C23   C24   1.451151 S    
O7    Zn2   2.012457 S    
C9    H1    1.084811 S    
O5    C3    1.295061 A    
O1    C1    1.288897 A    
C9    C11   1.382135 A    
C34   O24   1.221101 D    
C5    C15   1.417603 A    
C30   O16   1.221285 D    
N1    H4    1.029394 S    
C26   C33   1.471112 S    
O4    Zn1   1.923256 S    
N5    O18   1.301591 A    
C7    C9    1.385054 A    
N3    O12   1.301385 A    
C1    C21   1.454518 S    
C4    C7    1.436320 S    
C13   C14   1.397419 A    
C32   H10   1.085719 S    
C22   C24   1.366630 D    
C11   C17   1.408344 A    
C12   C18   1.406970 A    
C33   O23   1.221136 D    
O2    C2    1.293973 A    
N4    O14   1.300825 A    
C11   C13   1.412326 A    
C6    C16   1.409725 A    
C28   O10   1.216871 D    
C31   H9    1.085235 S    
C34   H12   1.072123 S    
N2    H3    1.029357 S    
O4    C2    1.306435 A    
C6    C28   1.494183 S    
C25   C26   1.500576 S    
C19   C29   1.491415 S    
C30   H8    1.084224 S    
C2    C22   1.456587 S    
C31   O21   1.219992 D    
N6    O20   1.300871 A    
C27   H5    1.084858 S    
C27   O9    1.219815 D    
O6    C4    1.289354 A    
C25   C34   1.471911 S    
O7    C3    1.296501 A    
Zn1   N2    2.034142 S    
C23   N6    1.441981 S    
O3    Zn2   1.923254 S    
O8    C4    1.301208 A    
C21   C32   1.492269 S    
C10   C12   1.386259 A    
C29   O15   1.221575 D    
C12   C14   1.410417 A    
O1    Zn1   1.909386 S    
C24   N5    1.442446 S    
N4    O13   1.300691 A    
C10   H2    1.084041 S    
C15   C20   1.425824 A    
C5    C7    1.408186 A    
C28   H6    1.084607 S    
O6    Zn2   1.998398 S    
C14   C16   1.420564 A    
O3    C1    1.310529 A    
O8    Zn1   2.012454 S    
C22   C31   1.492024 S    
N6    O19   1.300285 A    
C18   C20   1.402512 A    
C5    C27   1.480629 S    
N1    C25   1.304874 D    
Zn2   N1    2.034142 S    
N2    C26   1.304379 D    
C18   N4    1.436364 S    
C20   C30   1.485983 S    
C21   C23   1.368365 D    
C8    C10   1.386557 A    
C13   C15   1.423766 A    
N5    O17   1.297804 A    
O2    Zn2   1.909388 S    
O5    Zn1   1.998401 S    
C16   C19   1.420365 A    
C6    C8    1.407724 A    
N3    O11   1.300996 A    
C32   O22   1.220423 D    
C17   N3    1.436518 S    
