data_mof_unit_pretest_36.cif
_audit_creation_date              2012-12-10T16:47:53-0500
_audit_creation_method            fapswitch 2.2
_symmetry_space_group_name_H-M    P1
_symmetry_Int_Tables_number       1
_space_group_crystal_system       triclinic
_cell_length_a                    7.778544
_cell_length_b                    8.573064
_cell_length_c                    10.609266
_cell_angle_alpha                 90.248712
_cell_angle_beta                  86.526605
_cell_angle_gamma                 93.377707
_cell_volume                      704.962426666

loop_
_atom_site_label
_atom_site_type_symbol
_atom_type_description
_atom_site_fract_x
_atom_site_fract_y
_atom_site_fract_z
_atom_type_partial_charge
C1    C     C_R   0.545489 0.794609 0.495351 0.936061
C2    C     C_2   0.569358 0.957985 0.490340 -0.344552
C3    C     C_2   0.739564 0.290646 0.113895 0.459465
C4    C     C_2   0.590307 0.204387 0.862160 0.456429
C5    C     C_2   0.429986 0.041954 0.497973 -0.309490
C6    C     C_R   0.503170 0.497107 0.737731 0.984991
C7    C     C_R   0.454181 0.205455 0.499138 1.009374
C8    C     C_R   0.494256 0.485611 0.263102 0.893969
C9    C     C_2   0.591680 0.366865 0.062102 -0.107410
C10   C     C_2   0.475736 0.444550 0.133457 -0.395762
C11   C     C_2   0.565940 0.357019 0.926731 0.039078
C12   C     C_2   0.513354 0.485691 0.870643 -0.324588
F1    F     F_    0.029598 0.360354 0.387213 -0.539417
H1    H     H_    0.357423 0.478635 0.094244 0.195003
H2    H     H_    0.492537 0.593062 0.922669 0.122585
H3    H     H_    0.701068 0.008717 0.482038 0.196125
H4    H     H_    0.298266 0.991243 0.505952 0.183124
H5    H     H_    0.986799 0.617026 0.593784 0.140083
H6    H     H_    0.731589 0.247159 0.210045 0.111391
H7    H     H_    0.655395 0.113908 0.908200 0.084077
N1    N     N_2   0.950320 0.457950 0.466680 0.201011
N2    N     N_2   0.049680 0.542050 0.533320 -0.083374
O1    O     O_R   0.389250 0.738570 0.508180 -0.625326
O2    O     O_2   0.530782 0.174154 0.760821 -0.598950
O3    O     O_R   0.678390 0.711630 0.486820 -0.646129
O4    O     O_R   0.355470 0.513470 0.691600 -0.610689
O5    O     O_R   0.644610 0.486520 0.670240 -0.620675
O6    O     O_R   0.321610 0.288370 0.513180 -0.562644
O7    O     O_R   0.610750 0.261430 0.491820 -0.605508
O8    O     O_R   0.355390 0.513480 0.329760 -0.557502
O9    O     O_R   0.644530 0.486530 0.308400 -0.617830
O10   O     O_2   0.871748 0.274275 0.048274 -0.560867
Zn1   Zn    Zn3+2 0.306940 0.517990 0.514260 1.057262
Zn2   Zn    Zn3+2 0.693060 0.482010 0.485740 1.040684

loop_
_geom_bond_atom_site_label_1
_geom_bond_atom_site_label_2
_ccdc_geom_bond_type
C11   C12   D    
C3    H6    S    
C3    C9    S    
C2    H3    S    
C9    C10   D    
O4    Zn1   S    
C6    O5    A    
C12   H2    S    
O3    Zn2   S    
C8    O8    A    
O9    Zn2   S    
F1    N1    S    
N1    N2    D    
C4    C11   S    
C1    O3    A    
C9    C11   S    
C6    O4    A    
C7    O7    A    
O6    Zn1   S    
C1    O1    A    
O5    Zn2   S    
C6    C12   S    
C3    O10   D    
C4    O2    D    
C2    C5    D    
C5    H4    S    
C4    H7    S    
C8    C10   S    
C1    C2    S    
C10   H1    S    
C5    C7    S    
N2    Zn1   S    
N1    Zn2   S    
O8    Zn1   S    
H5    N2    S    
C8    O9    A    
O7    Zn2   S    
C7    O6    A    
O1    Zn1   S    
