data_mof_unit_pretest_329.cif
_audit_creation_date              2012-12-10T16:58:59-0500
_audit_creation_method            fapswitch 2.2
_symmetry_space_group_name_H-M    P1
_symmetry_Int_Tables_number       1
_space_group_crystal_system       triclinic
_cell_length_a                    9.659359
_cell_length_b                    10.83276
_cell_length_c                    17.291753
_cell_angle_alpha                 89.401606
_cell_angle_beta                  85.348425
_cell_angle_gamma                 89.254798
_cell_volume                      1803.17401775

loop_
_atom_site_label
_atom_site_type_symbol
_atom_type_description
_atom_site_fract_x
_atom_site_fract_y
_atom_site_fract_z
_atom_type_partial_charge
C1    C     C_R   0.500634 0.734600 0.490547 0.861091
C2    C     C_R   0.460410 0.583998 0.782509 0.128687
C3    C     C_R   0.425289 0.538354 0.142296 -0.246881
C4    C     C_R   0.414071 0.536254 0.222716 0.092236
C5    C     C_R   0.659783 0.476003 0.220580 0.068816
C6    C     C_R   0.669467 0.478359 0.138317 0.147768
C7    C     C_R   0.548964 0.505502 0.100222 0.080917
C8    C     C_2   0.463407 0.427403 0.978589 0.143478
C9    C     C_2   0.548376 0.500839 0.015542 -0.270036
C10   C     C_R   0.531159 0.504240 0.263231 -0.084334
C11   C     C_2   0.618680 0.057877 0.505172 0.159948
C12   C     C_R   0.481117 0.498514 0.649599 0.785082
C13   C     C_2   0.501745 0.129280 0.510344 -0.436368
C14   C     C_2   0.619393 0.932116 0.469301 0.139853
C15   C     C_2   0.501363 0.865938 0.466790 -0.070720
C16   C     C_2   0.070741 0.573045 0.543202 -0.067027
C17   C     C_2   0.915103 0.576401 0.540878 -0.048279
C18   C     C_R   0.500626 0.264317 0.505801 0.834864
C19   C     C_R   0.518942 0.500860 0.349335 0.845286
C20   C     C_R   0.468929 0.480710 0.733304 -0.092597
C21   C     C_R   0.468424 0.358877 0.764049 0.097514
C22   C     C_R   0.465610 0.342923 0.844708 -0.157769
C23   C     C_R   0.459777 0.444806 0.893865 0.071272
C24   C     C_R   0.453814 0.564535 0.862550 -0.212262
Cu1   Cu    Cu3+1 0.361370 0.499980 0.499980 0.936273
Cu2   Cu    Cu3+1 0.638630 0.500020 0.500020 0.936125
H1    H     H_    0.400549 0.089466 0.508440 0.142276
H2    H     H_    0.115833 0.635794 0.582376 0.147064
H3    H     H_    0.112424 0.445296 0.461183 0.197487
H4    H     H_    0.857448 0.645465 0.575704 0.157263
H5    H     H_    0.899377 0.432591 0.470068 0.191859
H6    H     H_    0.618768 0.562372 0.982156 0.147811
H7    H     H_    0.445411 0.643356 0.900836 0.136815
H8    H     H_    0.335001 0.563935 0.112122 0.160936
H9    H     H_    0.471810 0.251621 0.869629 0.146455
N1    N     N_2   0.152990 0.501340 0.500850 -0.279809
N2    N     N_2   0.846850 0.501370 0.500880 -0.281976
O1    O     O_R   0.382960 0.678040 0.499990 -0.576277
O2    O     O_R   0.617100 0.678080 0.500010 -0.569971
O3    O     O_R   0.369350 0.500000 0.613580 -0.577275
O4    O     O_R   0.603500 0.500040 0.613610 -0.585692
O5    O     O_R   0.382900 0.321920 0.499990 -0.576035
O6    O     O_R   0.617040 0.321960 0.500010 -0.586160
O7    O     O_R   0.396500 0.499960 0.386390 -0.556116
O8    O     O_R   0.630650 0.500000 0.386420 -0.549269
C25   C     C_3   0.473346 0.249091 0.709237 -0.370080
C26   C     C_3   0.466071 0.120813 0.747079 -0.881443
H10   H     H_    0.558339 0.103084 0.780119 0.248313
H11   H     H_    0.369197 0.111499 0.785811 0.254431
H12   H     H_    0.465362 0.049983 0.701159 0.248327
H13   H     H_    0.384755 0.257745 0.672279 0.206440
H14   H     H_    0.571022 0.253463 0.670949 0.201299
C27   C     C_3   0.806876 0.453352 0.091273 -0.410792
C28   C     C_3   0.882696 0.573863 0.071448 -0.851965
H15   H     H_    0.815556 0.639394 0.041289 0.249187
H16   H     H_    0.913789 0.617814 0.124999 0.244250
H17   H     H_    0.977350 0.554850 0.032521 0.240741
H18   H     H_    0.875890 0.391006 0.122353 0.192773
H19   H     H_    0.789762 0.404386 0.036813 0.206912
C29   C     C_3   0.751388 0.098572 0.540094 -0.316361
C30   C     C_3   0.795617 0.007239 0.601960 -0.853188
H20   H     H_    0.707743 0.989967 0.646058 0.250918
H21   H     H_    0.832235 0.918143 0.576348 0.273535
H22   H     H_    0.882589 0.046560 0.631611 0.233103
H23   H     H_    0.836971 0.110094 0.493846 0.185954
H24   H     H_    0.738115 0.187208 0.570927 0.218359
N3    N     N_3   0.752016 0.876140 0.444371 -0.567260
H25   H     H_    0.812654 0.943467 0.414800 0.200369
H26   H     H_    0.738078 0.811991 0.400916 0.224494
C31   C     C_3   0.383896 0.913151 0.419913 -0.455364
C32   C     C_3   0.362912 0.831523 0.350364 -0.816674
H27   H     H_    0.463676 0.812305 0.316692 0.240177
H28   H     H_    0.313889 0.743452 0.369701 0.290544
H29   H     H_    0.292483 0.879139 0.311690 0.231307
H30   H     H_    0.285510 0.918506 0.457851 0.215733
H31   H     H_    0.407477 0.006033 0.394743 0.218008
N4    N     N_3   0.282027 0.566083 0.262479 -0.574464
H32   H     H_    0.250741 0.653311 0.243551 0.210792
H33   H     H_    0.209710 0.502250 0.246200 0.217482
N5    N     N_3   0.778616 0.441920 0.261249 -0.572256
H34   H     H_    0.860538 0.501009 0.244533 0.225701
H35   H     H_    0.807639 0.350969 0.247579 0.202914
C33   C     C_3   0.459971 0.715327 0.751340 -0.417250
C34   C     C_3   0.313807 0.757048 0.734652 -0.828925
H36   H     H_    0.272322 0.697390 0.690428 0.259800
H37   H     H_    0.316416 0.853467 0.712252 0.235340
H38   H     H_    0.243306 0.753454 0.788655 0.251050
H39   H     H_    0.499248 0.779466 0.794114 0.198389
H40   H     H_    0.531138 0.724007 0.697816 0.196144
C35   C     C_3   0.375908 0.326709 0.020176 -0.371816
C36   C     C_3   0.221139 0.350418 0.013890 -0.846350
H41   H     H_    0.189926 0.440976 0.039460 0.245903
H42   H     H_    0.196535 0.349509 0.952265 0.258582
H43   H     H_    0.160189 0.277220 0.045960 0.235285
H44   H     H_    0.404709 0.235365 0.994980 0.179109
H45   H     H_    0.394556 0.317633 0.082402 0.210197

loop_
_geom_bond_atom_site_label_1
_geom_bond_atom_site_label_2
_ccdc_geom_bond_type
C16   H2    S    
C34   H38   S    
C27   H19   S    
C35   H44   S    
C26   H11   S    
C27   C28   S    
C22   H9    S    
H3    N1    S    
C13   C18   S    
C34   H37   S    
C3    C7    A    
C18   O5    A    
Cu1   O3    S    
C5    C6    A    
C11   C14   S    
Cu2   O2    S    
C25   H14   S    
C8    C23   S    
C30   H21   S    
C9    H6    S    
C25   C26   S    
C26   H10   S    
C8    C9    D    
C23   C24   A    
C31   C32   S    
C1    C15   S    
Cu2   O8    S    
C33   H39   S    
C29   H24   S    
C21   C22   A    
C17   H4    S    
C2    C33   S    
Cu1   O7    S    
Cu2   O6    S    
C26   H12   S    
N4    H33   S    
C33   H40   S    
C28   H16   S    
C2    C20   A    
N3    H25   S    
C34   H36   S    
N5    H35   S    
C36   H41   S    
C32   H28   S    
C16   C17   S    
C3    H8    S    
Cu1   Cu2   S    
N4    H32   S    
C25   H13   S    
H5    N2    S    
C29   C30   S    
N3    H26   S    
C12   O3    A    
C30   H22   S    
C12   O4    A    
Cu1   O1    S    
C36   H42   S    
C33   C34   S    
C10   C19   S    
C14   N3    S    
C12   C20   S    
C17   N2    D    
C5    N5    S    
C1    O1    A    
C29   H23   S    
C31   H31   S    
C8    C35   S    
C6    C27   S    
C4    C10   A    
C3    C4    A    
C19   O7    A    
C21   C25   S    
C7    C9    S    
C15   C31   S    
C28   H15   S    
C14   C15   D    
N5    H34   S    
Cu1   O5    S    
C32   H29   S    
C27   H18   S    
C19   O8    A    
Cu2   N2    S    
C35   H45   S    
C6    C7    A    
C24   H7    S    
C4    N4    S    
C18   O6    A    
C16   N1    D    
C36   H43   S    
C2    C24   A    
C11   C13   D    
C35   C36   S    
C30   H20   S    
C1    O2    A    
Cu1   N1    S    
C5    C10   A    
C32   H27   S    
C20   C21   A    
C31   H30   S    
C22   C23   A    
C13   H1    S    
C11   C29   S    
Cu2   O4    S    
C28   H17   S    
