data_mof_unit_pretest_500.cif
_audit_creation_date              2012-12-11T15:34:51-0500
_audit_creation_method            fapswitch 2.2
_symmetry_space_group_name_H-M    P1
_symmetry_Int_Tables_number       1
_space_group_crystal_system       triclinic
_cell_length_a                    30.501002
_cell_length_b                    7.264746
_cell_length_c                    25.889977
_cell_angle_alpha                 90.001246
_cell_angle_beta                  111.889308
_cell_angle_gamma                 89.999944
_cell_volume                      5323.16728429

loop_
_atom_site_label
_atom_site_type_symbol
_atom_type_description
_atom_site_fract_x
_atom_site_fract_y
_atom_site_fract_z
_atom_type_partial_charge
O1    O     O_R   0.295360 0.592990 0.320420 -0.531802
O2    O     O_R   0.704640 0.407010 0.679580 -0.531802
O3    O     O_R   0.204640 0.092990 0.179580 -0.531802
O4    O     O_R   0.795360 0.907010 0.820420 -0.531802
O5    O     O_R   0.294060 0.265620 0.213230 -0.532932
O6    O     O_R   0.705940 0.734380 0.786770 -0.532932
O7    O     O_R   0.205940 0.765620 0.286770 -0.532930
O8    O     O_R   0.794060 0.234380 0.713230 -0.532931
C1    C     C_R   0.304059 0.432159 0.199787 0.746354
C2    C     C_R   0.695941 0.567841 0.800213 0.746354
C3    C     C_R   0.195941 0.932161 0.300213 0.746355
C4    C     C_R   0.804059 0.067839 0.699787 0.746357
O9    O     O_R   0.300850 0.263360 0.322080 -0.543684
O10   O     O_R   0.699150 0.736640 0.677920 -0.543684
O11   O     O_R   0.199150 0.763360 0.177920 -0.543684
O12   O     O_R   0.800850 0.236640 0.822080 -0.543685
O13   O     O_R   0.211480 0.091820 0.289210 -0.538220
O14   O     O_R   0.788520 0.908180 0.710790 -0.538221
O15   O     O_R   0.288520 0.591820 0.210790 -0.538219
O16   O     O_R   0.711480 0.408180 0.789210 -0.538219
C5    C     C_R   0.313270 0.431809 0.343110 0.766881
C6    C     C_R   0.686730 0.568191 0.656889 0.766882
C7    C     C_R   0.186730 0.931806 0.156889 0.766883
C8    C     C_R   0.813270 0.068194 0.843110 0.766883
O17   O     O_3   0.220670 0.426670 0.239090 -0.383305
O18   O     O_3   0.779330 0.573330 0.760910 -0.383305
O19   O     O_3   0.279330 0.926670 0.260910 -0.383304
O20   O     O_3   0.720670 0.073330 0.739090 -0.383305
V1    V     V_3+5 0.255440 0.152290 0.252020 1.452712
V2    V     V_3+5 0.744560 0.847710 0.747980 1.452711
V3    V     V_3+5 0.244560 0.652290 0.247980 1.452713
V4    V     V_3+5 0.755440 0.347710 0.752020 1.452713
C9    C     C_R   0.849884 0.059504 0.899666 -0.135911
C10   C     C_R   0.150116 0.940496 0.100334 -0.135912
C11   C     C_R   0.650117 0.559493 0.600334 -0.135910
C12   C     C_R   0.349883 0.440507 0.399666 -0.135910
C13   C     C_R   0.871222 0.054807 0.999508 -0.241440
C14   C     C_R   0.128778 0.945193 0.000491 -0.241440
C15   C     C_R   0.628779 0.554775 0.500492 -0.241439
C16   C     C_R   0.371221 0.445225 0.499508 -0.241439
C17   C     C_R   0.836681 0.069883 0.945937 0.444345
C18   C     C_R   0.163319 0.930117 0.054063 0.444345
C19   C     C_R   0.663320 0.569857 0.554063 0.444344
C20   C     C_R   0.336680 0.430144 0.445937 0.444345
C21   C     C_R   0.897802 0.039737 0.907386 -0.303150
C22   C     C_R   0.102198 0.960264 0.092614 -0.303150
C23   C     C_R   0.602198 0.539735 0.592614 -0.303152
C24   C     C_R   0.397802 0.460263 0.407386 -0.303152
C25   C     C_R   0.933636 0.027508 0.961647 0.089134
C26   C     C_R   0.066364 0.972493 0.038353 0.089134
C27   C     C_R   0.566365 0.527500 0.538353 0.089135
C28   C     C_R   0.433635 0.472498 0.461647 0.089135
C29   C     C_R   0.919135 0.035078 0.007677 0.075780
C30   C     C_R   0.080865 0.964923 0.992322 0.075779
C31   C     C_R   0.580866 0.535055 0.492323 0.075779
C32   C     C_R   0.419134 0.464944 0.507677 0.075780
C33   C     C_R   0.983092 0.006708 0.971932 0.071861
C34   C     C_R   0.016908 0.993293 0.028068 0.071861
C35   C     C_R   0.516908 0.506709 0.528068 0.071861
C36   C     C_R   0.483092 0.493288 0.471932 0.071861
C37   C     C_R   0.000116 0.001023 0.071973 -0.191424
C38   C     C_R   0.999884 0.998978 0.928026 -0.191424
C39   C     C_R   0.499884 0.501004 0.428026 -0.191425
C40   C     C_R   0.500116 0.498994 0.571974 -0.191424
C41   C     C_R   0.952380 0.021642 0.061838 -0.173011
C42   C     C_R   0.047620 0.978359 0.938161 -0.173010
C43   C     C_R   0.547620 0.521613 0.438161 -0.173010
C44   C     C_R   0.452380 0.478385 0.561839 -0.173011
H1    H     H_    0.941330 0.026880 0.097063 0.130508
H2    H     H_    0.058670 0.973121 0.902937 0.130507
H3    H     H_    0.558671 0.526841 0.402937 0.130508
H4    H     H_    0.441329 0.473158 0.597063 0.130508
H5    H     H_    0.094350 0.966604 0.129822 0.151332
H6    H     H_    0.905650 0.033396 0.870178 0.151332
H7    H     H_    0.405650 0.466591 0.370179 0.151332
H8    H     H_    0.594350 0.533406 0.629821 0.151332
H9    H     H_    0.860365 0.057391 0.034894 0.133618
H10   H     H_    0.139635 0.942610 0.965106 0.133617
H11   H     H_    0.639636 0.557348 0.465106 0.133618
H12   H     H_    0.360364 0.442653 0.534894 0.133618
H13   H     H_    0.023006 0.991093 0.115099 0.145310
H14   H     H_    0.976994 0.008908 0.884901 0.145310
H15   H     H_    0.476994 0.491069 0.384902 0.145312
H16   H     H_    0.523006 0.508928 0.615099 0.145312
C45   C     C_R   0.070037 0.824353 0.454928 0.583489
C46   C     C_R   0.929963 0.175646 0.545071 0.583490
C47   C     C_R   0.429964 0.324348 0.045071 0.583487
C48   C     C_R   0.570036 0.675652 0.954929 0.583487
N1    N     N_R   0.073187 0.971415 0.423028 -0.549257
N2    N     N_R   0.926813 0.028584 0.576972 -0.549257
N3    N     N_R   0.426813 0.471410 0.076972 -0.549257
N4    N     N_R   0.573186 0.528590 0.923027 -0.549257
C49   C     C_R   0.047760 0.129447 0.420989 0.587302
C50   C     C_R   0.952239 0.870552 0.579010 0.587302
C51   C     C_R   0.452239 0.629445 0.079012 0.587305
C52   C     C_R   0.547761 0.370555 0.920988 0.587304
C53   C     C_R   0.017552 0.142683 0.450860 -0.031642
C54   C     C_R   0.982448 0.857316 0.549139 -0.031642
C55   C     C_R   0.482447 0.642684 0.049140 -0.031641
C56   C     C_R   0.517553 0.357316 0.950859 -0.031641
C57   C     C_R   0.014768 0.994181 0.484415 -0.015658
C58   C     C_R   0.985231 0.005818 0.515585 -0.015658
C59   C     C_R   0.485232 0.494180 0.015585 -0.015658
C60   C     C_R   0.514768 0.505819 0.984415 -0.015659
C61   C     C_R   0.041471 0.834119 0.486909 -0.038832
C62   C     C_R   0.958529 0.165880 0.513091 -0.038832
C63   C     C_R   0.458530 0.334115 0.013090 -0.038833
C64   C     C_R   0.541470 0.665885 0.986910 -0.038833
C65   C     C_R   0.990266 0.301011 0.448160 -0.150888
C66   C     C_R   0.009734 0.698988 0.551839 -0.150888
C67   C     C_R   0.509732 0.801015 0.051841 -0.150883
C68   C     C_R   0.490268 0.198985 0.948159 -0.150883
C69   C     C_R   0.961084 0.312333 0.478814 -0.163503
C70   C     C_R   0.038916 0.687666 0.521186 -0.163504
C71   C     C_R   0.538914 0.812339 0.021188 -0.163507
C72   C     C_R   0.461086 0.187661 0.978812 -0.163507
O21   O     O_2   0.094008 0.667948 0.455314 -0.506407
O22   O     O_2   0.905992 0.332051 0.544686 -0.506407
O23   O     O_2   0.405994 0.167939 0.044684 -0.506408
O24   O     O_2   0.594006 0.832061 0.955316 -0.506408
O25   O     O_2   0.052079 0.274726 0.390766 -0.511186
O26   O     O_2   0.947921 0.725273 0.609233 -0.511186
O27   O     O_2   0.447920 0.774725 0.109236 -0.511186
O28   O     O_2   0.552080 0.225275 0.890764 -0.511186
H17   H     H_    0.991466 0.417169 0.422491 0.176603
H18   H     H_    0.008534 0.582831 0.577509 0.176604
H19   H     H_    0.508532 0.917174 0.077512 0.176604
H20   H     H_    0.491468 0.082826 0.922488 0.176604
H21   H     H_    0.940626 0.436607 0.475640 0.175161
H22   H     H_    0.059373 0.563393 0.524360 0.175161
H23   H     H_    0.559371 0.936615 0.024362 0.175161
H24   H     H_    0.440628 0.063385 0.975638 0.175161
C73   C     C_R   0.913907 0.006124 0.666036 -0.156649
C74   C     C_R   0.086093 0.993876 0.333964 -0.156649
C75   C     C_R   0.586093 0.506127 0.833963 -0.156649
C76   C     C_R   0.413907 0.493871 0.166036 -0.156649
H25   H     H_    0.951125 0.976914 0.687547 0.142511
H26   H     H_    0.048875 0.023086 0.312453 0.142511
H27   H     H_    0.548875 0.476913 0.812452 0.142510
H28   H     H_    0.451125 0.523082 0.187548 0.142509
C77   C     C_R   0.883897 0.010477 0.696277 0.403063
C78   C     C_R   0.116103 0.989523 0.303723 0.403063
C79   C     C_R   0.616102 0.510480 0.803722 0.403064
C80   C     C_R   0.383897 0.489517 0.196277 0.403065
C81   C     C_R   0.836096 0.059219 0.669076 -0.110357
C82   C     C_R   0.163904 0.940781 0.330924 -0.110359
C83   C     C_R   0.663904 0.559225 0.830924 -0.110356
C84   C     C_R   0.336096 0.440775 0.169076 -0.110355
C85   C     C_R   0.818507 0.095802 0.611795 -0.290371
C86   C     C_R   0.181493 0.904198 0.388205 -0.290371
C87   C     C_R   0.681493 0.595814 0.888205 -0.290369
C88   C     C_R   0.318507 0.404189 0.111795 -0.290368
H29   H     H_    0.781660 0.131576 0.590322 0.146297
H30   H     H_    0.218340 0.868424 0.409678 0.146297
H31   H     H_    0.718339 0.631591 0.909678 0.146293
H32   H     H_    0.281661 0.368413 0.090322 0.146292
C89   C     C_R   0.848025 0.083323 0.581552 -0.075556
C90   C     C_R   0.151975 0.916677 0.418448 -0.075555
C91   C     C_R   0.651974 0.583335 0.918447 -0.075554
C92   C     C_R   0.348025 0.416667 0.081552 -0.075555
H33   H     H_    0.833372 0.107834 0.537107 0.147159
H34   H     H_    0.166628 0.892165 0.462893 0.147159
H35   H     H_    0.666627 0.607850 0.962893 0.147158
H36   H     H_    0.333372 0.392154 0.037107 0.147157
C93   C     C_R   0.896138 0.039540 0.608332 0.313682
C94   C     C_R   0.103862 0.960459 0.391668 0.313682
C95   C     C_R   0.603861 0.539548 0.891667 0.313683
C96   C     C_R   0.396138 0.460452 0.108332 0.313683
O29   O     O_3   0.210569 0.920982 0.061458 -0.557153
C97   C     C_3   0.221172 0.739176 0.051044 -0.239591
H37   H     H_    0.201513 0.699334 0.006914 0.135258
H38   H     H_    0.213893 0.639705 0.079595 0.130437
H39   H     H_    0.259424 0.731056 0.058821 0.178660
O30   O     O_3   0.789431 0.079019 0.938542 -0.557153
C98   C     C_3   0.778828 0.260825 0.948956 -0.239590
H40   H     H_    0.786107 0.360295 0.920403 0.130438
H41   H     H_    0.798487 0.300669 0.993085 0.135258
H42   H     H_    0.740576 0.268945 0.941178 0.178660
O31   O     O_3   0.289430 0.421017 0.438542 -0.557154
C99   C     C_3   0.278824 0.239214 0.448954 -0.239592
H43   H     H_    0.298483 0.199374 0.493083 0.135259
H44   H     H_    0.286103 0.139738 0.420402 0.130437
H45   H     H_    0.240572 0.231100 0.441176 0.178662
O32   O     O_3   0.710570 0.578986 0.561458 -0.557153
C100  C     C_3   0.721175 0.760788 0.551045 -0.239591
H46   H     H_    0.713896 0.860265 0.579597 0.130437
H47   H     H_    0.701516 0.800627 0.506916 0.135259
H48   H     H_    0.759427 0.768904 0.558823 0.178662
O33   O     O_3   0.901876 0.981618 0.753186 -0.572838
C101  C     C_3   0.910692 0.791965 0.763503 -0.253682
H49   H     H_    0.940012 0.744769 0.751031 0.158193
H50   H     H_    0.878314 0.708487 0.742181 0.158652
H51   H     H_    0.921651 0.767480 0.808875 0.154142
O34   O     O_3   0.098124 0.018383 0.246814 -0.572838
C102  C     C_3   0.089309 0.208037 0.236497 -0.253681
H52   H     H_    0.121686 0.291514 0.257819 0.158652
H53   H     H_    0.059989 0.255233 0.248970 0.158193
H54   H     H_    0.078349 0.232523 0.191125 0.154142
O35   O     O_3   0.598124 0.481617 0.746813 -0.572839
C103  C     C_3   0.589308 0.291963 0.736495 -0.253682
H55   H     H_    0.559988 0.244766 0.748966 0.158193
H56   H     H_    0.621685 0.208487 0.757816 0.158652
H57   H     H_    0.578349 0.267475 0.691122 0.154144
O36   O     O_3   0.401876 0.518378 0.253187 -0.572839
C104  C     C_3   0.410693 0.708032 0.263506 -0.253685
H58   H     H_    0.378315 0.791508 0.242186 0.158652
H59   H     H_    0.440013 0.755228 0.251034 0.158193
H60   H     H_    0.421652 0.732518 0.308879 0.154145

loop_
_geom_bond_atom_site_label_1
_geom_bond_atom_site_label_2
_ccdc_geom_bond_type
O17   V3    S    
C55   C59   A    
C17   O30   S    
C88   C92   A    
O1    C5    A    
C101  H49   S    
C54   C66   A    
C47   N3    A    
O19   V1    S    
O13   V1    S    
O29   C97   S    
C78   C82   A    
O3    C7    A    
C10   C18   A    
C56   C60   A    
C76   H28   S    
C11   C23   A    
C100  H46   S    
C25   C33   A    
C33   C38   A    
C98   H41   S    
C5    C12   S    
C71   H23   S    
C104  H58   S    
C73   H25   S    
C6    C11   S    
C35   C40   A    
C57   C58   A    
C69   H21   S    
C36   C39   A    
C92   H36   S    
C64   C71   A    
O9    V1    S    
C49   O25   S    
C23   H8    S    
C14   C18   A    
C48   C64   A    
C51   C55   A    
C100  H47   S    
C97   H37   S    
C50   C54   A    
C60   C64   A    
C19   O32   S    
O1    V3    S    
C9    C21   A    
O32   C100  S    
O2    V4    S    
C89   H33   S    
O3    V1    S    
C85   H29   S    
O30   C98   S    
C40   H16   S    
C28   C36   A    
C101  H51   S    
C82   C86   A    
O35   C103  S    
C1    O15   A    
C15   C31   A    
C48   N4    A    
C2    O16   A    
C103  H55   S    
C16   C32   A    
C72   H24   S    
O2    C6    A    
C74   C94   A    
C58   C62   A    
C10   C22   A    
C87   H31   S    
C48   O24   S    
C11   C19   A    
C66   C70   A    
C43   H3    S    
C99   H45   S    
C65   C69   A    
C2    C83   S    
C102  H54   S    
C13   C29   A    
C34   C37   A    
O11   C7    A    
O34   C102  S    
C38   H14   S    
O15   V3    S    
C35   C36   A    
O12   C8    A    
C80   O36   S    
N1    C49   A    
C70   H22   S    
C24   H7    S    
C46   C62   A    
O10   V2    S    
C45   C61   A    
C20   O31   S    
C79   O35   S    
C99   H44   S    
N2    C50   A    
C98   H42   S    
O5    V1    S    
C104  H59   S    
N4    C52   A    
C57   C61   A    
N1    C94   S    
C39   C43   A    
O7    V3    S    
C38   C42   A    
C62   C69   A    
O8    V4    S    
C88   H32   S    
C61   C70   A    
C77   O33   S    
C44   H4    S    
C46   N2    A    
C89   C93   A    
C45   N1    A    
O18   V4    S    
C100  H48   S    
C15   C19   A    
C76   C96   A    
C32   C44   A    
C13   H9    S    
O4    V2    S    
C102  H52   S    
C39   H15   S    
C21   H6    S    
C15   H11   S    
C4    C81   S    
O7    C3    A    
C47   O23   S    
C18   O29   S    
C73   C93   A    
C74   C78   A    
C53   C65   A    
N3    C96   S    
C49   C53   A    
C31   C43   A    
C98   H40   S    
C14   C30   A    
C24   C28   A    
O8    C4    A    
C7    C10   S    
C55   C67   A    
C16   H12   S    
C21   C25   A    
C78   O34   S    
C26   C34   A    
O9    C5    A    
C46   O22   S    
C26   C30   A    
C45   O21   S    
C66   H18   S    
O14   V2    S    
C50   O26   S    
C52   O28   S    
C65   H17   S    
O6    V2    S    
C56   C68   A    
N2    C93   S    
C67   H19   S    
C91   H35   S    
C12   C20   A    
C27   C35   A    
C40   C44   A    
C79   C83   A    
C68   C72   A    
C29   C41   A    
C99   H43   S    
C90   C94   A    
C59   C63   A    
O16   V4    S    
C104  H60   S    
C51   O27   S    
C41   H1    S    
C3    O13   A    
C101  H50   S    
C86   C90   A    
C84   C88   A    
O5    C1    A    
O6    C2    A    
C23   C27   A    
C3    C82   S    
O11   V3    S    
C30   C42   A    
C77   C81   A    
C74   H26   S    
O12   V4    S    
C14   H10   S    
C22   C26   A    
C1    C84   S    
C73   C77   A    
C8    C9    S    
C75   H27   S    
C9    C17   A    
O10   C6    A    
O20   V2    S    
C76   C80   A    
C54   C58   A    
N4    C95   S    
C33   C34   A    
C42   H2    S    
C22   H5    S    
C97   H38   S    
C103  H57   S    
O4    C8    A    
C83   C87   A    
C52   C56   A    
C75   C79   A    
C91   C95   A    
C12   C24   A    
C27   C31   A    
C92   C96   A    
C13   C17   A    
O33   C101  S    
C81   C85   A    
C63   C72   A    
C68   H20   S    
C25   C29   A    
C90   H34   S    
N3    C51   A    
O31   C99   S    
C37   C41   A    
C16   C20   A    
C47   C63   A    
O36   C104  S    
C67   C71   A    
C86   H30   S    
C4    O14   A    
C59   C60   A    
C75   C95   A    
C37   H13   S    
C85   C89   A    
C97   H39   S    
C103  H56   S    
C53   C57   A    
C28   C32   A    
C87   C91   A    
C102  H53   S    
C80   C84   A    
