data_mof_unit_pretest_86.cif
_audit_creation_date              2012-12-10T18:07:36-0500
_audit_creation_method            fapswitch 2.2
_symmetry_space_group_name_H-M    P1
_symmetry_Int_Tables_number       1
_space_group_crystal_system       triclinic
_cell_length_a                    11.56293
_cell_length_b                    12.627286
_cell_length_c                    13.008456
_cell_angle_alpha                 81.235668
_cell_angle_beta                  90.894365
_cell_angle_gamma                 102.624452
_cell_volume                      1831.47488083

loop_
_atom_site_label
_atom_site_type_symbol
_atom_type_description
_atom_site_fract_x
_atom_site_fract_y
_atom_site_fract_z
_atom_type_partial_charge
C1    C     C_R   0.484879 0.437192 0.692315 0.853034
C2    C     C_R   0.530109 0.603865 0.194714 -0.148045
C3    C     C_R   0.497474 0.290340 0.846735 0.206269
C4    C     C_R   0.495902 0.260364 0.954948 -0.158031
C5    C     C_R   0.484499 0.335478 0.019786 -0.233270
C6    C     C_R   0.472119 0.441795 0.977540 0.119316
C7    C     C_R   0.442912 0.460851 0.872544 -0.012119
C8    C     C_R   0.485552 0.529706 0.035582 -0.024296
C9    C     C_R   0.443475 0.625429 0.994031 0.030859
C10   C     C_R   0.375108 0.622825 0.902598 0.188673
C11   C     C_R   0.382232 0.544604 0.839652 -0.212721
C12   C     C_R   0.717772 0.500972 0.500316 0.891526
C13   C     C_R   0.544524 0.528252 0.131084 0.107591
C14   C     C_R   0.517138 0.709287 0.146603 0.134693
C15   C     C_R   0.471208 0.393316 0.804374 -0.133512
C16   C     C_R   0.333333 0.087238 0.346687 -0.305322
C17   C     C_R   0.642091 0.805446 0.629659 0.249634
C18   C     C_R   0.698220 0.917230 0.630514 0.165657
C19   C     C_R   0.663502 0.997872 0.557833 0.140885
C20   C     C_R   0.556800 0.968672 0.504570 -0.045659
C21   C     C_R   0.514125 0.856379 0.494846 0.130695
C22   C     C_R   0.491250 0.046179 0.460027 0.023277
C23   C     C_R   0.517632 0.562827 0.307543 0.881580
C24   C     C_R   0.399676 0.013811 0.390783 0.148841
C25   C     C_R   0.370852 0.906538 0.369891 -0.288336
C26   C     C_R   0.425984 0.828410 0.422816 -0.162757
C27   C     C_R   0.506180 0.151713 0.488755 -0.115819
C28   C     C_R   0.352930 0.191379 0.375039 0.333821
C29   C     C_R   0.282225 0.498985 0.499750 0.886339
C30   C     C_1   0.838871 0.502491 0.500670 -0.197480
C31   C     C_1   0.940844 0.501186 0.500395 -0.000476
C32   C     C_1   0.059108 0.498541 0.499783 -0.001102
C33   C     C_1   0.161108 0.497354 0.499471 -0.199960
C34   C     C_R   0.477967 0.721012 0.042386 0.197536
H1    H     H_    0.301618 0.881612 0.315723 0.150971
N1    N     N_R   0.440320 0.222190 0.444690 -0.103662
N2    N     N_R   0.559060 0.776980 0.554780 -0.141207
O1    O     O_R   0.471500 0.366730 0.627160 -0.599592
O2    O     O_R   0.509620 0.544830 0.662520 -0.612975
O3    O     O_R   0.646490 0.410960 0.482310 -0.607879
O4    O     O_R   0.684610 0.589050 0.517670 -0.613700
O5    O     O_R   0.490380 0.455170 0.337480 -0.606133
O6    O     O_R   0.528500 0.633270 0.372840 -0.629396
O7    O     O_R   0.315390 0.410950 0.482330 -0.607768
O8    O     O_R   0.353510 0.589040 0.517690 -0.626249
Zn1   Zn    Zn3+2 0.474550 0.381080 0.476390 0.928016
Zn2   Zn    Zn3+2 0.525450 0.618920 0.523610 0.919540
C35   C     C_3   0.553918 0.810575 0.198895 -0.863253
H2    H     H_    0.597989 0.797320 0.273896 0.264602
H3    H     H_    0.621938 0.873222 0.150990 0.232200
H4    H     H_    0.475801 0.845881 0.208175 0.243094
H5    H     H_    0.262790 0.061596 0.293837 0.148519
H6    H     H_    0.566070 0.177946 0.548666 0.165322
C36   C     C_3   0.674512 0.718304 0.711322 -0.783745
H7    H     H_    0.597201 0.681521 0.763902 0.246808
H8    H     H_    0.706529 0.656106 0.675943 0.266440
H9    H     H_    0.746883 0.748417 0.762964 0.203886
C37   C     C_3   0.750645 0.106220 0.524284 -0.902972
H10   H     H_    0.728111 0.148440 0.447853 0.245908
H11   H     H_    0.754826 0.161522 0.583549 0.235090
H12   H     H_    0.840464 0.091098 0.513495 0.252446
C38   C     C_3   0.794619 0.950266 0.707527 -0.915578
H13   H     H_    0.759133 0.921891 0.788223 0.238609
H14   H     H_    0.871598 0.914127 0.694814 0.245962
H15   H     H_    0.827633 0.040091 0.702095 0.252826
H16   H     H_    0.398261 0.747235 0.404833 0.216930
C39   C     C_3   0.286166 0.693324 0.873716 -0.918481
H17   H     H_    0.199455 0.640398 0.858248 0.241757
H18   H     H_    0.269949 0.737506 0.937595 0.255052
H19   H     H_    0.316184 0.752503 0.802007 0.244410
C40   C     C_3   0.487520 0.835229 0.980988 -0.915197
H20   H     H_    0.476303 0.834984 0.896460 0.253680
H21   H     H_    0.422052 0.876022 0.011046 0.242563
H22   H     H_    0.578020 0.885923 0.986202 0.236847
C41   C     C_3   0.643194 0.467017 0.157534 -0.865485
H23   H     H_    0.716429 0.518451 0.196060 0.229173
H24   H     H_    0.611450 0.389475 0.211627 0.252237
H25   H     H_    0.683026 0.449964 0.086410 0.242397
C42   C     C_3   0.528079 0.211616 0.780525 -0.884774
H26   H     H_    0.551062 0.138729 0.828575 0.226223
H27   H     H_    0.451088 0.181163 0.732779 0.256314
H28   H     H_    0.606157 0.252958 0.729637 0.238249
H29   H     H_    0.484165 0.309090 0.102670 0.168110
H30   H     H_    0.509066 0.180352 0.989670 0.146300
H31   H     H_    0.336248 0.546946 0.766349 0.175399
C43   C     C_3   0.268634 0.262460 0.333357 -0.820403
H32   H     H_    0.315049 0.344214 0.295203 0.261055
H33   H     H_    0.210710 0.226324 0.272899 0.192263
H34   H     H_    0.208297 0.267913 0.396653 0.247935

loop_
_geom_bond_atom_site_label_1
_geom_bond_atom_site_label_2
_ccdc_geom_bond_type
C16   C28   A    
C21   C26   A    
C8    C13   A    
C19   C20   A    
C3    C42   S    
C10   C39   S    
O3    Zn1   S    
C12   O4    A    
C23   O5    A    
C5    C6    A    
C5    H29   S    
C43   H33   S    
C37   H11   S    
C29   C33   S    
C23   O6    A    
C18   C19   A    
O5    Zn1   S    
C2    C13   A    
C38   H14   S    
C35   H4    S    
C13   C41   S    
C8    C9    A    
N1    Zn1   S    
C1    C15   S    
N2    Zn2   S    
C9    C10   A    
C37   H12   S    
C35   H3    S    
C16   C24   A    
O7    Zn1   S    
O8    Zn2   S    
C19   C37   S    
C36   H8    S    
C39   H17   S    
C26   H16   S    
C24   C25   A    
C42   H27   S    
C43   H32   S    
C18   C38   S    
C14   C35   S    
C37   H10   S    
C29   O8    A    
C39   H18   S    
C12   O3    A    
C7    C11   A    
C41   H23   S    
C38   H13   S    
C42   H28   S    
C31   C32   S    
C4    H30   S    
C17   C18   A    
O4    Zn2   S    
C17   N2    A    
C41   H24   S    
C1    O1    A    
C25   H1    S    
C35   H2    S    
C20   C22   A    
C22   C27   A    
C29   O7    A    
C28   C43   S    
C9    C34   A    
C22   C24   A    
C3    C4    A    
C3    C15   A    
O2    Zn2   S    
C36   H7    S    
C38   H15   S    
C12   C30   S    
C16   H5    S    
C4    C5    A    
C43   H34   S    
C14   C34   A    
C40   H22   S    
C6    C8    A    
C27   H6    S    
C6    C7    A    
C27   N1    A    
C39   H19   S    
C32   C33   T    
C25   C26   A    
C40   H20   S    
C30   C31   T    
C11   H31   S    
C17   C36   S    
C7    C15   A    
C2    C14   A    
C41   H25   S    
O1    Zn1   S    
C10   C11   A    
C1    O2    A    
C42   H26   S    
C21   N2    A    
C20   C21   A    
C28   N1    A    
C40   H21   S    
C2    C23   S    
O6    Zn2   S    
C34   C40   S    
C36   H9    S    
