data_mof_unit_pretest_507.cif
_audit_creation_date              2012-12-10T21:00:38-0500
_audit_creation_method            fapswitch 2.2
_symmetry_space_group_name_H-M    P1
_symmetry_Int_Tables_number       1
_space_group_crystal_system       triclinic
_cell_length_a                    18.129639
_cell_length_b                    18.179926
_cell_length_c                    18.336253
_cell_angle_alpha                 119.943811
_cell_angle_beta                  89.948942
_cell_angle_gamma                 119.918946
_cell_volume                      4284.17053395

loop_
_atom_site_label
_atom_site_type_symbol
_atom_type_description
_atom_site_fract_x
_atom_site_fract_y
_atom_site_fract_z
_atom_type_partial_charge
C1    C     C_R   0.110341 0.220079 0.609929 0.784707
C2    C     C_3   0.450727 0.897541 0.947739 0.068817
C3    C     C_3   0.447464 0.031660 0.033078 -0.140670
C4    C     C_3   0.552572 0.968308 0.966919 -0.139771
C5    C     C_3   0.448355 0.407095 0.482881 0.506720
C6    C     C_3   0.551602 0.592780 0.517096 0.506762
C7    C     C_3   0.552015 0.472736 0.516360 -0.318606
C8    C     C_3   0.447947 0.527139 0.483614 -0.318697
C9    C     C_3   0.550249 0.498646 0.448304 -0.036998
C10   C     C_3   0.449721 0.501242 0.551675 -0.036948
C11   C     C_3   0.446059 0.430599 0.413488 -0.264046
C12   C     C_R   0.888830 0.779970 0.390117 0.806011
C13   C     C_3   0.553906 0.569280 0.586488 -0.264518
C14   C     C_R   0.143183 0.166863 0.828964 -0.131168
C15   C     C_R   0.841781 0.851875 0.182205 -0.150756
C16   C     C_R   0.392948 0.781206 0.888487 0.757649
C17   C     C_R   0.607057 0.218787 0.111515 0.757112
C18   C     C_R   0.122864 0.125599 0.738140 -0.164395
C19   C     C_R   0.870153 0.894910 0.272967 -0.198809
C20   C     C_R   0.042524 0.097898 0.690425 0.121755
C21   C     C_R   0.943621 0.902891 0.310128 0.118924
C22   C     C_R   0.981665 0.110843 0.734705 0.258635
C23   C     C_3   0.979081 0.426647 0.416574 0.307445
C24   C     C_R   0.989637 0.868051 0.255134 0.280419
C25   C     C_R   0.002834 0.152028 0.826040 -0.212555
C26   C     C_R   0.959870 0.824229 0.163724 -0.184001
C27   C     C_R   0.083498 0.180451 0.872949 -0.141529
C28   C     C_R   0.886320 0.816268 0.127556 -0.140366
C29   C     C_R   0.968221 0.943584 0.537070 -0.237475
C30   C     C_R   0.025341 0.056622 0.463281 -0.257585
C31   C     C_R   0.943957 0.892340 0.444559 -0.049989
C32   C     C_R   0.051914 0.107798 0.555669 -0.056770
C33   C     C_R   0.971764 0.949668 0.406974 0.032975
C34   C     C_3   0.020874 0.573282 0.583401 0.307505
C35   C     C_R   0.021094 0.050594 0.593337 0.022972
C36   C     C_R   0.690991 0.829290 0.006249 -0.158180
C37   C     C_R   0.307654 0.167700 0.988956 -0.151327
C38   C     C_R   0.650817 0.731974 0.990749 -0.148693
C39   C     C_R   0.347892 0.265438 0.005358 -0.152438
C40   C     C_R   0.111841 0.501695 0.890629 0.784543
C41   C     C_R   0.888051 0.498146 0.109251 0.784471
C42   C     C_R   0.575930 0.692715 0.017390 0.154406
C43   C     C_R   0.424550 0.306727 0.981519 0.155215
C44   C     C_R   0.541490 0.751552 0.059278 -0.138883
C45   C     C_3   0.434707 0.965131 0.932753 -0.168343
C46   C     C_R   0.460647 0.249389 0.941461 -0.135221
C47   C     C_R   0.582171 0.849041 0.075102 -0.121465
C48   C     C_R   0.419949 0.151498 0.924790 -0.120692
C49   C     C_R   0.657062 0.888055 0.048910 -0.106085
C50   C     C_R   0.343356 0.110540 0.948269 -0.104645
C51   C     C_R   0.586793 0.587518 0.056966 -0.256529
C52   C     C_R   0.413579 0.412222 0.942420 -0.256894
C53   C     C_R   0.551054 0.496470 0.052117 -0.040657
C54   C     C_R   0.449161 0.503347 0.947509 -0.039194
C55   C     C_R   0.463855 0.407341 0.994014 -0.014772
C56   C     C_3   0.565347 0.034840 0.067248 -0.167463
C57   C     C_R   0.536481 0.592350 0.005366 -0.016065
C58   C     C_R   0.216193 0.841976 0.033203 -0.117999
C59   C     C_R   0.783419 0.157099 0.965646 -0.124223
C60   C     C_R   0.176316 0.754630 0.035102 -0.130195
C61   C     C_R   0.823293 0.244858 0.964367 -0.131464
C62   C     C_R   0.084884 0.673440 0.986316 0.154107
C63   C     C_R   0.914724 0.325957 0.013242 0.155893
C64   C     C_R   0.392398 0.500194 0.607978 0.845814
C65   C     C_R   0.607596 0.499771 0.392020 0.845921
C66   C     C_R   0.033790 0.681005 0.936337 -0.157446
C67   C     C_3   0.537213 0.037369 0.952683 -0.199354
C68   C     C_R   0.965816 0.317894 0.062698 -0.155178
C69   C     C_R   0.074133 0.768197 0.934194 -0.146483
C70   C     C_R   0.925469 0.230308 0.064251 -0.150677
C71   C     C_R   0.165330 0.848574 0.982467 -0.090992
C72   C     C_R   0.834282 0.150003 0.015858 -0.096361
C73   C     C_R   0.984655 0.576913 0.041170 -0.268033
C74   C     C_R   0.015176 0.422593 0.958578 -0.271724
C75   C     C_R   0.943333 0.495750 0.051561 -0.049039
C76   C     C_R   0.056445 0.503805 0.948174 -0.051056
C77   C     C_R   0.958277 0.416933 0.009119 -0.007821
C78   C     C_3   0.462837 0.962605 0.047328 -0.199433
C79   C     C_R   0.041462 0.582562 0.990585 -0.006596
C80   C     C_R   0.393783 0.501594 0.890262 0.798581
C81   C     C_R   0.606252 0.498374 0.109676 0.799330
C82   C     C_R   0.109058 0.500388 0.608018 0.788491
C83   C     C_R   0.890925 0.499591 0.391980 0.788965
C84   C     C_3   0.076224 0.518990 0.478841 -0.262711
C85   C     C_3   0.923731 0.480938 0.521135 -0.263003
C86   C     C_3   0.045487 0.593122 0.511728 -0.226852
C87   C     C_3   0.954471 0.406805 0.488248 -0.227409
C88   C     C_3   0.948501 0.499041 0.448198 -0.039690
C89   C     C_3   0.549313 0.102439 0.052271 0.069042
C90   C     C_3   0.051458 0.500896 0.551784 -0.039465
C91   C     C_3   0.902450 0.160797 0.686176 -0.778594
C92   C     C_3   0.147683 0.976019 0.344622 -0.773208
C93   C     C_3   0.983169 0.279776 0.309631 -0.794317
C94   C     C_3   0.016669 0.720070 0.690269 -0.794806
H1    H     H_    0.081802 0.669340 0.521280 0.140689
H2    H     H_    0.994528 0.797595 0.120780 0.127774
H3    H     H_    0.945942 0.900354 0.566456 0.175707
H4    H     H_    0.046357 0.099909 0.433947 0.175090
H5    H     H_    0.689186 0.964008 0.062064 0.114780
H6    H     H_    0.311262 0.034322 0.934531 0.114282
H7    H     H_    0.749046 0.859657 0.986137 0.125177
H8    H     H_    0.248286 0.135837 0.006966 0.124492
H9    H     H_    0.678453 0.687679 0.958866 0.124032
H10   H     H_    0.318977 0.308548 0.035830 0.123466
H11   H     H_    0.484144 0.722546 0.080733 0.102156
H12   H     H_    0.918167 0.330588 0.478699 0.139927
H13   H     H_    0.519281 0.279835 0.922002 0.100112
H14   H     H_    0.138161 0.532703 0.460954 0.144728
H15   H     H_    0.861794 0.467225 0.539023 0.144464
H16   H     H_    0.556093 0.894616 0.108502 0.118248
H17   H     H_    0.447320 0.107099 0.892766 0.117843
H18   H     H_    0.653376 0.656380 0.103097 0.171141
H19   H     H_    0.347182 0.343318 0.895989 0.163120
H20   H     H_    0.196405 0.916268 0.981112 0.109771
H21   H     H_    0.803221 0.081970 0.016697 0.110946
H22   H     H_    0.286270 0.904956 0.071673 0.115958
H23   H     H_    0.099435 0.212330 0.943330 0.132486
H24   H     H_    0.713357 0.094157 0.927054 0.117371
H25   H     H_    0.216257 0.750475 0.074899 0.102220
H26   H     H_    0.783385 0.249328 0.924865 0.103468
H27   H     H_    0.962934 0.619453 0.899155 0.122628
H28   H     H_    0.036699 0.379316 0.099852 0.123113
H29   H     H_    0.034523 0.773716 0.895601 0.124866
H30   H     H_    0.965074 0.224396 0.102436 0.125377
H31   H     H_    0.974329 0.638053 0.074289 0.161146
H32   H     H_    0.025580 0.361404 0.925555 0.175027
H33   H     H_    0.567420 0.069129 0.913941 0.113961
H34   H     H_    0.864079 0.782885 0.057163 0.130063
H35   H     H_    0.432662 0.930836 0.086074 0.114109
H36   H     H_    0.380350 0.934542 0.876332 0.129185
H37   H     H_    0.619741 0.065339 0.123587 0.129096
H38   H     H_    0.404641 0.058539 0.061004 0.134561
H39   H     H_    0.595350 0.941408 0.938886 0.134101
H40   H     H_    0.593687 0.448497 0.527717 0.154181
H41   H     H_    0.406275 0.551377 0.472257 0.154522
H42   H     H_    0.402494 0.372437 0.342444 0.168361
H43   H     H_    0.597470 0.627442 0.657532 0.168054
H44   H     H_    0.845555 0.045417 0.707059 0.224075
H45   H     H_    0.204963 0.187545 0.865076 0.134211
H46   H     H_    0.835524 0.129644 0.646155 0.233399
H47   H     H_    0.952439 0.188670 0.655204 0.242018
H48   H     H_    0.920894 0.226863 0.755089 0.231233
H49   H     H_    0.071387 0.816578 0.246009 0.215890
H50   H     H_    0.199970 0.978040 0.312395 0.230504
H51   H     H_    0.170850 0.993998 0.410995 0.252791
H52   H     H_    0.140703 0.037372 0.354152 0.249101
H53   H     H_    0.973252 0.375031 0.285508 0.239093
H54   H     H_    0.958359 0.218341 0.237232 0.229918
H55   H     H_    0.953963 0.241410 0.343971 0.250742
H56   H     H_    0.785249 0.846397 0.154443 0.149450
H57   H     H_    0.057902 0.325171 0.334620 0.240739
H58   H     H_    0.026774 0.624975 0.714492 0.238856
H59   H     H_    0.041669 0.781702 0.762631 0.229549
H60   H     H_    0.941923 0.674639 0.665487 0.240676
H61   H     H_    0.045616 0.758204 0.655706 0.251180
H62   H     H_    0.405412 0.264225 0.418624 0.319468
H63   H     H_    0.594307 0.735548 0.581187 0.319450
H64   H     H_    0.169578 0.114923 0.704788 0.127665
H65   H     H_    0.834751 0.921973 0.314480 0.139043
H66   H     H_    0.956703 0.162143 0.860716 0.142877
N1    N     N_2   0.898276 0.079881 0.687355 -0.311438
N2    N     N_2   0.063543 0.873667 0.290535 -0.323457
N3    N     N_2   0.955538 0.346712 0.323972 -0.291667
N4    N     N_2   0.044416 0.653245 0.675988 -0.291768
O1    O     O_3   0.251620 0.500000 0.748430 -0.486391
O2    O     O_R   0.570330 0.268390 0.136490 -0.636914
O3    O     O_R   0.134680 0.268390 0.572240 -0.640608
O4    O     O_R   0.865320 0.731610 0.427760 -0.642507
O5    O     O_R   0.306670 0.731630 0.863510 -0.632732
O6    O     O_R   0.693330 0.268370 0.136490 -0.632427
O7    O     O_R   0.135450 0.439270 0.865360 -0.643565
O8    O     O_R   0.864550 0.560730 0.134640 -0.649591
O9    O     O_R   0.429670 0.560710 0.692610 -0.657023
O10   O     O_R   0.570330 0.439290 0.307390 -0.657031
O11   O     O_R   0.308540 0.439240 0.865360 -0.647408
O12   O     O_3   0.748380 0.500000 0.251570 -0.487160
O13   O     O_R   0.691460 0.560760 0.134640 -0.646867
O14   O     O_R   0.133580 0.439310 0.571150 -0.642652
O15   O     O_R   0.866420 0.560690 0.428850 -0.642299
O16   O     O_R   0.430770 0.560690 0.864590 -0.631545
O17   O     O_R   0.569230 0.439310 0.135410 -0.631864
O18   O     O_R   0.133580 0.560760 0.692610 -0.646353
O19   O     O_R   0.866420 0.439240 0.307390 -0.646359
O20   O     O_3   0.392129 0.309311 0.466717 -0.769293
O21   O     O_3   0.607802 0.690568 0.533273 -0.766232
O22   O     O_R   0.134680 0.560740 0.864590 -0.634776
O23   O     O_R   0.865320 0.439260 0.135410 -0.634260
O24   O     O_R   0.306670 0.439270 0.571150 -0.619346
O25   O     O_R   0.693330 0.560730 0.428850 -0.619220
O26   O     O_R   0.135450 0.268370 0.694460 -0.638970
O27   O     O_R   0.864550 0.731630 0.305540 -0.640773
O28   O     O_R   0.429670 0.731610 0.863510 -0.636394
Zn1   Zn    Zn3+2 0.207400 0.586780 0.791530 0.968275
Zn2   Zn    Zn3+2 0.792600 0.413220 0.208470 0.969558
Zn3   Zn    Zn3+2 0.208510 0.413230 0.792630 0.966889
Zn4   Zn    Zn3+2 0.791490 0.586770 0.207370 0.968029
Zn5   Zn    Zn3+2 0.383150 0.586740 0.791530 0.974455
Zn6   Zn    Zn3+2 0.616850 0.413260 0.208470 0.974101
Zn7   Zn    Zn3+2 0.207400 0.413250 0.618010 0.976843
Zn8   Zn    Zn3+2 0.792600 0.586750 0.381990 0.981155

loop_
_geom_bond_atom_site_label_1
_geom_bond_atom_site_label_2
_ccdc_geom_bond_type
O14   Zn7   S    
C91   H47   S    
C51   H18   S    
O13   Zn4   S    
C65   O10   A    
C14   C18   A    
O22   Zn1   S    
C93   H55   S    
C76   C79   A    
C81   O17   A    
C6    C9    S    
C34   C90   S    
C82   O18   A    
H62   O20   S    
C39   H10   S    
C47   C49   A    
C44   H11   S    
C15   C19   A    
C6    O21   S    
C42   C44   A    
C60   H25   S    
C2    C78   S    
C80   O16   A    
C60   C62   A    
C19   C21   A    
C78   H35   S    
C84   C86   S    
C5    C11   S    
C85   H15   S    
C17   O2    A    
O1    Zn7   S    
C37   H8    S    
C86   C88   S    
C58   C71   A    
C66   C69   A    
C41   C75   S    
O15   Zn8   S    
C69   H29   S    
C58   C60   A    
C93   N3    S    
C67   C89   S    
O19   Zn2   S    
C56   C78   S    
C41   O23   A    
C93   H54   S    
C53   C81   S    
C34   C86   S    
C61   C63   A    
O27   Zn4   S    
O16   Zn5   S    
C16   O28   A    
C20   C35   S    
C16   O5    A    
C94   H61   S    
C74   C77   A    
C45   C67   S    
C31   C33   A    
C51   C57   A    
C94   H59   S    
C14   C27   A    
C2    C16   S    
C5    O20   S    
C23   N3    S    
C44   C47   A    
C59   C72   A    
C91   H48   S    
C1    O26   A    
C27   H23   S    
C83   C88   S    
C69   C71   A    
C45   H36   S    
C23   C87   S    
C4    C56   S    
C8    H41   S    
C58   H22   S    
C73   C75   A    
C84   C90   S    
O12   Zn8   S    
C92   H50   S    
O17   Zn6   S    
O1    Zn3   S    
C42   C57   S    
O11   Zn3   S    
C52   C54   A    
C54   C80   S    
C85   C87   S    
C2    C45   S    
C26   H2    S    
C37   C39   A    
C41   O8    A    
C10   C64   S    
C59   C61   A    
O10   Zn6   S    
C23   C84   S    
C62   C66   A    
C92   H52   S    
C3    H38   S    
C32   C35   A    
C62   C79   S    
C17   C89   S    
C7    H40   S    
O7    Zn3   S    
C68   H28   S    
O6    Zn2   S    
C22   N1    S    
C17   O6    A    
C6    C8    S    
O24   Zn7   S    
C52   H19   S    
O9    Zn5   S    
C22   C25   A    
C1    C32   S    
C40   C76   S    
C71   H20   S    
C36   H7    S    
C51   C53   A    
C34   C85   S    
C13   H43   S    
C2    C4    S    
O2    Zn6   S    
C38   H9    S    
C18   H64   S    
O1    Zn5   S    
O12   Zn6   S    
C49   H5    S    
C9    C11   S    
C72   H21   S    
C94   H60   S    
C46   H13   S    
C82   O14   A    
C25   H66   S    
C73   C79   A    
C66   H27   S    
C83   O19   A    
O18   Zn1   S    
H58   N4    S    
O28   Zn5   S    
O12   Zn4   S    
C75   C77   A    
C64   O24   A    
C34   N4    S    
C74   C76   A    
O26   Zn3   S    
O25   Zn8   S    
C43   C55   S    
C56   C89   S    
C65   O25   A    
C59   H24   S    
C23   C88   S    
C12   C31   S    
C67   H33   S    
C21   C24   A    
O8    Zn4   S    
C20   C22   A    
C53   C55   A    
C94   N4    S    
C5    C7    S    
C63   C77   S    
C85   C88   S    
C92   N2    S    
C7    C9    S    
C12   O27   A    
C29   C35   A    
C63   C68   A    
O3    Zn7   S    
H49   N2    S    
C30   C33   A    
C92   H51   S    
C50   H6    S    
C8    C10   S    
C24   N2    S    
C24   C26   A    
C80   O11   A    
H63   O21   S    
C10   C13   S    
O1    Zn1   S    
C12   O4    A    
C4    C67   S    
O5    Zn1   S    
C52   C55   A    
C38   C42   A    
C83   O15   A    
C25   C27   A    
C47   H16   S    
C30   H4    S    
C26   C28   A    
C82   C90   S    
C29   H3    S    
C3    C89   S    
C19   H65   S    
C21   C33   S    
C36   C38   A    
C81   O13   A    
C5    C10   S    
C29   C31   A    
H53   N3    S    
C11   H42   S    
C6    C13   S    
C30   C32   A    
C37   C50   A    
C15   C28   A    
C74   H32   S    
C87   H12   S    
C8    C11   S    
C73   H31   S    
C48   C50   A    
C84   H14   S    
C3    C45   S    
H44   N1    S    
C18   C20   A    
C15   H56   S    
O4    Zn8   S    
C43   C46   A    
C9    C65   S    
C56   H37   S    
C93   H57   S    
C86   H1    S    
C91   H46   S    
C46   C48   A    
C70   H30   S    
C7    C13   S    
C48   H17   S    
C40   O22   A    
C14   H45   S    
C39   C43   A    
C68   C70   A    
C87   C90   S    
O23   Zn2   S    
C1    O3    A    
C91   N1    S    
C70   C72   A    
O12   Zn2   S    
C64   O9    A    
C3    C78   S    
C40   O7    A    
C36   C49   A    
C28   H34   S    
C4    H39   S    
C61   H26   S    
C54   C57   A    
