data_mof_unit_pretest_1547.cif
_audit_creation_date              2013-03-05T16:13:30-0500
_audit_creation_method            fapswitch 2.2
_symmetry_space_group_name_H-M    P1
_symmetry_Int_Tables_number       1
_space_group_crystal_system       triclinic
_cell_length_a                    36.916439
_cell_length_b                    30.279179
_cell_length_c                    21.317759
_cell_angle_alpha                 90.017359
_cell_angle_beta                  55.034168
_cell_angle_gamma                 90.07046
_cell_volume                      19527.6874411

loop_
_atom_site_label
_atom_site_type_symbol
_atom_site_description
_atom_site_fract_x
_atom_site_fract_y
_atom_site_fract_z
_atom_type_partial_charge
O1    O     O_R   0.934530 0.463050 0.065470 -0.605944
O2    O     O_R   0.065470 0.463050 0.934530 -0.616982
O3    O     O_R   0.434530 0.963050 0.065470 -0.627270
O4    O     O_R   0.565470 0.963050 0.934530 -0.620999
O5    O     O_R   0.934550 0.536970 0.065450 -0.627018
O6    O     O_R   0.065450 0.536970 0.934550 -0.621772
O7    O     O_R   0.434550 0.036970 0.065450 -0.613751
O8    O     O_R   0.565450 0.036970 0.934550 -0.618667
C1    C     C_R   0.913807 0.499964 0.086465 0.886141
C2    C     C_R   0.086184 0.500046 0.913591 0.878055
C3    C     C_R   0.413837 0.999983 0.086185 0.884614
C4    C     C_R   0.586194 0.000045 0.913324 0.903301
O9    O     O_R   0.000010 0.463050 0.093020 -0.592612
O10   O     O_R   0.999990 0.463050 0.906980 -0.583091
O11   O     O_R   0.500010 0.963050 0.093020 -0.598089
O12   O     O_R   0.499990 0.963050 0.906980 -0.604354
O13   O     O_R   0.000020 0.536970 0.093000 -0.632346
O14   O     O_R   0.999980 0.536970 0.907000 -0.636434
O15   O     O_R   0.500020 0.036970 0.093000 -0.625595
O16   O     O_R   0.499980 0.036970 0.907000 -0.622415
C5    C     C_R   0.000130 0.500071 0.121435 0.918299
C6    C     C_R   0.999534 0.500035 0.878899 0.931008
C7    C     C_R   0.499882 0.000057 0.121700 0.940956
C8    C     C_R   0.500278 0.000063 0.878156 0.918459
Zn1   Zn    Zn3+2 1.000000 0.450650 0.000000 1.052188
Zn2   Zn    Zn3+2 0.500000 0.950650 0.000000 1.021997
Zn3   Zn    Zn3+2 0.000000 0.549370 0.000000 0.981141
Zn4   Zn    Zn3+2 0.500000 0.049370 0.000000 1.005928
C9    C     C_R   0.961902 0.342646 0.519359 -0.175447
C10   C     C_R   0.037895 0.342702 0.481031 -0.177983
C11   C     C_R   0.538062 0.842660 0.444357 -0.184004
C12   C     C_R   0.461742 0.842631 0.555803 -0.182108
C13   C     C_R   0.486869 0.703065 0.566956 -0.169556
C14   C     C_R   0.512812 0.703086 0.433329 -0.170835
C15   C     C_R   0.012069 0.203131 0.542418 -0.161164
C16   C     C_R   0.987634 0.203095 0.458092 -0.159863
C17   C     C_R   0.961976 0.296850 0.518949 -0.158869
C18   C     C_R   0.037747 0.296910 0.481581 -0.159263
C19   C     C_R   0.537922 0.796870 0.444146 -0.165518
C20   C     C_R   0.461810 0.796838 0.556093 -0.164433
C21   C     C_3   0.962103 0.484535 0.267542 0.208284
C22   C     C_3   0.035438 0.480680 0.735106 0.210250
C23   C     C_3   0.471724 0.970467 0.258210 0.194636
C24   C     C_3   0.531266 0.973144 0.738733 0.194295
C25   C     C_3   0.966478 0.525995 0.304293 -0.162280
C26   C     C_3   0.035804 0.522476 0.694000 -0.169409
C27   C     C_3   0.458586 0.010126 0.311913 -0.152181
C28   C     C_3   0.540550 0.013784 0.688590 -0.147107
H1    H     H_    0.938953 0.546434 0.350065 0.162349
H2    H     H_    0.065494 0.540026 0.646716 0.161941
H3    H     H_    0.424960 0.017598 0.363199 0.176504
H4    H     H_    0.573257 0.024267 0.637760 0.180398
C29   C     C_3   0.999804 0.499901 0.311246 -0.086147
C30   C     C_3   0.000181 0.500128 0.688654 -0.070289
C31   C     C_3   0.499580 0.000155 0.311630 -0.073189
C32   C     C_3   0.500375 0.999995 0.688560 -0.090059
C33   C     C_3   0.994298 0.457895 0.276598 -0.246350
C34   C     C_3   0.000852 0.457690 0.727713 -0.249850
C35   C     C_3   0.511950 0.959547 0.259649 -0.251968
C36   C     C_3   0.491948 0.958445 0.736942 -0.244059
C37   C     C_3   0.032487 0.475232 0.197903 0.319009
C38   C     C_3   0.964411 0.478618 0.804316 0.317406
C39   C     C_3   0.539855 0.990740 0.191194 0.328799
C40   C     C_3   0.461661 0.987136 0.808067 0.332384
C41   C     C_3   0.039009 0.516279 0.232546 -0.142952
C42   C     C_3   0.962690 0.520287 0.765219 -0.139065
C43   C     C_3   0.528722 0.030991 0.243080 -0.143785
C44   C     C_3   0.468804 0.028157 0.759883 -0.150674
C45   C     C_3   0.005627 0.542002 0.224210 -0.188968
C46   C     C_3   0.998288 0.542267 0.772117 -0.211477
C47   C     C_3   0.487909 0.040614 0.241597 -0.193040
C48   C     C_3   0.508856 0.041580 0.761501 -0.175075
C49   C     C_3   0.000142 0.500392 0.188797 -0.169089
C50   C     C_3   0.998989 0.500182 0.812052 -0.166255
C51   C     C_3   0.500124 0.000304 0.188878 -0.178096
C52   C     C_3   0.500592 0.000388 0.810462 -0.178239
H5    H     H_    0.989795 0.423810 0.299169 0.166554
H6    H     H_    0.001805 0.423358 0.708523 0.158540
H7    H     H_    0.521854 0.926684 0.268088 0.159277
H8    H     H_    0.484988 0.924785 0.725666 0.166968
H9    H     H_    0.070985 0.528817 0.219208 0.203361
H10   H     H_    0.932349 0.536148 0.776672 0.208189
H11   H     H_    0.552561 0.055590 0.238149 0.192212
H12   H     H_    0.442689 0.050364 0.767348 0.189367
H13   H     H_    0.010321 0.576090 0.201568 0.194454
H14   H     H_    0.997061 0.576627 0.791427 0.194656
H15   H     H_    0.478220 0.073562 0.233027 0.202482
H16   H     H_    0.515708 0.075294 0.772760 0.203252
C53   C     C_R   0.797190 0.465674 0.172701 -0.162390
C54   C     C_R   0.203337 0.467708 0.826519 -0.151290
C55   C     C_R   0.297108 0.968489 0.167818 -0.141289
C56   C     C_R   0.703416 0.966956 0.824079 -0.153499
H17   H     H_    0.779458 0.439807 0.165786 0.148699
H18   H     H_    0.221565 0.442631 0.833755 0.148559
H19   H     H_    0.279171 0.944440 0.157859 0.144522
H20   H     H_    0.721666 0.941295 0.830046 0.147311
C57   C     C_R   0.842985 0.465423 0.127824 -0.133021
C58   C     C_R   0.157504 0.467050 0.872612 -0.134632
C59   C     C_R   0.342952 0.968132 0.122437 -0.122282
C60   C     C_R   0.657600 0.966217 0.870104 -0.121377
H21   H     H_    0.860376 0.438975 0.086950 0.200331
H22   H     H_    0.140470 0.441287 0.915220 0.194448
H23   H     H_    0.360341 0.943732 0.077398 0.186429
H24   H     H_    0.640646 0.939740 0.911232 0.186840
C61   C     C_R   0.865993 0.499743 0.134659 -0.035483
C62   C     C_R   0.133972 0.500184 0.864686 -0.032056
C63   C     C_R   0.366081 0.999903 0.134191 -0.025858
C64   C     C_R   0.634004 0.000174 0.864148 -0.028197
C65   C     C_R   0.843082 0.533706 0.187873 -0.215475
C66   C     C_R   0.156310 0.533453 0.809618 -0.208823
C67   C     C_R   0.343388 0.031553 0.192100 -0.210343
C68   C     C_R   0.656316 0.034265 0.810788 -0.210765
H25   H     H_    0.860613 0.560093 0.194181 0.156282
H26   H     H_    0.138322 0.558927 0.802585 0.155002
H27   H     H_    0.361120 0.056009 0.201818 0.155115
H28   H     H_    0.638320 0.060378 0.805154 0.158334
C69   C     C_R   0.797243 0.533169 0.234409 -0.150898
C70   C     C_R   0.202125 0.533350 0.762115 -0.159337
C71   C     C_R   0.297554 0.031057 0.238896 -0.143774
C72   C     C_R   0.702126 0.034214 0.763169 -0.155293
H29   H     H_    0.779504 0.559009 0.276489 0.139464
H30   H     H_    0.219372 0.558564 0.718520 0.138536
H31   H     H_    0.279964 0.055101 0.284485 0.136423
H32   H     H_    0.719336 0.060069 0.720842 0.139650
C73   C     C_R   0.774470 0.499410 0.226087 0.183730
C74   C     C_R   0.225487 0.500687 0.771129 0.184602
C75   C     C_R   0.274579 0.999750 0.226215 0.225237
C76   C     C_R   0.725521 0.000784 0.770457 0.183311
C77   C     C_R   0.703875 0.474262 0.340585 0.105592
C78   C     C_R   0.296307 0.474199 0.656787 0.095500
C79   C     C_R   0.204006 0.975313 0.342252 0.082016
C80   C     C_R   0.796386 0.974716 0.655775 0.095280
C81   C     C_R   0.657589 0.474654 0.387352 0.227417
C82   C     C_R   0.342587 0.473337 0.612241 0.252427
C83   C     C_R   0.157688 0.975170 0.388394 0.233257
C84   C     C_R   0.842653 0.973764 0.611470 0.257445
C85   C     C_R   0.634478 0.500541 0.366074 -0.357253
C86   C     C_R   0.365512 0.499486 0.633771 -0.355596
C87   C     C_R   0.134568 0.000029 0.365898 -0.335861
C88   C     C_R   0.865514 0.999479 0.633655 -0.355823
C89   C     C_R   0.657469 0.526360 0.298696 0.257379
C90   C     C_R   0.342338 0.526026 0.700106 0.228868
C91   C     C_R   0.157639 0.024861 0.297416 0.226311
C92   C     C_R   0.842277 0.025681 0.700402 0.223745
C93   C     C_R   0.703744 0.525754 0.251879 0.096668
C94   C     C_R   0.296057 0.526721 0.744662 0.107376
C95   C     C_R   0.203948 0.024544 0.251204 0.083251
C96   C     C_R   0.796004 0.026449 0.744741 0.108024
C97   C     C_R   0.726519 0.499517 0.273180 -0.118438
C98   C     C_R   0.273461 0.501039 0.722553 -0.118325
C99   C     C_R   0.226618 0.999863 0.274124 -0.082369
C100  C     C_R   0.773484 0.001199 0.721980 -0.117859
C101  C     C_R   0.999921 0.365724 0.500147 -0.024199
C102  C     C_R   0.499922 0.865705 0.500062 -0.032343
H33   H     H_    0.932354 0.359949 0.533959 0.160199
H34   H     H_    0.067474 0.360046 0.466375 0.159872
H35   H     H_    0.567783 0.859977 0.400705 0.166429
H36   H     H_    0.432050 0.859929 0.599425 0.166282
C103  C     C_R   0.999845 0.273968 0.500292 0.108138
C104  C     C_R   0.499849 0.773938 0.500137 0.106597
C105  C     C_R   0.500083 0.274050 0.499875 0.148911
C106  C     C_R   0.000276 0.773874 0.499559 0.150424
H37   H     H_    0.477013 0.720633 0.618746 0.147865
H38   H     H_    0.522641 0.720668 0.381558 0.147108
H39   H     H_    0.021312 0.220726 0.575531 0.143913
H40   H     H_    0.978365 0.220664 0.425029 0.145129
O17   O     O_R   0.036960 0.565440 0.463030 -0.594368
O18   O     O_R   0.963040 0.565440 0.536970 -0.595007
O19   O     O_R   0.536960 0.065440 0.463030 -0.591397
O20   O     O_R   0.463040 0.065440 0.536970 -0.591843
C107  C     C_R   0.000027 0.586097 0.499914 1.015889
C108  C     C_R   0.500025 0.086007 0.499959 1.014473
O21   O     O_R   0.036960 0.499960 0.370010 -0.600575
O22   O     O_R   0.963040 0.499960 0.629990 -0.594365
O23   O     O_R   0.536960 0.999960 0.370010 -0.621663
O24   O     O_R   0.463040 0.999960 0.629990 -0.628765
O25   O     O_R   0.963040 0.499940 0.443930 -0.640223
O26   O     O_R   0.036960 0.499940 0.556070 -0.641787
O27   O     O_R   0.463040 0.999940 0.443930 -0.610846
O28   O     O_R   0.536960 0.999940 0.556070 -0.609442
C109  C     C_R   0.999909 0.499842 0.378481 0.953451
C110  C     C_R   0.000102 0.500053 0.621470 0.953546
C111  C     C_R   0.499868 0.000030 0.378575 0.950831
C112  C     C_R   0.500111 0.999920 0.621494 0.952401
Zn5   Zn    Zn3+2 0.049370 0.499970 0.450630 1.022228
Zn6   Zn    Zn3+2 0.950630 0.499970 0.549370 1.029227
Zn7   Zn    Zn3+2 0.549370 0.999970 0.450630 1.028059
Zn8   Zn    Zn3+2 0.450630 0.999970 0.549370 1.020214
O29   O     O_R   0.036980 0.434490 0.463020 -0.630275
O30   O     O_R   0.963020 0.434490 0.536980 -0.628436
O31   O     O_R   0.536980 0.934490 0.463020 -0.630872
O32   O     O_R   0.463020 0.934490 0.536980 -0.631845
H41   H     H_    0.477107 0.639948 0.618912 0.188444
H42   H     H_    0.522706 0.639996 0.381272 0.188986
H43   H     H_    0.021369 0.140054 0.575668 0.165106
H44   H     H_    0.978487 0.139988 0.424577 0.165284
C113  C     C_R   0.999974 0.413676 0.500040 0.841197
C114  C     C_R   0.499974 0.913669 0.500021 0.837875
O33   O     O_R   0.500030 0.565470 0.552480 -0.616163
O34   O     O_R   0.499970 0.565470 0.447520 -0.614724
O35   O     O_R   0.000030 0.065470 0.552480 -0.613681
O36   O     O_R   0.999970 0.065470 0.447520 -0.613943
C115  C     C_R   0.499928 0.634232 0.500080 -0.035020
C116  C     C_R   0.999944 0.134256 0.500098 -0.003382
C117  C     C_R   0.499980 0.586277 0.500027 0.912241
C118  C     C_R   0.999995 0.086285 0.500015 0.903759
O37   O     O_R   0.565480 0.500000 0.487030 -0.582484
O38   O     O_R   0.434520 0.500000 0.512970 -0.589915
O39   O     O_R   0.065480 0.000000 0.487030 -0.586735
O40   O     O_R   0.934520 0.000000 0.512970 -0.593044
O41   O     O_R   0.565480 0.499990 0.382000 -0.591867
O42   O     O_R   0.434520 0.499990 0.618000 -0.585652
O43   O     O_R   0.065480 0.999990 0.382000 -0.581924
O44   O     O_R   0.934520 0.999990 0.618000 -0.580813
C119  C     C_R   0.586292 0.500195 0.413866 0.996506
C120  C     C_R   0.413705 0.499763 0.586128 0.998260
C121  C     C_R   0.086325 0.000003 0.413821 0.991705
C122  C     C_R   0.913706 0.999751 0.586114 0.998138
Zn9   Zn    Zn3+2 0.500010 0.500000 0.570110 1.096145
Zn10  Zn    Zn3+2 0.499990 0.500000 0.429890 1.089271
Zn11  Zn    Zn3+2 0.000010 0.000000 0.570110 1.095816
Zn12  Zn    Zn3+2 0.999990 0.000000 0.429890 1.092566
C123  C     C_R   0.487177 0.657273 0.566816 -0.133852
C124  C     C_R   0.512606 0.657298 0.433396 -0.134829
C125  C     C_R   0.011868 0.157339 0.542721 -0.142901
C126  C     C_R   0.987948 0.157303 0.457593 -0.142707
O45   O     O_R   0.500000 0.434520 0.552520 -0.610979
O46   O     O_R   0.500000 0.434520 0.447480 -0.609741
O47   O     O_R   0.000000 0.934520 0.552520 -0.616626
O48   O     O_R   0.000000 0.934520 0.447480 -0.615130
C127  C     C_R   0.500015 0.413792 0.499977 0.907935
C128  C     C_R   0.000034 0.913695 0.499954 0.913763
C129  C     C_R   0.974975 0.702994 0.568865 -0.219125
C130  C     C_R   0.025380 0.702951 0.430405 -0.218853
C131  C     C_R   0.505641 0.202670 0.550667 -0.207127
C132  C     C_R   0.494576 0.202628 0.449026 -0.206350
H45   H     H_    0.955650 0.721048 0.622300 0.184362
H46   H     H_    0.044751 0.720979 0.376914 0.184501
H47   H     H_    0.510976 0.220488 0.588793 0.183965
H48   H     H_    0.489244 0.220412 0.410892 0.184180
C133  C     C_R   0.975177 0.657071 0.569980 0.281291
C134  C     C_R   0.025059 0.657014 0.429456 0.279529
C135  C     C_R   0.505781 0.156702 0.551310 0.279124
C136  C     C_R   0.494407 0.156659 0.448423 0.279031
C137  C     C_R   0.000090 0.633936 0.499773 -0.291909
C138  C     C_R   0.500082 0.133669 0.499883 -0.281023
H49   H     H_    0.932460 0.279245 0.533875 0.143666
H50   H     H_    0.067240 0.279352 0.466689 0.143623
H51   H     H_    0.567552 0.779308 0.400937 0.146852
H52   H     H_    0.432156 0.779247 0.599330 0.147148
C139  C     C_R   0.000218 0.725826 0.499599 -0.016862
C140  C     C_R   0.500107 0.225711 0.499847 -0.020146
C141  C     C_R   0.521201 0.297283 0.430461 -0.150042
C142  C     C_R   0.478933 0.297219 0.569323 -0.150565
C143  C     C_R   0.994208 0.796854 0.449274 -0.160309
C144  C     C_R   0.006305 0.796858 0.549927 -0.159687
H53   H     H_    0.538449 0.280098 0.376135 0.149532
H54   H     H_    0.461702 0.279981 0.623625 0.149442
H55   H     H_    0.989015 0.779383 0.410681 0.149417
H56   H     H_    0.011531 0.779388 0.588457 0.149309
C145  C     C_R   0.520739 0.343076 0.430586 -0.148502
C146  C     C_R   0.479344 0.343012 0.569265 -0.149066
C147  C     C_R   0.994180 0.842617 0.449319 -0.139334
C148  C     C_R   0.006177 0.842620 0.550146 -0.141609
H57   H     H_    0.537229 0.360589 0.376568 0.160866
H58   H     H_    0.462835 0.360473 0.623309 0.160824
H59   H     H_    0.989205 0.859841 0.410300 0.183004
H60   H     H_    0.011093 0.859847 0.589258 0.182694
C149  C     C_R   0.500031 0.365980 0.499942 0.005322
C150  C     C_R   0.000121 0.865703 0.499819 -0.028365
C151  C     C_R   0.499825 0.725991 0.500154 0.095326
C152  C     C_R   0.999830 0.226025 0.500294 0.099248
N1    N     N_2   0.728234 0.448827 0.360784 -0.292346
H61   H     H_    0.719601 0.454661 0.415363 0.268786
C153  C     C_3   0.731605 0.402258 0.343013 -0.683814
H62   H     H_    0.755086 0.386443 0.352790 0.235095
H63   H     H_    0.744100 0.397289 0.282202 0.232160
H64   H     H_    0.698921 0.385897 0.380254 0.270085
N2    N     N_2   0.273039 0.448048 0.634913 -0.260408
H65   H     H_    0.243920 0.461546 0.647640 0.230493
C154  C     C_3   0.268735 0.401779 0.655110 -0.661966
H66   H     H_    0.253094 0.383839 0.630978 0.236586
H67   H     H_    0.247688 0.397709 0.718230 0.209945
H68   H     H_    0.301590 0.386780 0.631451 0.272781
N3    N     N_2   0.228359 0.950487 0.363123 -0.296958
H69   H     H_    0.218186 0.955082 0.418870 0.272301
C155  C     C_3   0.234259 0.904396 0.341544 -0.694804
H70   H     H_    0.256658 0.888787 0.354067 0.235174
H71   H     H_    0.249328 0.900922 0.279385 0.233756
H72   H     H_    0.202028 0.886802 0.374403 0.268825
N4    N     N_2   0.773191 0.949158 0.633054 -0.260182
H73   H     H_    0.744056 0.962818 0.646135 0.230284
C156  C     C_3   0.769023 0.902628 0.651612 -0.664488
H74   H     H_    0.753529 0.885272 0.626700 0.235591
H75   H     H_    0.747901 0.897799 0.714557 0.208628
H76   H     H_    0.801898 0.887585 0.627599 0.273816
N5    N     N_R   0.634181 0.446852 0.453902 0.221297
O49   O     O_R   0.608881 0.415264 0.458301 -0.405555
O50   O     O_R   0.637023 0.453869 0.511144 -0.381191
N6    N     N_R   0.366126 0.445169 0.546078 0.230396
O51   O     O_R   0.393869 0.415963 0.539785 -0.413204
O52   O     O_R   0.357456 0.446327 0.494922 -0.342017
N7    N     N_R   0.134325 0.947742 0.455405 0.220837
O53   O     O_R   0.109651 0.915476 0.459788 -0.410975
O54   O     O_R   0.135897 0.956292 0.513601 -0.385310
N8    N     N_R   0.866247 0.945989 0.544797 0.229307
O55   O     O_R   0.893763 0.916408 0.538278 -0.420065
O56   O     O_R   0.857862 0.947906 0.493316 -0.346785
N9    N     N_R   0.634001 0.553904 0.278330 0.229437
O57   O     O_R   0.606316 0.583484 0.326156 -0.429179
O58   O     O_R   0.642768 0.551886 0.209943 -0.340156
N10   N     N_R   0.365702 0.554171 0.719849 0.219327
O59   O     O_R   0.391119 0.585507 0.673478 -0.422212
O60   O     O_R   0.362913 0.547535 0.782766 -0.379988
N11   N     N_R   0.134249 0.052406 0.277053 0.220940
O61   O     O_R   0.109709 0.084621 0.321800 -0.405608
O62   O     O_R   0.135619 0.043986 0.215891 -0.375327
N12   N     N_R   0.865571 0.053412 0.720834 0.220082
O63   O     O_R   0.891089 0.084899 0.675059 -0.407519
O64   O     O_R   0.862490 0.046350 0.783915 -0.374729
N13   N     N_2   0.727065 0.551415 0.183269 -0.254533
H77   H     H_    0.756342 0.537901 0.138651 0.244644
C157  C     C_3   0.730946 0.597947 0.194012 -0.657100
H78   H     H_    0.746675 0.615400 0.138397 0.243213
H79   H     H_    0.751720 0.602817 0.215726 0.207474
H80   H     H_    0.697941 0.612845 0.234907 0.268732
N14   N     N_2   0.271667 0.552986 0.812229 -0.280595
H81   H     H_    0.280486 0.548308 0.849676 0.275960
C158  C     C_3   0.268069 0.599167 0.799205 -0.677307
H82   H     H_    0.244903 0.615764 0.854961 0.242438
H83   H     H_    0.255065 0.602911 0.763741 0.228760
H84   H     H_    0.300791 0.615651 0.770054 0.263821
N15   N     N_2   0.228249 0.049316 0.181856 -0.283268
H85   H     H_    0.217920 0.044701 0.146526 0.278758
C159  C     C_3   0.234391 0.095406 0.191397 -0.672121
H86   H     H_    0.256769 0.110952 0.134300 0.245089
H87   H     H_    0.249594 0.098883 0.223432 0.229869
H88   H     H_    0.202238 0.113060 0.222577 0.262068
N16   N     N_2   0.771532 0.052254 0.812855 -0.278326
H89   H     H_    0.780028 0.046815 0.850577 0.277526
C160  C     C_3   0.768320 0.098699 0.800814 -0.670859
H90   H     H_    0.744880 0.114893 0.856856 0.243537
H91   H     H_    0.755862 0.103263 0.764666 0.227560
H92   H     H_    0.801067 0.114981 0.772860 0.264431
N17   N     N_R   0.951354 0.634637 0.642584 0.217141
O65   O     O_R   0.969735 0.602261 0.654739 -0.433084
O66   O     O_R   0.914366 0.650857 0.700215 -0.372697
N18   N     N_R   0.048891 0.634521 0.356924 0.217318
O67   O     O_R   0.030591 0.601934 0.344903 -0.429401
O68   O     O_R   0.085861 0.650813 0.299225 -0.371999
N19   N     N_R   0.511260 0.134200 0.604864 0.195226
O69   O     O_R   0.537508 0.100382 0.583436 -0.411506
O70   O     O_R   0.494837 0.151131 0.672201 -0.397124
N20   N     N_R   0.488909 0.134115 0.394891 0.194128
O71   O     O_R   0.462622 0.100256 0.416356 -0.409840
O72   O     O_R   0.505343 0.151052 0.327542 -0.398296
N21   N     N_2   0.920905 0.468023 0.283100 -0.291939
H93   H     H_    0.907078 0.488970 0.264149 0.213770
C161  C     C_3   0.889560 0.452806 0.360564 -0.730953
H94   H     H_    0.860126 0.438792 0.365814 0.242374
H95   H     H_    0.878831 0.480709 0.401442 0.232724
H96   H     H_    0.904500 0.426544 0.375249 0.245730
N22   N     N_2   0.074530 0.459841 0.721773 -0.290497
H97   H     H_    0.090402 0.479103 0.738977 0.212196
C162  C     C_3   0.104258 0.441618 0.645992 -0.739367
H98   H     H_    0.131935 0.424527 0.642561 0.240933
H99   H     H_    0.118031 0.468360 0.602428 0.233397
H100  H     H_    0.086715 0.417168 0.633541 0.245806
N23   N     N_2   0.440846 0.938360 0.264111 -0.282023
H101  H     H_    0.419333 0.951679 0.253094 0.220501
C163  C     C_3   0.418892 0.911701 0.332717 -0.741996
H102  H     H_    0.397616 0.886802 0.330311 0.242692
H103  H     H_    0.397874 0.932765 0.384086 0.232076
H104  H     H_    0.443554 0.893947 0.337413 0.245854
N24   N     N_2   0.564983 0.944137 0.730026 -0.283559
H105  H     H_    0.585199 0.959469 0.742280 0.215974
C164  C     C_3   0.589238 0.919587 0.659147 -0.739002
H106  H     H_    0.612693 0.896800 0.659399 0.241452
H107  H     H_    0.608241 0.942488 0.609732 0.232473
H108  H     H_    0.566271 0.899587 0.652816 0.247014
N25   N     N_R   0.068644 0.448510 0.137816 0.217963
O73   O     O_R   0.070516 0.406531 0.148483 -0.370576
O74   O     O_R   0.099390 0.466683 0.073352 -0.410725
N26   N     N_R   0.924889 0.455071 0.863830 0.213852
O75   O     O_R   0.898668 0.437734 0.848237 -0.367921
O76   O     O_R   0.914732 0.452458 0.933023 -0.414864
N27   N     N_R   0.584513 0.980578 0.125845 0.213316
O77   O     O_R   0.615300 0.972820 0.136374 -0.368125
O78   O     O_R   0.594114 0.979918 0.056909 -0.420291
N28   N     N_R   0.418863 0.973519 0.875140 0.208118
O79   O     O_R   0.403378 0.934398 0.878134 -0.383049
O80   O     O_R   0.395952 0.000537 0.932353 -0.404763

loop_
_geom_bond_atom_site_label_1
_geom_bond_atom_site_label_2
_geom_bond_distance
_ccdc_geom_bond_type
C59   H23   1.083530 S    
C81   C85   1.411909 A    
N21   H93   1.031168 S    
C31   C35   1.539121 S    
C158  H83   1.109518 S    
C90   C94   1.400616 A    
C79   C99   1.402930 A    
N4    H73   1.030979 S    
C84   C88   1.413429 A    
C22   C34   1.538831 S    
C79   N3    1.425380 S    
N7    O54   1.300690 A    
C53   C73   1.396243 A    
N15   H85   1.030125 S    
C154  H68   1.109888 S    
C83   C87   1.412787 A    
O41   Zn10  2.014532 S    
C115  C117  1.452035 S    
C55   C75   1.397131 A    
C133  C137  1.414140 A    
C132  C140  1.398815 A    
C18   C103  1.399112 A    
O29   C113  1.284033 A    
O17   Zn5   2.018094 S    
C60   H24   1.083220 S    
C10   C18   1.386566 A    
C129  H45   1.083741 S    
C164  H108  1.110708 S    
C94   C98   1.404097 A    
C93   N13   1.428270 S    
C147  C150  1.401987 A    
C46   C50   1.541180 S    
O35   C118  1.284617 A    
C155  H71   1.109748 S    
O42   C120  1.284723 A    
O32   C114  1.284197 A    
O4    C4    1.283054 A    
O37   C119  1.284324 A    
C32   C112  1.435303 S    
C89   C93   1.400206 A    
C9    H33   1.083241 S    
C57   C61   1.400752 A    
N9    O58   1.301165 A    
C85   C119  1.457786 S    
C66   C70   1.386721 A    
C78   C82   1.400691 A    
O24   Zn8   2.016450 S    
C147  H59   1.083118 S    
C143  H55   1.083396 S    
C23   C51   1.523901 S    
C134  C137  1.414330 A    
C25   C45   1.552062 S    
C157  H78   1.110226 S    
O19   Zn7   2.018094 S    
C106  C144  1.399953 A    
C68   C72   1.386651 A    
H43   C125  1.083178 S    
C8    C52   1.436490 S    
O17   C107  1.281202 A    
O27   Zn8   2.020382 S    
O16   Zn4   2.018098 S    
C58   H22   1.083291 S    
O13   C5    1.272401 A    
O25   Zn6   2.020382 S    
Zn6   O30   2.018276 S    
O15   C7    1.272954 A    
O28   Zn7   2.020385 S    
C42   H10   1.110264 S    
O43   Zn12  2.014532 S    
O4    Zn2   2.015476 S    
N7    O53   1.301241 A    
C44   C48   1.552257 S    
N19   O70   1.301440 A    
N8    O55   1.301434 A    
C54   C74   1.397174 A    
N22   H97   1.031172 S    
O9    C5    1.275220 A    
C82   N6    1.438124 S    
O48   C128  1.284903 A    
C27   C47   1.552274 S    
C11   H35   1.083224 S    
C73   C97   1.450713 S    
C12   C102  1.401833 A    
C143  C147  1.385667 A    
C71   H31   1.083356 S    
C144  C148  1.385659 A    
N25   O73   1.300230 A    
O34   Zn10  2.017497 S    
N27   O77   1.300159 A    
N6    O51   1.301424 A    
O23   C111  1.273471 A    
C141  C145  1.386674 A    
O24   C112  1.273428 A    
C15   C125  1.386549 A    
O3    Zn2   2.016429 S    
C134  N18   1.438869 S    
N26   O76   1.299495 A    
C105  C140  1.463645 S    
N24   H105  1.031128 S    
C33   C37   1.537965 S    
C39   N27   1.456672 S    
C35   C39   1.535677 S    
C17   H49   1.083501 S    
C36   C40   1.536971 S    
O39   C121  1.285021 A    
O23   Zn7   2.016447 S    
N3    C155  1.446467 S    
C162  H98   1.110293 S    
C146  C149  1.398762 A    
C42   C46   1.552702 S    
N18   O67   1.300879 A    
C115  C124  1.401744 A    
N2    C154  1.447348 S    
C26   C46   1.551887 S    
O3    C3    1.282313 A    
C159  H86   1.110152 S    
N5    O49   1.301300 A    
C37   C41   1.533186 S    
C28   H4    1.110170 S    
N13   H77   1.030936 S    
C94   N14   1.425634 S    
C21   C25   1.536163 S    
C80   C100  1.408207 A    
C116  C125  1.401861 A    
C23   C27   1.533629 S    
O33   C117  1.284546 A    
O28   C112  1.273214 A    
O30   C113  1.284097 A    
O45   C127  1.283510 A    
C43   H11   1.110274 S    
O40   Zn12  2.017906 S    
C19   C104  1.399127 A    
N19   O69   1.300360 A    
O35   Zn11  2.017719 S    
O22   C110  1.272840 A    
C77   C97   1.403796 A    
O21   Zn5   2.016447 S    
C106  C139  1.454835 S    
C107  C137  1.448526 S    
C40   C44   1.535214 S    
N4    C156  1.447492 S    
O47   C128  1.285029 A    
C14   H38   1.083513 S    
C130  H46   1.083726 S    
C102  C114  1.452321 S    
C1    C61   1.446594 S    
C5    C49   1.436280 S    
C56   H20   1.083239 S    
N10   O59   1.301202 A    
C67   C71   1.386970 A    
C70   H30   1.083050 S    
C78   N2    1.428126 S    
C24   C52   1.522448 S    
N12   O64   1.300677 A    
C75   C99   1.450963 S    
O5    Zn3   2.014883 S    
C87   C91   1.412769 A    
C76   C100  1.451171 S    
O18   C107  1.281229 A    
C78   C98   1.408215 A    
C29   C41   1.539782 S    
C66   H26   1.083437 S    
C145  C149  1.398779 A    
O8    C4    1.282925 A    
C163  H104  1.110686 S    
C25   C29   1.539904 S    
C23   N23   1.446855 S    
N5    O50   1.300686 A    
C131  C140  1.398810 A    
C28   C48   1.552547 S    
C105  C142  1.403355 A    
C21   N21   1.446787 S    
C160  H91   1.109457 S    
C60   C64   1.400403 A    
O18   Zn6   2.017146 S    
C38   C42   1.533655 S    
O13   Zn3   2.018320 S    
C153  H64   1.110120 S    
O33   Zn9   2.017719 S    
O44   C122  1.284976 A    
C162  H100  1.110701 S    
N14   C158  1.446697 S    
C34   H6    1.110206 S    
C37   N25   1.455821 S    
C32   C44   1.538784 S    
C157  H79   1.109399 S    
C95   C99   1.402899 A    
O5    C1    1.283599 A    
C156  H74   1.110231 S    
C84   N8    1.438136 S    
C20   H52   1.083516 S    
C80   C84   1.400474 A    
C135  C138  1.412827 A    
C18   H50   1.083506 S    
C16   C152  1.399023 A    
C80   N4    1.428347 S    
O15   Zn4   2.018320 S    
C130  C134  1.391195 A    
C135  N19   1.440142 S    
C89   N9    1.437973 S    
C2    C62   1.446074 S    
C6    C50   1.436659 S    
Zn11  O47   2.017755 S    
C68   H28   1.083402 S    
C11   C102  1.401796 A    
C45   H13   1.110128 S    
C88   C122  1.457962 S    
C61   C65   1.400523 A    
C36   H8    1.110208 S    
C81   N5    1.435935 S    
O14   C6    1.273059 A    
C63   C67   1.400028 A    
C96   C100  1.404159 A    
N27   O78   1.299477 A    
C130  C139  1.396044 A    
Zn5   O29   2.017328 S    
C30   C42   1.537669 S    
C154  H67   1.109506 S    
Zn8   O32   2.018276 S    
O10   C6    1.274676 A    
C74   C98   1.451507 S    
C39   C51   1.523715 S    
O25   C109  1.273820 A    
C144  H56   1.083396 S    
C10   H34   1.083245 S    
N1    C153  1.446842 S    
C136  C138  1.412855 A    
C161  H96   1.110708 S    
O46   C127  1.283540 A    
C53   H17   1.083015 S    
C164  H107  1.111263 S    
C55   H19   1.083350 S    
C141  H53   1.082901 S    
C142  C146  1.386644 A    
N20   O71   1.300389 A    
O20   Zn8   2.017146 S    
C24   N24   1.446693 S    
C55   C59   1.386983 A    
C69   C73   1.397078 A    
C13   C151  1.399186 A    
N23   C163  1.444972 S    
C46   H14   1.110144 S    
C34   C38   1.536715 S    
O34   C117  1.284473 A    
C161  H94   1.110313 S    
O39   Zn11  2.017907 S    
C77   N1    1.425809 S    
C153  H62   1.110109 S    
O31   C114  1.284129 A    
C15   C152  1.399007 A    
C65   C69   1.387008 A    
C86   C120  1.458007 S    
C9    C101  1.401700 A    
C156  H76   1.109756 S    
H44   C126  1.083179 S    
C62   C66   1.400702 A    
C163  H102  1.110230 S    
Zn10  O46   2.017981 S    
C22   C26   1.535160 S    
N8    O56   1.301174 A    
N2    H65   1.030969 S    
C45   C49   1.540221 S    
N17   O66   1.301375 A    
C48   C52   1.540492 S    
C27   C31   1.540173 S    
O21   C109  1.272916 A    
N11   O61   1.301253 A    
N21   C161  1.444736 S    
C38   N26   1.457067 S    
N6    O52   1.301173 A    
C54   H18   1.083276 S    
N15   C159  1.446479 S    
O12   Zn2   2.018534 S    
C22   C50   1.523629 S    
C44   H12   1.110219 S    
O27   C111  1.272180 A    
C33   H5    1.110204 S    
O1    C1    1.282282 A    
C86   C90   1.411304 A    
C35   H7    1.110216 S    
C95   N15   1.425412 S    
C29   C33   1.541269 S    
C27   H3    1.110152 S    
C37   C49   1.520477 S    
C160  H90   1.110097 S    
C64   C68   1.400930 A    
O7    C3    1.282619 A    
C145  H57   1.083476 S    
N3    H69   1.030135 S    
O44   Zn11  2.014527 S    
C87   C121  1.459500 S    
C41   H9    1.110257 S    
N16   H89   1.030269 S    
C108  C138  1.443165 S    
C26   C30   1.539410 S    
N18   O68   1.301380 A    
C155  H72   1.110661 S    
C115  C123  1.401752 A    
C47   H15   1.110166 S    
C13   C123  1.386575 A    
C128  C150  1.453161 S    
C14   C151  1.399145 A    
C116  C126  1.401861 A    
C129  C139  1.395901 A    
C159  H87   1.109758 S    
C103  C152  1.451668 S    
C85   C89   1.412933 A    
C104  C151  1.451804 S    
C16   C126  1.386603 A    
C13   H37   1.083504 S    
C131  H47   1.083261 S    
C20   C104  1.399141 A    
C88   C92   1.411354 A    
C7    C51   1.437223 S    
C106  C143  1.399829 A    
C83   N7    1.435643 S    
O6    C2    1.282687 A    
C159  H88   1.110644 S    
N28   O80   1.300347 A    
C72   C76   1.396688 A    
N28   O79   1.300226 A    
O42   Zn9   2.014527 S    
C59   C63   1.400106 A    
C21   C33   1.538150 S    
N14   H81   1.030250 S    
C158  H84   1.110320 S    
C17   C103  1.399128 A    
O20   C108  1.279860 A    
C24   C36   1.538907 S    
C41   C45   1.552530 S    
N10   O60   1.300669 A    
O2    Zn1   2.015476 S    
C43   C47   1.552932 S    
O10   Zn1   2.018534 S    
C40   N28   1.456085 S    
O7    Zn4   2.014883 S    
C32   C36   1.541237 S    
H41   C123  1.083249 S    
C9    C17   1.386665 A    
N25   O74   1.300272 A    
C31   C111  1.433235 S    
C38   C50   1.523847 S    
Zn9   O45   2.017755 S    
C91   N11   1.435708 S    
C93   C97   1.408434 A    
C148  C150  1.401860 A    
C136  N20   1.440175 S    
O38   Zn10  2.017906 S    
C24   C28   1.534334 S    
C158  H82   1.110110 S    
O36   Zn12  2.017497 S    
C92   C96   1.400530 A    
N26   O75   1.300180 A    
C105  C141  1.403345 A    
N9    O57   1.301370 A    
C91   C95   1.401014 A    
C153  H63   1.109339 S    
C79   C83   1.401246 A    
C162  H99   1.111242 S    
C101  C113  1.451953 S    
O41   C119  1.284510 A    
C142  H54   1.082902 S    
C96   N16   1.425691 S    
C69   H29   1.083176 S    
O26   Zn5   2.020385 S    
C10   C101  1.401689 A    
C155  H70   1.110174 S    
C163  H103  1.111266 S    
C90   N10   1.435762 S    
C30   C110  1.433906 S    
C58   C62   1.400112 A    
C25   H1    1.110137 S    
Zn7   O31   2.017328 S    
C65   H25   1.083377 S    
O11   C7    1.275044 A    
C82   C86   1.413184 A    
C4    C64   1.446867 S    
O12   C8    1.275372 A    
O1    Zn1   2.016429 S    
N22   C162  1.444814 S    
O9    Zn1   2.018302 S    
C56   C76   1.396868 A    
C133  N17   1.438556 S    
C48   H16   1.110149 S    
C14   C124  1.386440 A    
C12   H36   1.083219 S    
N24   C164  1.444875 S    
C39   C43   1.535287 S    
N11   O62   1.300696 A    
O16   C8    1.272370 A    
O43   C121  1.284768 A    
O11   Zn2   2.018302 S    
N13   C157  1.447429 S    
C154  H66   1.110237 S    
C21   C49   1.522288 S    
C132  H48   1.083256 S    
C53   C57   1.385523 A    
N12   O63   1.301283 A    
C29   C109  1.435533 S    
O6    Zn3   2.015832 S    
C19   H51   1.083522 S    
C148  H60   1.083119 S    
C131  C135  1.391969 A    
C16   H40   1.083502 S    
N1    H61   1.030284 S    
C40   C52   1.520475 S    
C161  H95   1.111242 S    
O26   C110  1.273125 A    
Zn12  O48   2.017981 S    
C164  H106  1.110237 S    
C92   N12   1.435815 S    
C129  C133  1.390826 A    
N16   C160  1.446767 S    
C116  C118  1.452513 S    
N20   O72   1.301439 A    
C3    C63   1.444819 S    
O19   C108  1.279920 A    
C77   C81   1.400456 A    
O2    C2    1.282893 A    
C56   C60   1.386250 A    
H42   C124  1.083244 S    
N23   H101  1.031102 S    
C30   C34   1.539307 S    
C160  H92   1.110218 S    
C28   C32   1.540612 S    
O14   Zn3   2.018098 S    
C146  H58   1.083476 S    
C31   C43   1.536581 S    
C23   C35   1.539121 S    
C22   N22   1.446939 S    
C26   H2    1.110112 S    
O37   Zn9   2.017907 S    
O40   C122  1.283947 A    
C157  H80   1.109808 S    
C132  C136  1.392007 A    
C156  H75   1.109298 S    
O22   Zn6   2.016450 S    
C47   C51   1.541377 S    
O8    Zn4   2.015832 S    
C127  C149  1.447712 S    
C15   H39   1.083504 S    
C11   C19   1.386487 A    
C12   C20   1.386617 A    
O38   C120  1.284203 A    
O36   C118  1.284648 A    
C67   H27   1.083472 S    
C70   C74   1.396793 A    
N17   O65   1.300751 A    
C54   C58   1.386742 A    
C57   H21   1.082773 S    
C72   H32   1.082969 S    
C71   C75   1.397019 A    
