data_mof_unit_pretest_274.cif
_audit_creation_date              2012-12-10T17:09:56-0500
_audit_creation_method            fapswitch 2.2
_symmetry_space_group_name_H-M    P1
_symmetry_Int_Tables_number       1
_space_group_crystal_system       triclinic
_cell_length_a                    10.959069
_cell_length_b                    13.010339
_cell_length_c                    11.720198
_cell_angle_alpha                 99.822366
_cell_angle_beta                  92.659966
_cell_angle_gamma                 91.867946
_cell_volume                      1643.41621246

loop_
_atom_site_label
_atom_site_type_symbol
_atom_type_description
_atom_site_fract_x
_atom_site_fract_y
_atom_site_fract_z
_atom_type_partial_charge
C1    C     C_R   0.504077 0.299153 0.477871 0.905425
C2    C     C_R   0.532130 0.122675 0.354458 0.329099
C3    C     C_R   0.508610 0.138576 0.562150 -0.184459
C4    C     C_R   0.261646 0.497843 0.500611 0.837474
C5    C     C_R   0.506454 0.030850 0.552328 0.085426
C6    C     C_R   0.501707 0.967718 0.441379 -0.037879
C7    C     C_R   0.473260 0.860861 0.432829 0.185572
C8    C     C_R   0.506196 0.877437 0.641914 -0.180503
C9    C     C_R   0.507284 0.985324 0.652128 -0.096348
C10   C     C_R   0.422899 0.375080 0.022921 0.148585
C11   C     C_R   0.419327 0.394299 0.144665 0.098018
C12   C     C_R   0.065732 0.451443 0.590719 -0.092449
C13   C     C_R   0.542185 0.549077 0.156334 0.541418
C14   C     C_R   0.535964 0.539313 0.033850 -0.069489
C15   C     C_R   0.473544 0.452412 0.965614 -0.047527
C16   C     C_R   0.495477 0.700635 0.521190 0.854957
C17   C     C_R   0.467460 0.445086 0.842785 0.112481
C18   C     C_R   0.593901 0.598295 0.857322 0.337099
C19   C     C_R   0.597406 0.610894 0.977925 -0.219180
C20   C     C_R   0.736450 0.491992 0.498314 0.892702
C21   C     C_R   0.129972 0.415040 0.682178 0.119765
C22   C     C_R   0.071995 0.414707 0.785916 0.369933
C23   C     C_R   0.126364 0.488605 0.499810 -0.149216
C24   C     C_R   0.946168 0.400409 0.781387 -0.189879
C25   C     C_R   0.880757 0.400074 0.677087 0.352149
C26   C     C_R   0.936078 0.443693 0.587639 0.000481
C27   C     C_R   0.055165 0.516839 0.406666 0.381765
C28   C     C_R   0.928882 0.511081 0.406011 -0.181987
C29   C     C_R   0.868402 0.478241 0.496150 -0.131579
C30   C     C_R   0.490573 0.814236 0.532210 -0.121246
C31   C     C_R   0.513493 0.185285 0.463371 -0.145393
C32   C     C_R   0.527209 0.013440 0.343721 0.161957
Cl1   Cl    Cl    0.116312 0.567358 0.289806 -0.491604
Cl2   Cl    Cl    0.570559 0.178173 0.232173 -0.534978
Cl3   Cl    Cl    0.647728 0.641446 0.238419 -0.569635
Cl4   Cl    Cl    0.153587 0.410814 0.916415 -0.541572
Cl5   Cl    Cl    0.752983 0.313273 0.652000 -0.604745
Cu1   Cu    Cu3+1 0.509250 0.507730 0.615930 1.028627
Cu2   Cu    Cu3+1 0.490750 0.492270 0.384070 1.087643
H1    H     H_    0.513501 0.033042 0.737721 0.181623
H2    H     H_    0.504260 0.185979 0.647364 0.208415
H3    H     H_    0.418778 0.380084 0.789271 0.173683
H4    H     H_    0.651396 0.676196 0.026631 0.225461
H5    H     H_    0.376905 0.336262 0.187611 0.186345
H6    H     H_    0.901614 0.377608 0.854368 0.218530
H7    H     H_    0.877371 0.537507 0.336047 0.228807
H8    H     H_    0.513796 0.843714 0.720053 0.197692
I1    I     I_    0.718094 0.700565 0.792739 -0.255278
I2    I     I_    0.369483 0.221969 0.936014 -0.193373
I3    I     I_    0.226741 0.277914 0.629880 -0.289217
I4    I     I_    0.346075 0.788254 0.295169 -0.122289
I5    I     I_    0.592599 0.922220 0.189705 -0.106528
N1    N     N_R   0.523180 0.519350 0.790130 -0.207328
N2    N     N_R   0.476820 0.480650 0.209890 -0.233244
O1    O     O_R   0.506570 0.354460 0.582000 -0.565965
O2    O     O_R   0.490940 0.341410 0.386200 -0.567138
O3    O     O_R   0.327470 0.506530 0.597920 -0.584435
O4    O     O_R   0.311840 0.493480 0.402120 -0.534694
O5    O     O_R   0.509060 0.658590 0.613800 -0.586750
O6    O     O_R   0.493430 0.645540 0.418000 -0.517474
O7    O     O_R   0.688160 0.506520 0.597880 -0.548655
O8    O     O_R   0.672530 0.493470 0.402080 -0.549093

loop_
_geom_bond_atom_site_label_1
_geom_bond_atom_site_label_2
_ccdc_geom_bond_type
C4    O3    A    
C8    C9    A    
C6    C32   A    
C5    C9    A    
C6    C7    A    
C23   C27   A    
Cu1   O3    S    
C22   Cl4   S    
C13   N2    A    
Cu2   O2    S    
C10   C15   A    
Cu1   O7    S    
C8    C30   A    
C2    Cl2   S    
C1    O1    A    
C8    H8    S    
C7    I4    S    
C11   H5    S    
C7    C30   A    
C21   C22   A    
C27   Cl1   S    
C3    C31   A    
C20   O7    A    
C11   N2    A    
C12   C23   A    
C28   H7    S    
Cu1   Cu2   S    
Cu1   N1    S    
Cu2   O6    S    
Cu2   O4    S    
C28   C29   A    
C25   C26   A    
C1    O2    A    
C19   H4    S    
C13   Cl3   S    
C21   I3    S    
C20   C29   S    
C20   O8    A    
C5    C6    A    
C13   C14   A    
C22   C24   A    
Cu2   N2    S    
C10   C11   A    
C24   H6    S    
C16   C30   S    
Cu1   O5    S    
C12   C21   A    
C17   N1    A    
C1    C31   S    
C24   C25   A    
C26   C29   A    
C2    C32   A    
C18   C19   A    
C16   O6    A    
C4    O4    A    
C27   C28   A    
C15   C17   A    
Cu2   O8    S    
C17   H3    S    
C32   I5    S    
C18   N1    A    
C25   Cl5   S    
C4    C23   S    
C14   C15   A    
C10   I2    S    
C14   C19   A    
C9    H1    S    
C3    H2    S    
Cu1   O1    S    
C12   C26   A    
C2    C31   A    
C3    C5    A    
C16   O5    A    
C18   I1    S    
