data_mof_unit_pretest_1378.cif
_audit_creation_date              2012-12-11T16:28:26-0500
_audit_creation_method            fapswitch 2.2
_symmetry_space_group_name_H-M    P1
_symmetry_Int_Tables_number       1
_space_group_crystal_system       triclinic
_cell_length_a                    16.629469
_cell_length_b                    7.246045
_cell_length_c                    15.195228
_cell_angle_alpha                 89.997611
_cell_angle_beta                  94.314128
_cell_angle_gamma                 89.99683
_cell_volume                      1825.80485848

loop_
_atom_site_label
_atom_site_type_symbol
_atom_type_description
_atom_site_fract_x
_atom_site_fract_y
_atom_site_fract_z
_atom_type_partial_charge
O1    O     O_R   0.663460 0.361760 0.165970 -0.555096
O2    O     O_R   0.336540 0.638240 0.834030 -0.552349
O3    O     O_R   0.836540 0.861760 0.334030 -0.554508
O4    O     O_R   0.163460 0.138240 0.665970 -0.553465
O5    O     O_R   0.827100 0.689870 0.163730 -0.520748
O6    O     O_R   0.172900 0.310130 0.836270 -0.533822
O7    O     O_R   0.672900 0.189870 0.336270 -0.527905
O8    O     O_R   0.327100 0.810130 0.663730 -0.527194
C1    C     C_R   0.853566 0.523060 0.143917 0.758484
C2    C     C_R   0.146480 0.477105 0.856136 0.761749
C3    C     C_R   0.646616 0.022946 0.356300 0.760792
C4    C     C_R   0.353678 0.976991 0.644054 0.760112
O9    O     O_R   0.663490 0.691370 0.155500 -0.497001
O10   O     O_R   0.336510 0.308630 0.844500 -0.498331
O11   O     O_R   0.836510 0.191370 0.344500 -0.498258
O12   O     O_R   0.163490 0.808630 0.655500 -0.497288
O13   O     O_R   0.671770 0.863320 0.325740 -0.495328
O14   O     O_R   0.328230 0.136680 0.674260 -0.492463
O15   O     O_R   0.828230 0.363320 0.174260 -0.500606
O16   O     O_R   0.171770 0.636680 0.825740 -0.487494
C5    C     C_R   0.636895 0.523852 0.132346 0.820754
C6    C     C_R   0.363391 0.476116 0.867268 0.830078
C7    C     C_R   0.863241 0.023819 0.367450 0.822318
C8    C     C_R   0.136772 0.976102 0.632501 0.828773
O17   O     O_3   0.752910 0.528800 0.305860 -0.371469
O18   O     O_3   0.247090 0.471200 0.694140 -0.371176
O19   O     O_3   0.747090 0.028800 0.194140 -0.371372
O20   O     O_3   0.252910 0.971200 0.805860 -0.370809
V1    V     V_3+5 0.749460 0.803010 0.239640 1.652240
V2    V     V_3+5 0.250540 0.196990 0.760360 1.639209
V3    V     V_3+5 0.750540 0.303010 0.260360 1.637248
V4    V     V_3+5 0.249460 0.696990 0.739640 1.653156
C9    C     C_1   0.469680 0.994810 0.531126 0.074593
C10   C     C_1   0.531975 0.005300 0.470870 0.035950
C11   C     C_1   0.031227 0.495884 0.969937 0.062511
C12   C     C_1   0.968942 0.506384 0.030205 0.049639
C13   C     C_R   0.024387 0.929110 0.319385 0.406332
C14   C     C_R   0.975220 0.066662 0.680718 0.290479
C15   C     C_R   0.475682 0.430366 0.180387 0.332188
C16   C     C_R   0.525100 0.566106 0.818933 0.360068
C17   C     C_R   0.083887 0.804768 0.297579 0.120993
C18   C     C_R   0.915246 0.191056 0.702782 0.117890
C19   C     C_R   0.415654 0.305788 0.202057 0.132860
C20   C     C_R   0.584852 0.689295 0.796505 0.111902
C21   C     C_R   0.145122 0.756869 0.361587 0.107381
C22   C     C_R   0.854113 0.237856 0.638929 0.145671
C23   C     C_R   0.354092 0.261325 0.138279 0.162003
C24   C     C_R   0.645560 0.739921 0.860600 0.090397
C25   C     C_R   0.145368 0.832725 0.446786 0.162343
C26   C     C_R   0.854189 0.163888 0.553451 0.134749
C27   C     C_R   0.354074 0.337014 0.053156 0.137001
C28   C     C_R   0.645459 0.666831 0.946337 0.160857
C29   C     C_R   0.074654 0.922451 0.475169 -0.025205
C30   C     C_R   0.925183 0.075875 0.524868 -0.017358
C31   C     C_R   0.425277 0.424129 0.024615 -0.017664
C32   C     C_R   0.574848 0.576850 0.974837 -0.023120
C33   C     C_R   0.009817 0.956935 0.409923 -0.151494
C34   C     C_R   0.990037 0.041435 0.590081 -0.139544
C35   C     C_R   0.490270 0.457556 0.089794 -0.113553
C36   C     C_R   0.510168 0.541263 0.909562 -0.175338
C37   C     C_R   0.066371 0.978295 0.564766 -0.073618
C38   C     C_R   0.933615 0.021145 0.435161 -0.073048
C39   C     C_R   0.433790 0.478543 0.934918 -0.076308
C40   C     C_R   0.566525 0.521458 0.064533 -0.070383
C41   C     C_1   0.416696 0.986102 0.582317 -0.066468
C42   C     C_1   0.584456 0.013743 0.419054 -0.104352
C43   C     C_1   0.083952 0.486756 0.918442 -0.089207
C44   C     C_1   0.916215 0.514401 0.081730 -0.081630
N1    N     N_3   0.218634 0.819378 0.502066 -0.665876
H1    H     H_    0.264584 0.883587 0.469996 0.230004
H2    H     H_    0.233447 0.679935 0.510831 0.273427
N2    N     N_3   0.781037 0.177770 0.498042 -0.664371
H3    H     H_    0.766058 0.317269 0.489915 0.274224
H4    H     H_    0.735120 0.112516 0.529727 0.231621
N3    N     N_3   0.280618 0.325935 0.998087 -0.668045
H5    H     H_    0.264916 0.186960 0.989450 0.273276
H6    H     H_    0.235192 0.391729 0.030342 0.224672
N4    N     N_3   0.718265 0.683597 0.002131 -0.661878
H7    H     H_    0.732304 0.823629 0.010045 0.274345
H8    H     H_    0.764805 0.619542 0.970967 0.236944
N5    N     N_3   0.084866 0.739915 0.208377 -0.586086
H9    H     H_    0.082143 0.595804 0.208754 0.243401
H10   H     H_    0.138895 0.780023 0.183028 0.257016
N6    N     N_3   0.911671 0.259699 0.791195 -0.630253
H11   H     H_    0.967150 0.241897 0.827157 0.278266
H12   H     H_    0.868397 0.183554 0.822024 0.271100
N7    N     N_3   0.412687 0.233934 0.290000 -0.625669
H13   H     H_    0.368043 0.305139 0.321026 0.268009
H14   H     H_    0.467595 0.255103 0.326597 0.276002
N8    N     N_3   0.586632 0.750183 0.706750 -0.579643
H15   H     H_    0.584267 0.894306 0.705610 0.235576
H16   H     H_    0.640754 0.707857 0.682311 0.255614
N9    N     N_3   0.787602 0.350056 0.661745 -0.641790
H17   H     H_    0.758805 0.284078 0.711889 0.255080
H18   H     H_    0.810277 0.476250 0.686028 0.254113
N10   N     N_3   0.211516 0.643461 0.339465 -0.650255
H19   H     H_    0.241280 0.708362 0.289780 0.255903
H20   H     H_    0.189054 0.516694 0.315786 0.246879
N11   N     N_3   0.711826 0.853375 0.838151 -0.650325
H21   H     H_    0.689164 0.979225 0.813500 0.230475
H22   H     H_    0.742048 0.787409 0.789125 0.253812
N12   N     N_3   0.287339 0.149621 0.160833 -0.640484
H23   H     H_    0.309686 0.022690 0.184537 0.271951
H24   H     H_    0.258813 0.215150 0.211299 0.254742
S1    S     S_3+6 0.994906 0.094643 0.236826 -0.018923
O21   O     O_2   0.921072 0.028102 0.183178 -0.337729
O22   O     O_2   0.978746 0.277779 0.278423 -0.370769
O23   O     O_3   0.069853 0.123184 0.169542 -0.501492
H25   H     H_    0.044668 0.186498 0.116712 0.357462
S2    S     S_3+6 0.004384 0.895678 0.761051 -0.030780
O24   O     O_2   0.078601 0.958600 0.815071 -0.327402
O25   O     O_2   0.938464 0.865672 0.822051 -0.342504
O26   O     O_3   0.022056 0.693292 0.711814 -0.508224
H26   H     H_    0.969501 0.656867 0.681811 0.327006
S3    S     S_3+6 0.504200 0.599931 0.261499 -0.042238
O27   O     O_2   0.577841 0.535862 0.316320 -0.356206
O28   O     O_2   0.520528 0.781364 0.218359 -0.346322
O29   O     O_3   0.428711 0.631553 0.327759 -0.514937
H27   H     H_    0.454297 0.688049 0.382190 0.364260
S4    S     S_3+6 0.494744 0.398522 0.737528 -0.005041
O30   O     O_2   0.420315 0.464013 0.684709 -0.313055
O31   O     O_2   0.560049 0.370114 0.675568 -0.330783
O32   O     O_3   0.477117 0.194796 0.785528 -0.521347
H28   H     H_    0.529352 0.159255 0.816546 0.311497

loop_
_geom_bond_atom_site_label_1
_geom_bond_atom_site_label_2
_ccdc_geom_bond_type
O17   V3    S    
N7    H13   S    
O1    C5    A    
N9    H17   S    
C16   C36   A    
C31   C35   A    
O19   V1    S    
O13   V1    S    
S1    O21   D    
O3    C7    A    
C11   C12   S    
O15   V3    S    
C10   C42   T    
N5    H9    S    
C9    C41   T    
O32   H28   S    
C2    C43   S    
O18   V4    S    
S1    O22   D    
C35   C40   A    
C8    C37   S    
C36   C39   A    
O9    V1    S    
C27   N3    S    
C14   C18   A    
C30   C34   A    
O4    C8    A    
N4    H8    S    
S3    O27   D    
O1    V3    S    
O23   H25   S    
O2    V4    S    
C18   C22   A    
O3    V1    S    
C26   N2    S    
S2    O24   D    
C5    C40   S    
C6    C39   S    
O29   H27   S    
C29   C37   A    
C1    O15   A    
C7    C38   S    
C2    O16   A    
S3    O28   D    
C31   C39   A    
O2    C6    A    
C32   C40   A    
O14   V2    S    
C11   C43   T    
C14   S2    S    
C16   C20   A    
S4    O32   S    
C34   C37   A    
O11   C7    A    
C15   C35   A    
O12   C8    A    
C23   N12   S    
C25   N1    S    
N12   H23   S    
O10   V2    S    
C28   N4    S    
N5    H10   S    
S4    O31   D    
O5    V1    S    
S1    O23   S    
O7    V3    S    
O8    V4    S    
C33   C38   A    
C18   N6    S    
N6    H11   S    
N2    H4    S    
C29   C33   A    
N4    H7    S    
C15   C19   A    
C30   C38   A    
C13   S1    S    
O6    V2    S    
O4    V2    S    
C32   C36   A    
N10   H20   S    
O7    C3    A    
N3    H5    S    
O5    C1    A    
N8    H16   S    
N11   H21   S    
C21   C25   A    
O8    C4    A    
S3    O29   S    
C17   N5    S    
N10   H19   S    
C9    C10   S    
O9    C5    A    
C14   C34   A    
N12   H24   S    
N3    H6    S    
S2    O26   S    
N11   H22   S    
C15   S3    S    
N7    H14   S    
C20   N8    S    
S4    O30   D    
O26   H26   S    
O16   V4    S    
C24   N11   S    
C3    O13   A    
C16   S4    S    
N6    H12   S    
N2    H3    S    
O6    C2    A    
C23   C27   A    
C12   C44   T    
O11   V3    S    
O12   V4    S    
C4    C41   S    
C22   C26   A    
N1    H2    S    
C19   N7    S    
O10   C6    A    
O20   V2    S    
C1    C44   S    
C26   C30   A    
N8    H15   S    
C22   N9    S    
C25   C29   A    
C27   C31   A    
C13   C17   A    
N1    H1    S    
S2    O25   D    
C28   C32   A    
C24   C28   A    
N9    H18   S    
C4    O14   A    
C17   C21   A    
C21   N10   S    
C19   C23   A    
C13   C33   A    
C20   C24   A    
C3    C42   S    
