data_mof_unit_pretest_1168.cif
_audit_creation_date              2012-12-10T18:58:47-0500
_audit_creation_method            fapswitch 2.2
_symmetry_space_group_name_H-M    P1
_symmetry_Int_Tables_number       1
_space_group_crystal_system       triclinic
_cell_length_a                    12.953682
_cell_length_b                    10.826237
_cell_length_c                    9.543305
_cell_angle_alpha                 90.176719
_cell_angle_beta                  96.146752
_cell_angle_gamma                 90.247441
_cell_volume                      1330.63439963

loop_
_atom_site_label
_atom_site_type_symbol
_atom_type_description
_atom_site_fract_x
_atom_site_fract_y
_atom_site_fract_z
_atom_type_partial_charge
C1    C     C_R   0.497831 0.262322 0.499474 0.787948
C2    C     C_R   0.027139 0.456439 0.553011 0.120388
C3    C     C_R   0.973352 0.529202 0.447053 0.175143
C4    C     C_R   0.866744 0.542870 0.444180 -0.294467
C5    C     C_R   0.864489 0.401265 0.643795 0.133874
C6    C     C_R   0.973180 0.393748 0.650461 -0.197085
C7    C     C_R   0.481971 0.064020 0.622266 0.119471
C8    C     C_R   0.487067 0.129242 0.497238 -0.095255
C9    C     C_R   0.477406 0.063948 0.368866 -0.217497
C10   C     C_R   0.477794 0.935168 0.369064 -0.222538
C11   C     C_R   0.487940 0.870830 0.497641 -0.099547
C12   C     C_R   0.300666 0.500947 0.473725 0.797899
C13   C     C_R   0.482808 0.936854 0.622474 0.135424
C14   C     C_3   0.551473 0.931987 0.758353 -0.477938
C15   C     C_3   0.549648 0.072092 0.758880 -0.467059
C16   C     C_R   0.545821 0.594432 0.080668 0.260247
C17   C     C_R   0.446239 0.413399 0.066303 -0.080449
C18   C     C_R   0.446291 0.413329 0.917412 -0.081192
C19   C     C_R   0.545610 0.594677 0.933266 0.259548
C20   C     C_3   0.656936 0.633038 0.944133 -0.505961
C21   C     C_3   0.657151 0.632023 0.103014 -0.513223
C22   C     C_R   0.498293 0.737730 0.499773 0.802179
C23   C     C_R   0.699322 0.494527 0.526421 0.799237
C24   C     C_R   0.812049 0.480836 0.541614 -0.110603
C25   C     C_R   0.188149 0.505710 0.459108 -0.039012
C26   C     C_R   0.027156 0.587091 0.345451 -0.199591
C27   C     C_R   0.134353 0.574187 0.350593 -0.199588
C28   C     C_R   0.134571 0.446474 0.559398 -0.253779
Cu1   Cu    Cu3+1 0.499990 0.499980 0.640670 0.933364
Cu2   Cu    Cu3+1 0.500010 0.500020 0.359330 0.938385
H1    H     H_    0.825868 0.601855 0.365268 0.147195
H2    H     H_    0.629398 0.893869 0.745123 0.193021
H3    H     H_    0.507981 0.111444 0.844568 0.192824
H4    H     H_    0.626577 0.114439 0.747864 0.201531
H5    H     H_    0.404288 0.341961 0.115752 0.135430
H6    H     H_    0.404371 0.341837 0.855310 0.135714
H7    H     H_    0.667704 0.725233 0.151756 0.191519
H8    H     H_    0.986517 0.642422 0.262809 0.136399
H9    H     H_    0.016801 0.337476 0.729158 0.148611
H10   H     H_    0.175577 0.620804 0.272944 0.150454
H11   H     H_    0.176700 0.392277 0.642054 0.137796
H12   H     H_    0.474850 0.111659 0.268964 0.160192
H13   H     H_    0.511728 0.890300 0.844522 0.195868
N1    N     N_R   0.500660 0.500930 0.148010 -0.183990
N2    N     N_R   0.500660 0.500890 0.852110 -0.184773
O1    O     O_R   0.500000 0.319640 0.618810 -0.588684
O2    O     O_R   0.500010 0.319680 0.381230 -0.586534
O3    O     O_R   0.348990 0.499960 0.599490 -0.580449
O4    O     O_R   0.349000 0.500000 0.361910 -0.584750
O5    O     O_R   0.499990 0.680320 0.618770 -0.574367
O6    O     O_R   0.500000 0.680360 0.381190 -0.587148
O7    O     O_R   0.651000 0.500000 0.638090 -0.593407
O8    O     O_R   0.651010 0.500040 0.400510 -0.574595
H14   H     H_    0.708083 0.561672 0.905372 0.212114
H15   H     H_    0.667523 0.726867 0.901592 0.190361
H16   H     H_    0.707730 0.558782 0.154044 0.220311
C29   C     C_3   0.803453 0.321861 0.738376 -0.360387
C30   C     C_3   0.864111 0.218737 0.819223 -0.886690
H17   H     H_    0.901564 0.157997 0.745625 0.257130
H18   H     H_    0.923400 0.258097 0.899942 0.252510
H19   H     H_    0.809960 0.161586 0.874725 0.245627
H20   H     H_    0.770318 0.381779 0.816346 0.214141
H21   H     H_    0.738290 0.276910 0.671624 0.196179
H22   H     H_    0.475391 0.886800 0.269227 0.162526

loop_
_geom_bond_atom_site_label_1
_geom_bond_atom_site_label_2
_ccdc_geom_bond_type
C17   C18   A    
C8    C9    A    
C21   H16   S    
C23   C24   S    
C19   N2    A    
C16   C21   S    
C29   H21   S    
Cu1   Cu2   S    
C25   C27   A    
C1    C8    S    
C17   H5    S    
C9    C10   A    
C16   N1    A    
C15   H4    S    
C19   C20   S    
Cu2   O4    S    
C5    C29   S    
Cu1   O1    S    
C22   O5    A    
C30   H19   S    
C7    C15   S    
C12   O4    A    
C23   O7    A    
C17   N1    A    
C7    C8    A    
C13   C14   S    
C25   C28   A    
C11   C13   A    
Cu2   N1    S    
C29   C30   S    
C2    C6    A    
C5    C24   A    
C20   H15   S    
C9    H12   S    
C12   O3    A    
C23   O8    A    
C2    C3    A    
Cu1   O5    S    
C16   C19   A    
C26   C27   A    
C5    C6    A    
C4    C24   A    
Cu2   O8    S    
C10   H22   S    
C1    O1    A    
C22   O6    A    
C4    H1    S    
C10   C11   A    
C12   C25   S    
C30   H18   S    
C3    C4    A    
Cu2   O6    S    
C18   N2    A    
Cu2   O2    S    
Cu1   O3    S    
C21   H7    S    
C20   C21   S    
C20   H14   S    
C14   H2    S    
C14   C15   S    
C1    O2    A    
C2    C28   A    
C7    C13   A    
C11   C22   S    
C27   H10   S    
C29   H20   S    
C30   H17   S    
C6    H9    S    
C18   H6    S    
C15   H3    S    
C3    C26   A    
C26   H8    S    
C28   H11   S    
Cu1   N2    S    
C14   H13   S    
Cu1   O7    S    
