data_mof_unit_pretest_1016.cif
_audit_creation_date              2012-12-10T18:07:36-0500
_audit_creation_method            fapswitch 2.2
_symmetry_space_group_name_H-M    P1
_symmetry_Int_Tables_number       1
_space_group_crystal_system       triclinic
_cell_length_a                    11.502816
_cell_length_b                    12.653002
_cell_length_c                    13.228631
_cell_angle_alpha                 83.77853
_cell_angle_beta                  89.979048
_cell_angle_gamma                 101.259832
_cell_volume                      1876.72444062

loop_
_atom_site_label
_atom_site_type_symbol
_atom_type_description
_atom_site_fract_x
_atom_site_fract_y
_atom_site_fract_z
_atom_type_partial_charge
C1    C     C_R   0.480400 0.440364 0.690764 0.873950
C2    C     C_R   0.499653 0.593899 0.202826 -0.041183
C3    C     C_R   0.477040 0.299929 0.835901 -0.192353
C4    C     C_R   0.475864 0.267489 0.940005 0.225038
C5    C     C_R   0.467731 0.343175 0.007766 -0.231896
C6    C     C_R   0.455221 0.450238 0.972335 0.053915
C7    C     C_R   0.436048 0.475658 0.868551 0.039241
C8    C     C_R   0.460798 0.532506 0.037213 0.071579
C9    C     C_R   0.425905 0.632148 0.003201 0.102269
C10   C     C_R   0.387692 0.650238 0.902644 0.129649
C11   C     C_R   0.392796 0.570966 0.836788 -0.164934
C12   C     C_R   0.717453 0.499981 0.500141 0.919216
C13   C     C_R   0.504696 0.519006 0.134840 -0.248167
C14   C     C_R   0.464196 0.691162 0.171129 -0.188086
C15   C     C_R   0.460457 0.404247 0.799484 -0.150260
C16   C     C_R   0.374554 0.093584 0.327123 -0.322678
C17   C     C_R   0.646982 0.799669 0.622656 0.772650
C18   C     C_R   0.689421 0.905722 0.642980 -0.359326
C19   C     C_R   0.642948 0.989818 0.592516 -0.219266
C20   C     C_R   0.549752 0.967477 0.524322 0.038399
C21   C     C_R   0.505541 0.857293 0.509209 0.037751
C22   C     C_R   0.498502 0.048851 0.468383 -0.113264
C23   C     C_R   0.511568 0.559776 0.309533 0.835831
C24   C     C_R   0.431586 0.019920 0.381936 0.047675
C25   C     C_R   0.403596 0.911951 0.362145 -0.222461
C26   C     C_R   0.408986 0.834682 0.443912 0.200335
C27   C     C_R   0.503266 0.154300 0.496622 0.654557
C28   C     C_R   0.373908 0.192913 0.362157 0.214719
C29   C     C_R   0.282514 0.499773 0.500352 0.865615
C30   C     C_1   0.838143 0.499878 0.500555 -0.159502
C31   C     C_1   0.940524 0.499655 0.500860 0.010033
C32   C     C_1   0.059343 0.499352 0.500999 -0.002374
C33   C     C_1   0.161739 0.499300 0.500845 -0.202160
C34   C     C_R   0.429186 0.711005 0.071770 -0.209846
H1    H     H_    0.459104 0.749908 0.223904 0.156213
H2    H     H_    0.341294 0.890093 0.302678 0.137381
H3    H     H_    0.321325 0.070203 0.262448 0.165191
H4    H     H_    0.685298 0.071133 0.604427 0.237674
H5    H     H_    0.761251 0.923153 0.695269 0.185221
H6    H     H_    0.401683 0.787226 0.051196 0.127067
H7    H     H_    0.542463 0.449449 0.160694 0.152904
H8    H     H_    0.493157 0.243967 0.783453 0.202794
H9    H     H_    0.467365 0.315496 0.087854 0.122979
H10   H     H_    0.359308 0.581661 0.761105 0.172792
N1    N     N_R   0.440320 0.222190 0.444690 -0.158894
N2    N     N_R   0.559060 0.776980 0.554780 -0.195580
O1    O     O_R   0.471500 0.366730 0.627160 -0.562445
O2    O     O_R   0.509620 0.544830 0.662520 -0.570852
O3    O     O_R   0.646490 0.410960 0.482310 -0.575307
O4    O     O_R   0.684610 0.589050 0.517670 -0.556242
O5    O     O_R   0.490380 0.455170 0.337480 -0.652284
O6    O     O_R   0.528500 0.633270 0.372840 -0.618810
O7    O     O_R   0.315390 0.410950 0.482330 -0.617958
O8    O     O_R   0.353510 0.589040 0.517690 -0.655787
Zn1   Zn    Zn3+2 0.474550 0.381080 0.476390 0.984179
Zn2   Zn    Zn3+2 0.525450 0.618920 0.523610 0.979026
F1    F     F_    0.562098 0.188420 0.579348 -0.684620
F2    F     F_    0.696352 0.719112 0.669444 -0.644663
C35   C     C_3   0.287247 0.781246 0.488831 -0.367355
C36   C     C_3   0.208527 0.861915 0.509370 -0.891555
H11   H     H_    0.126823 0.817932 0.551651 0.263108
H12   H     H_    0.181486 0.902587 0.437041 0.267021
H13   H     H_    0.256033 0.924029 0.555966 0.267068
H14   H     H_    0.240320 0.725501 0.436102 0.212842
H15   H     H_    0.295482 0.736307 0.563456 0.239209
C37   C     C_3   0.345116 0.755176 0.868015 -0.413764
C38   C     C_3   0.311762 0.771545 0.757187 -0.874582
H16   H     H_    0.390278 0.772125 0.708381 0.261716
H17   H     H_    0.236121 0.707141 0.740303 0.258990
H18   H     H_    0.284686 0.851168 0.741265 0.260143
H19   H     H_    0.266663 0.759228 0.915478 0.210339
H20   H     H_    0.417099 0.824967 0.880112 0.216606
C39   C     C_3   0.490005 0.154015 0.978448 -0.419349
C40   C     C_3   0.380333 0.070478 0.957353 -0.865362
H21   H     H_    0.300559 0.088520 0.993981 0.261798
H22   H     H_    0.366749 0.070532 0.874220 0.266471
H23   H     H_    0.392030 0.988405 0.989033 0.238573
H24   H     H_    0.569046 0.135452 0.941002 0.213999
H25   H     H_    0.504768 0.146545 0.061782 0.203854
C41   C     C_3   0.292315 0.260554 0.309451 -0.359468
C42   C     C_3   0.163011 0.212996 0.339749 -0.866764
H26   H     H_    0.150062 0.209966 0.423334 0.273978
H27   H     H_    0.104963 0.264811 0.301296 0.250689
H28   H     H_    0.136252 0.129937 0.316863 0.253093
H29   H     H_    0.310477 0.344565 0.326181 0.265174
H30   H     H_    0.303700 0.263638 0.225645 0.178881

loop_
_geom_bond_atom_site_label_1
_geom_bond_atom_site_label_2
_ccdc_geom_bond_type
C16   C28   A    
C21   C26   A    
C3    H8    S    
C8    C13   A    
C39   C40   S    
C19   C20   A    
C13   H7    S    
C12   O3    A    
C7    C11   A    
C35   H14   S    
C40   H22   S    
C36   H13   S    
C34   H6    S    
C5    C6    A    
C29   O8    A    
C29   C33   S    
C36   H12   S    
C18   C19   A    
C2    C13   A    
C41   H30   S    
C37   H20   S    
C31   C32   S    
C8    C9    A    
C40   H23   S    
C39   H24   S    
C1    C15   S    
C9    C10   A    
C17   F2    S    
C27   N1    A    
O7    Zn1   S    
C37   C38   S    
C5    H9    S    
C35   C36   S    
C16   C24   A    
C2    C14   A    
C42   H27   S    
C42   H26   S    
C10   C37   S    
O8    Zn2   S    
C28   N1    A    
C40   H21   S    
C38   H16   S    
C24   C25   A    
C27   F1    S    
C14   H1    S    
C1    O1    A    
C6    C8    A    
C25   C26   A    
O3    Zn1   S    
O4    Zn2   S    
C36   H11   S    
C38   H17   S    
C18   H5    S    
C41   H29   S    
C19   H4    S    
C23   O5    A    
C37   H19   S    
C17   C18   A    
C39   H25   S    
C11   H10   S    
C17   N2    A    
C4    C39   S    
C20   C22   A    
C22   C27   A    
C9    C34   A    
C22   C24   A    
C3    C4    A    
C42   H28   S    
C3    C15   A    
O1    Zn1   S    
C21   N2    A    
C26   C35   S    
O2    Zn2   S    
C12   C30   S    
C41   C42   S    
C14   C34   A    
C12   O4    A    
C1    O2    A    
C6    C7    A    
C16   H3    S    
C38   H18   S    
C32   C33   T    
C35   H15   S    
C23   O6    A    
C30   C31   T    
C29   O7    A    
C7    C15   A    
O5    Zn1   S    
C28   C41   S    
C10   C11   A    
C25   H2    S    
C4    C5    A    
C20   C21   A    
N1    Zn1   S    
N2    Zn2   S    
C2    C23   S    
O6    Zn2   S    
