data_mof_unit_pretest_264.cif
_audit_creation_date              2012-12-10T17:49:34-0500
_audit_creation_method            fapswitch 2.2
_symmetry_space_group_name_H-M    P1
_symmetry_Int_Tables_number       1
_space_group_crystal_system       triclinic
_cell_length_a                    14.741002
_cell_length_b                    14.867253
_cell_length_c                    15.865469
_cell_angle_alpha                 75.79355
_cell_angle_beta                  102.671063
_cell_angle_gamma                 115.794576
_cell_volume                      3009.51133753

loop_
_atom_site_label
_atom_site_type_symbol
_atom_type_description
_atom_site_fract_x
_atom_site_fract_y
_atom_site_fract_z
_atom_type_partial_charge
C1    C     C_R   0.880026 0.312573 0.515692 0.781389
C2    C     C_3   0.087192 0.478651 0.071891 -0.391781
C3    C     C_3   0.998959 0.504253 0.081752 0.272130
C4    C     C_3   0.013984 0.611350 0.025698 -0.038834
C5    C     C_3   0.014322 0.609312 0.927737 -0.381122
C6    C     C_1   0.000059 0.502184 0.174750 -0.110823
C7    C     C_1   0.999854 0.501787 0.824514 -0.096990
C8    C     C_1   0.999891 0.500793 0.749135 -0.167224
C9    C     C_R   0.811314 0.206254 0.538052 -0.053026
C10   C     C_R   0.186637 0.795779 0.470420 -0.091291
C11   C     C_R   0.766810 0.048724 0.640279 -0.180627
C12   C     C_R   0.999842 0.499949 0.659575 0.820132
C13   C     C_R   0.840059 0.141744 0.607873 -0.172063
C14   C     C_R   0.710486 0.175047 0.499144 -0.254600
C15   C     C_R   0.633282 0.089649 0.538140 0.090885
C16   C     C_R   0.663837 0.022653 0.606506 0.158470
C17   C     C_R   0.527540 0.066121 0.508956 0.005866
C18   C     C_R   0.457249 0.964843 0.535746 0.052663
C19   C     C_R   0.490796 0.900703 0.604525 -0.157739
C20   C     C_R   0.591724 0.930299 0.640397 -0.212784
C21   C     C_R   0.486973 0.138219 0.458475 0.113803
C22   C     C_R   0.383654 0.103606 0.425384 -0.191344
C23   C     C_R   0.119843 0.687546 0.484225 0.813217
C24   C     C_R   0.318506 0.001223 0.437542 0.037083
C25   C     C_R   0.354653 0.931036 0.495073 0.076849
C26   C     C_R   0.215826 0.968075 0.397306 0.007020
C27   C     C_R   0.150673 0.865940 0.416303 -0.224322
C28   C     C_R   0.287502 0.828115 0.508626 -0.213757
C29   C     C_R   0.695196 0.622221 0.323766 0.005206
C30   C     C_R   0.786718 0.614442 0.362571 0.065186
C31   C     C_R   0.718201 0.517299 0.493316 0.010554
C32   C     C_R   0.624241 0.526328 0.462036 -0.064742
C33   C     C_R   0.613590 0.583353 0.375889 0.039028
C34   C     C_R   0.000141 0.500135 0.340447 0.848179
C35   C     C_R   0.539930 0.477461 0.512347 0.096130
C36   C     C_R   0.448933 0.491941 0.479080 0.081346
C37   C     C_R   0.437922 0.539130 0.391788 -0.272435
C38   C     C_R   0.519453 0.592117 0.343759 -0.000694
C39   C     C_R   0.540430 0.409646 0.592228 -0.251887
C40   C     C_R   0.454640 0.358409 0.636056 -0.153135
C41   C     C_R   0.368346 0.381045 0.608359 0.070669
C42   C     C_R   0.368314 0.454259 0.532218 -0.065782
C43   C     C_R   0.281839 0.332788 0.653974 -0.105064
C44   C     C_R   0.198997 0.360215 0.622923 0.006796
C45   C     C_3   0.087062 0.477163 0.974675 -0.382179
C46   C     C_R   0.289675 0.490491 0.514071 0.105884
C47   C     C_3   0.897374 0.424170 0.947797 -0.375900
C48   C     C_3   0.897927 0.422840 0.045814 -0.377818
C49   C     C_1   0.000517 0.500911 0.250696 -0.151647
C50   C     C_3   0.999717 0.503062 0.916430 0.286724
Cu1   Cu    Cu3+1 0.081750 0.475690 0.522550 0.976957
Cu2   Cu    Cu3+1 0.918250 0.524310 0.477450 0.934919
H1    H     H_    0.079595 0.403375 0.111775 0.184020
H2    H     H_    0.161429 0.532879 0.953187 0.176533
H3    H     H_    0.161375 0.535661 0.096888 0.190086
H4    H     H_    0.613795 0.879150 0.693572 0.146200
H5    H     H_    0.312080 0.770587 0.547467 0.182273
H6    H     H_    0.072626 0.840151 0.385015 0.176842
H7    H     H_    0.352907 0.159027 0.392665 0.177434
H8    H     H_    0.790110 0.998639 0.693644 0.141524
H9    H     H_    0.918024 0.164447 0.638962 0.161125
H10   H     H_    0.693914 0.219454 0.438784 0.178278
H11   H     H_    0.078000 0.400849 0.967826 0.177789
H12   H     H_    0.439847 0.828101 0.635013 0.148675
H13   H     H_    0.131498 0.322392 0.655649 0.155855
H14   H     H_    0.457959 0.301632 0.692609 0.184548
H15   H     H_    0.849548 0.643465 0.324915 0.129696
H16   H     H_    0.731455 0.474055 0.556174 0.129772
H17   H     H_    0.833665 0.442860 0.907962 0.167698
H18   H     H_    0.364605 0.536745 0.359602 0.180826
H19   H     H_    0.603717 0.389117 0.620025 0.131928
H20   H     H_    0.883835 0.347312 0.938458 0.169754
H21   H     H_    0.888818 0.346391 0.083790 0.175005
H22   H     H_    0.831826 0.435894 0.053974 0.162416
H23   H     H_    0.087684 0.667274 0.905866 0.152556
H24   H     H_    0.953197 0.629356 0.884064 0.170975
H25   H     H_    0.090255 0.665933 0.050199 0.149934
N1    N     N_R   0.795410 0.560790 0.443550 -0.192823
N2    N     N_R   0.204590 0.439170 0.556520 -0.225133
O1    O     O_R   0.977910 0.338120 0.529720 -0.583228
O2    O     O_R   0.839850 0.379180 0.491640 -0.587507
O3    O     O_R   0.069060 0.479460 0.639610 -0.582767
O4    O     O_R   0.931000 0.520530 0.601530 -0.577071
O5    O     O_R   0.160150 0.620820 0.508360 -0.569827
O6    O     O_R   0.022090 0.661880 0.470280 -0.580275
O7    O     O_R   0.069000 0.479470 0.398470 -0.521184
O8    O     O_R   0.930940 0.520540 0.360390 -0.607221
C51   C     C_3   0.934517 0.649815 0.034753 -0.419447
C52   C     C_3   0.968186 0.764181 0.000667 -0.353972
C53   C     C_3   0.888634 0.800604 0.008186 -0.826862
H26   H     H_    0.816239 0.762429 0.967198 0.247928
H27   H     H_    0.874888 0.784457 0.077494 0.249930
H28   H     H_    0.916027 0.883679 0.984816 0.251513
H29   H     H_    0.040879 0.806398 0.039470 0.225097
H30   H     H_    0.980661 0.782075 0.930847 0.227385
H31   H     H_    0.859689 0.607936 0.998409 0.209749
H32   H     H_    0.923807 0.635865 0.104661 0.207766
C54   C     C_3   0.541191 0.253486 0.449817 -0.402587
C55   C     C_3   0.544105 0.310459 0.353822 -0.334435
C56   C     C_3   0.591025 0.278666 0.295531 -0.778598
H33   H     H_    0.570707 0.307728 0.225792 0.229596
H34   H     H_    0.675158 0.312714 0.309526 0.234820
H35   H     H_    0.562241 0.194922 0.303838 0.269827
H36   H     H_    0.588070 0.392587 0.354172 0.210853
H37   H     H_    0.466099 0.301264 0.322628 0.221404
H38   H     H_    0.496160 0.277647 0.480066 0.175985
H39   H     H_    0.616229 0.281719 0.489545 0.194276
C57   C     C_2   0.174606 0.035966 0.331837 0.809894
O9    O     O_2   0.088925 0.028397 0.333296 -0.585638
O10   O     O_R   0.231559 0.105220 0.266132 -0.773673
H40   H     H_    0.194671 0.146186 0.225171 0.335160
C58   C     C_2   0.504135 0.666194 0.267175 0.842508
O11   O     O_2   0.437198 0.637422 0.206698 -0.615483
O12   O     O_R   0.561876 0.769752 0.267270 -0.747551
H41   H     H_    0.543203 0.813398 0.212397 0.330166
C59   C     C_2   0.311026 0.594680 0.465188 0.869640
O13   O     O_2   0.383430 0.665700 0.493362 -0.609671
O14   O     O_R   0.254201 0.611849 0.384780 -0.749595
H42   H     H_    0.278500 0.686307 0.357585 0.327314
C60   C     C_3   0.685461 0.654294 0.224415 -0.415596
C61   C     C_3   0.616965 0.562945 0.178687 -0.350354
C62   C     C_3   0.605138 0.594399 0.079256 -0.806307
H43   H     H_    0.570859 0.651036 0.059760 0.269522
H44   H     H_    0.680202 0.627293 0.055177 0.243843
H45   H     H_    0.554695 0.526918 0.048308 0.246505
H46   H     H_    0.651149 0.506205 0.196229 0.217459
H47   H     H_    0.540532 0.525858 0.200582 0.239266
H48   H     H_    0.661095 0.717522 0.202025 0.235858
H49   H     H_    0.761075 0.686100 0.201177 0.179349
C63   C     C_2   0.274661 0.255078 0.734301 0.812461
O15   O     O_2   0.196331 0.178412 0.742183 -0.601438
O16   O     O_R   0.354866 0.271504 0.802830 -0.772582
H50   H     H_    0.339894 0.213519 0.854360 0.336528

loop_
_geom_bond_atom_site_label_1
_geom_bond_atom_site_label_2
_ccdc_geom_bond_type
C10   C27   A    
C51   H31   S    
C5    H23   S    
C41   C42   A    
C36   C42   A    
C19   C20   A    
C20   H4    S    
C3    C6    S    
C58   O12   S    
O12   H41   S    
C7    C8    T    
C28   H5    S    
C59   O13   D    
C25   C28   A    
C26   C27   A    
C29   C30   A    
C53   H28   S    
C36   C37   A    
C24   C26   A    
C61   H47   S    
C2    H3    S    
C42   C46   A    
C35   C39   A    
C1    O2    A    
C15   C16   A    
C14   H10   S    
C29   C33   A    
C3    C48   S    
C57   O9    D    
C18   C19   A    
C34   O7    A    
C52   H29   S    
C9    C13   A    
O14   H42   S    
C47   H17   S    
Cu1   O1    S    
C47   C48   S    
C59   O14   S    
O16   H50   S    
C51   H32   S    
C16   C20   A    
C55   H36   S    
C40   H14   S    
C37   H18   S    
C41   C43   A    
C44   H13   S    
C18   C25   A    
Cu2   N1    S    
Cu1   O7    S    
C58   O11   D    
C47   C50   S    
C44   N2    A    
C2    C45   S    
C31   H16   S    
C55   H37   S    
C29   C60   S    
C23   O5    A    
C60   H49   S    
C43   C63   S    
C32   C35   A    
C48   H22   S    
C1    C9    S    
C24   C25   A    
C26   C57   S    
C22   H7    S    
C45   H11   S    
C56   H35   S    
C17   C21   A    
C54   H39   S    
Cu1   Cu2   S    
C12   O4    A    
C35   C36   A    
C52   H30   S    
Cu2   O4    S    
C63   O16   S    
C9    C14   A    
C37   C38   A    
C11   C16   A    
C53   H27   S    
C31   C32   A    
C19   H12   S    
C8    C12   S    
C56   H34   S    
C17   C18   A    
C12   O3    A    
O10   H40   S    
C62   H45   S    
Cu1   O3    S    
C61   C62   S    
C40   C41   A    
C45   H2    S    
C43   C44   A    
C22   C24   A    
C5    C50   S    
C62   H44   S    
C11   H8    S    
C39   C40   A    
C60   C61   S    
C31   N1    A    
C10   C28   A    
C15   C17   A    
Cu2   O6    S    
C34   C49   S    
C48   H21   S    
Cu2   O8    S    
C30   H15   S    
C7    C50   S    
C4    C5    S    
C2    H1    S    
C60   H48   S    
C4    C51   S    
C10   C23   S    
C33   C38   A    
C54   H38   S    
C55   C56   S    
C46   C59   S    
C32   C33   A    
C5    H24   S    
C2    C3    S    
C52   C53   S    
C4    H25   S    
C21   C54   S    
C11   C13   A    
C53   H26   S    
C46   N2    A    
C45   C50   S    
C27   H6    S    
C56   H33   S    
C57   O10   S    
C63   O15   D    
C34   O8    A    
C6    C49   T    
Cu2   O2    S    
Cu1   N2    S    
C47   H20   S    
C30   N1    A    
C61   H46   S    
C13   H9    S    
C51   C52   S    
C54   C55   S    
C23   O6    A    
C1    O1    A    
C39   H19   S    
C14   C15   A    
C62   H43   S    
C21   C22   A    
C38   C58   S    
Cu1   O5    S    
C3    C4    S    
