data_mof_unit_pretest_300.cif
_audit_creation_date              2012-12-10T17:18:33-0500
_audit_creation_method            fapswitch 2.2
_symmetry_space_group_name_H-M    P1
_symmetry_Int_Tables_number       1
_space_group_crystal_system       orthorhombic
_cell_length_a                    25.914219
_cell_length_b                    25.839177
_cell_length_c                    25.91422
_cell_angle_alpha                 90.0
_cell_angle_beta                  90.0
_cell_angle_gamma                 90.0
_cell_volume                      17352.2159131

loop_
_atom_site_label
_atom_site_type_symbol
_atom_type_description
_atom_site_fract_x
_atom_site_fract_y
_atom_site_fract_z
_atom_type_partial_charge
C1    C     C_R   0.750000 0.610172 0.750000 0.480551
C2    C     C_R   0.389878 0.750000 0.750000 0.481085
C3    C     C_R   0.182587 0.053945 0.817412 -0.091498
C4    C     C_R   0.712694 0.338113 0.053741 -0.086388
C5    C     C_R   0.287306 0.661887 0.946259 -0.086388
C6    C     C_R   0.817412 0.053945 0.817412 -0.091498
C7    C     C_R   0.182587 0.946055 0.182587 -0.091497
C8    C     C_R   0.317412 0.053945 0.682587 -0.091497
C9    C     C_R   0.682587 0.946055 0.317412 -0.091497
C10   C     C_R   0.053741 0.661887 0.712694 -0.086388
C11   C     C_R   0.946259 0.338113 0.287306 -0.086388
C12   C     C_R   0.682587 0.946055 0.682587 -0.091498
C13   C     C_R   0.610122 0.750000 0.250000 0.481085
C14   C     C_R   0.317412 0.053945 0.317412 -0.091498
C15   C     C_R   0.946259 0.338113 0.712694 -0.086388
C16   C     C_R   0.053741 0.661887 0.287306 -0.086388
C17   C     C_R   0.682587 0.053945 0.317412 -0.091498
C18   C     C_R   0.317413 0.946055 0.682587 -0.091498
C19   C     C_R   0.946259 0.661887 0.287306 -0.086388
C20   C     C_R   0.053741 0.338113 0.712694 -0.086388
C21   C     C_R   0.317412 0.946055 0.317412 -0.091498
C22   C     C_R   0.682587 0.053945 0.682587 -0.091497
C23   C     C_R   0.053741 0.338113 0.287306 -0.086388
C24   C     C_R   0.389878 0.250000 0.750000 0.481085
C25   C     C_R   0.946259 0.661887 0.712694 -0.086388
C26   C     C_R   0.553741 0.161887 0.287306 -0.086388
C27   C     C_R   0.446259 0.838113 0.712694 -0.086388
C28   C     C_R   0.287306 0.161887 0.446259 -0.086388
C29   C     C_R   0.712694 0.838113 0.553741 -0.086388
C30   C     C_R   0.446259 0.161887 0.712694 -0.086388
C31   C     C_R   0.553741 0.838113 0.287306 -0.086388
C32   C     C_R   0.712694 0.161887 0.553741 -0.086388
C33   C     C_R   0.212694 0.661887 0.446259 -0.086389
C34   C     C_R   0.553741 0.838113 0.712694 -0.086388
C35   C     C_R   0.610122 0.750000 0.750000 0.481085
C36   C     C_R   0.446259 0.161887 0.287306 -0.086388
C37   C     C_R   0.212694 0.661887 0.553741 -0.086388
C38   C     C_R   0.712694 0.161887 0.446259 -0.086388
C39   C     C_R   0.446259 0.838113 0.287306 -0.086388
C40   C     C_R   0.553741 0.161887 0.712694 -0.086388
C41   C     C_R   0.712694 0.838113 0.446259 -0.086388
C42   C     C_R   0.287306 0.161887 0.553741 -0.086388
C43   C     C_R   0.182587 0.553945 0.682587 -0.091498
C44   C     C_R   0.817412 0.446055 0.317412 -0.091498
C45   C     C_R   0.182587 0.446055 0.317412 -0.091497
C46   C     C_R   0.389878 0.250000 0.250000 0.481085
C47   C     C_R   0.817412 0.553945 0.682587 -0.091498
C48   C     C_R   0.817412 0.446055 0.682587 -0.091498
C49   C     C_R   0.182587 0.553945 0.317412 -0.091498
C50   C     C_R   0.817412 0.553945 0.317412 -0.091498
C51   C     C_R   0.182587 0.446055 0.682587 -0.091497
C52   C     C_R   0.526799 0.618884 0.805366 -0.116575
C53   C     C_R   0.473201 0.381116 0.194633 -0.116574
C54   C     C_R   0.805366 0.618884 0.473201 -0.116575
C55   C     C_R   0.194633 0.381116 0.526799 -0.116575
C56   C     C_R   0.473201 0.618884 0.194633 -0.116574
C57   C     C_R   0.610122 0.250000 0.750000 0.481085
C58   C     C_R   0.526799 0.381116 0.805366 -0.116574
C59   C     C_R   0.305367 0.881116 0.526799 -0.116575
C60   C     C_R   0.805366 0.381116 0.473201 -0.116575
C61   C     C_R   0.526799 0.381116 0.194633 -0.116574
C62   C     C_R   0.473201 0.618884 0.805366 -0.116574
C63   C     C_R   0.805366 0.381116 0.526799 -0.116575
C64   C     C_R   0.305367 0.881116 0.473201 -0.116575
C65   C     C_R   0.473201 0.381116 0.805366 -0.116574
C66   C     C_R   0.526799 0.618884 0.194633 -0.116574
C67   C     C_R   0.194633 0.381116 0.473201 -0.116575
C68   C     C_R   0.389878 0.750000 0.250000 0.481085
C69   C     C_R   0.805366 0.618884 0.526799 -0.116575
C70   C     C_R   0.649683 0.526898 0.149683 -0.128709
C71   C     C_R   0.350316 0.473102 0.850316 -0.128709
C72   C     C_R   0.649683 0.473102 0.850316 -0.128709
C73   C     C_R   0.350316 0.526898 0.149683 -0.128709
C74   C     C_R   0.350316 0.473102 0.149683 -0.128709
C75   C     C_R   0.649683 0.526898 0.850316 -0.128709
C76   C     C_R   0.350316 0.526898 0.850316 -0.128709
C77   C     C_R   0.649683 0.473102 0.149683 -0.128709
C78   C     C_R   0.026799 0.118884 0.805366 -0.116574
C79   C     C_R   0.250000 0.750000 0.389878 0.481085
C80   C     C_R   0.973201 0.881116 0.194633 -0.116574
C81   C     C_R   0.805366 0.118884 0.973201 -0.116575
C82   C     C_R   0.194633 0.881116 0.026799 -0.116575
C83   C     C_R   0.973201 0.118884 0.194633 -0.116574
C84   C     C_R   0.026799 0.881116 0.805366 -0.116574
C85   C     C_R   0.194633 0.118884 0.026799 -0.116575
C86   C     C_R   0.805366 0.881116 0.973201 -0.116575
C87   C     C_R   0.026799 0.881116 0.194633 -0.116574
C88   C     C_R   0.973201 0.118884 0.805366 -0.116574
C89   C     C_R   0.805366 0.881116 0.026799 -0.116575
C90   C     C_R   0.750000 0.250000 0.610122 0.481085
C91   C     C_R   0.194633 0.118884 0.973201 -0.116575
C92   C     C_R   0.973201 0.881116 0.805366 -0.116574
C93   C     C_R   0.026799 0.118884 0.194633 -0.116574
C94   C     C_R   0.194633 0.881116 0.973201 -0.116575
C95   C     C_R   0.805366 0.118884 0.026799 -0.116575
C96   C     C_R   0.305367 0.381116 0.973201 -0.116575
C97   C     C_R   0.694634 0.618884 0.026799 -0.116575
C98   C     C_R   0.149684 0.026898 0.149683 -0.128709
C99   C     C_R   0.850316 0.973102 0.850316 -0.128709
C100  C     C_R   0.305366 0.618884 0.026799 -0.116575
C101  C     C_R   0.750000 0.750000 0.389878 0.481085
C102  C     C_R   0.694633 0.381116 0.973201 -0.116575
C103  C     C_R   0.149683 0.973102 0.850316 -0.128709
C104  C     C_R   0.850316 0.026898 0.149683 -0.128709
C105  C     C_R   0.694634 0.618884 0.973201 -0.116575
C106  C     C_R   0.305367 0.381116 0.026799 -0.116575
C107  C     C_R   0.850316 0.973102 0.149683 -0.128709
C108  C     C_R   0.149683 0.026898 0.850316 -0.128709
C109  C     C_R   0.694633 0.381116 0.026799 -0.116575
C110  C     C_R   0.305366 0.618884 0.973201 -0.116575
C111  C     C_R   0.850316 0.026898 0.850316 -0.128709
C112  C     C_R   0.250000 0.389827 0.250000 0.480551
C113  C     C_R   0.250000 0.250000 0.610122 0.481085
C114  C     C_R   0.149684 0.973102 0.149683 -0.128709
C115  C     C_R   0.350316 0.026898 0.649683 -0.128709
C116  C     C_R   0.649683 0.973102 0.350316 -0.128709
C117  C     C_R   0.026799 0.618884 0.694634 -0.116574
C118  C     C_R   0.973201 0.381116 0.305366 -0.116574
C119  C     C_R   0.649683 0.973102 0.649683 -0.128709
C120  C     C_R   0.350316 0.026898 0.350316 -0.128709
C121  C     C_R   0.973201 0.381116 0.694634 -0.116574
C122  C     C_R   0.026799 0.618884 0.305366 -0.116574
C123  C     C_R   0.649683 0.026898 0.350316 -0.128709
C124  C     C_R   0.750000 0.250000 0.389878 0.481085
C125  C     C_R   0.350316 0.973102 0.649683 -0.128709
C126  C     C_R   0.973201 0.618884 0.305366 -0.116574
C127  C     C_R   0.026799 0.381116 0.694634 -0.116574
C128  C     C_R   0.350316 0.973102 0.350316 -0.128709
C129  C     C_R   0.649683 0.026898 0.649683 -0.128709
C130  C     C_R   0.026799 0.381116 0.305366 -0.116574
C131  C     C_R   0.973201 0.618884 0.694634 -0.116574
C132  C     C_R   0.526799 0.118884 0.305366 -0.116574
C133  C     C_R   0.473201 0.881116 0.694634 -0.116574
C134  C     C_R   0.305366 0.118884 0.473201 -0.116575
C135  C     C_R   0.250000 0.750000 0.610122 0.481085
C136  C     C_R   0.694633 0.881116 0.526799 -0.116575
C137  C     C_R   0.473201 0.118884 0.694634 -0.116574
C138  C     C_R   0.526799 0.881116 0.305366 -0.116574
C139  C     C_R   0.694633 0.118884 0.526799 -0.116575
C140  C     C_R   0.194633 0.618884 0.473201 -0.116575
C141  C     C_R   0.526799 0.881116 0.694634 -0.116574
C142  C     C_R   0.473201 0.118884 0.305366 -0.116574
C143  C     C_R   0.194633 0.618884 0.526799 -0.116575
C144  C     C_R   0.694633 0.118884 0.473201 -0.116575
C145  C     C_R   0.473201 0.881116 0.305366 -0.116574
C146  C     C_R   0.250000 0.250000 0.389878 0.481085
C147  C     C_R   0.526799 0.118884 0.694634 -0.116574
C148  C     C_R   0.694633 0.881116 0.473201 -0.116575
C149  C     C_R   0.305366 0.118884 0.526799 -0.116575
C150  C     C_R   0.149684 0.526898 0.649683 -0.128709
C151  C     C_R   0.850316 0.473102 0.350316 -0.128709
C152  C     C_R   0.149683 0.473102 0.350316 -0.128709
C153  C     C_R   0.850316 0.526898 0.649683 -0.128709
C154  C     C_R   0.850316 0.473102 0.649683 -0.128709
C155  C     C_R   0.149683 0.526898 0.350316 -0.128709
C156  C     C_R   0.850316 0.526898 0.350316 -0.128709
C157  C     C_R   0.750000 0.750000 0.610122 0.481085
C158  C     C_R   0.149684 0.473102 0.649683 -0.128709
C159  C     C_R   0.472752 0.705886 0.768122 0.013517
C160  C     C_R   0.527247 0.294113 0.231877 0.013517
C161  C     C_R   0.768122 0.705886 0.527247 0.013517
C162  C     C_R   0.231877 0.294113 0.472752 0.013517
C163  C     C_R   0.527248 0.705886 0.231877 0.013517
C164  C     C_R   0.472752 0.294113 0.768122 0.013517
C165  C     C_R   0.268122 0.794113 0.472752 0.013517
C166  C     C_R   0.768122 0.294113 0.527247 0.013517
C167  C     C_R   0.472752 0.294113 0.231877 0.013517
C168  C     C_R   0.250000 0.110172 0.750000 0.480551
C169  C     C_R   0.527248 0.705886 0.768122 0.013517
C170  C     C_R   0.768122 0.294113 0.472752 0.013517
C171  C     C_R   0.268122 0.794113 0.527247 0.013517
C172  C     C_R   0.527248 0.294113 0.768122 0.013517
C173  C     C_R   0.472752 0.705886 0.231877 0.013517
C174  C     C_R   0.231877 0.294113 0.527247 0.013517
C175  C     C_R   0.768122 0.705886 0.472752 0.013517
C176  C     C_R   0.716382 0.472691 0.216382 0.016378
C177  C     C_R   0.283618 0.527309 0.783618 0.016378
C178  C     C_R   0.716382 0.527309 0.783618 0.016378
C179  C     C_R   0.750000 0.889827 0.250000 0.480551
C180  C     C_R   0.283618 0.472691 0.216382 0.016378
C181  C     C_R   0.283618 0.527309 0.216382 0.016378
C182  C     C_R   0.716382 0.472691 0.783618 0.016378
C183  C     C_R   0.283618 0.472691 0.783618 0.016378
C184  C     C_R   0.716382 0.527309 0.216382 0.016378
C185  C     C_R   0.972752 0.205886 0.768122 0.013517
C186  C     C_R   0.027248 0.794113 0.231877 0.013517
C187  C     C_R   0.768122 0.205887 0.027248 0.013517
C188  C     C_R   0.231877 0.794113 0.972752 0.013517
C189  C     C_R   0.027248 0.205886 0.231877 0.013517
C190  C     C_R   0.750000 0.110172 0.750000 0.480551
C191  C     C_R   0.972752 0.794113 0.768122 0.013517
C192  C     C_R   0.231877 0.205887 0.972752 0.013517
C193  C     C_R   0.768122 0.794113 0.027248 0.013517
C194  C     C_R   0.972752 0.794113 0.231877 0.013517
C195  C     C_R   0.027248 0.205886 0.768122 0.013517
C196  C     C_R   0.768122 0.794113 0.972752 0.013517
C197  C     C_R   0.231877 0.205887 0.027248 0.013517
C198  C     C_R   0.027248 0.794113 0.768122 0.013517
C199  C     C_R   0.972752 0.205886 0.231877 0.013517
C200  C     C_R   0.231877 0.794113 0.027248 0.013517
C201  C     C_R   0.250000 0.889827 0.250000 0.480551
C202  C     C_R   0.768122 0.205887 0.972752 0.013517
C203  C     C_R   0.268123 0.294113 0.027248 0.013517
C204  C     C_R   0.731878 0.705886 0.972752 0.013517
C205  C     C_R   0.216382 0.972691 0.216382 0.016378
C206  C     C_R   0.783618 0.027309 0.783618 0.016378
C207  C     C_R   0.268122 0.705886 0.972752 0.013517
C208  C     C_R   0.731877 0.294113 0.027248 0.013517
C209  C     C_R   0.216382 0.027309 0.783618 0.016378
C210  C     C_R   0.783618 0.972691 0.216382 0.016378
C211  C     C_R   0.731878 0.705886 0.027248 0.013517
C212  C     C_R   0.750000 0.110172 0.250000 0.480551
C213  C     C_R   0.268123 0.294113 0.972752 0.013517
C214  C     C_R   0.783618 0.027309 0.216382 0.016378
C215  C     C_R   0.216382 0.972691 0.783618 0.016378
C216  C     C_R   0.731877 0.294113 0.972752 0.013517
C217  C     C_R   0.268122 0.705886 0.027248 0.013517
C218  C     C_R   0.783618 0.972691 0.783618 0.016378
C219  C     C_R   0.216382 0.027309 0.216382 0.016378
C220  C     C_R   0.283618 0.972691 0.716382 0.016378
C221  C     C_R   0.716382 0.027309 0.283618 0.016378
C222  C     C_R   0.972752 0.705886 0.731877 0.013517
C223  C     C_R   0.750000 0.610172 0.250000 0.480551
C224  C     C_R   0.250000 0.889827 0.750000 0.480551
C225  C     C_R   0.027248 0.294113 0.268122 0.013517
C226  C     C_R   0.716382 0.027309 0.716382 0.016378
C227  C     C_R   0.283618 0.972691 0.283618 0.016378
C228  C     C_R   0.027248 0.294113 0.731877 0.013517
C229  C     C_R   0.972752 0.705886 0.268122 0.013517
C230  C     C_R   0.716382 0.972691 0.283618 0.016378
C231  C     C_R   0.283618 0.027309 0.716382 0.016378
C232  C     C_R   0.027248 0.705886 0.268122 0.013517
C233  C     C_R   0.972752 0.294113 0.731877 0.013517
C234  C     C_R   0.283618 0.027309 0.283618 0.016378
C235  C     C_R   0.250000 0.110172 0.250000 0.480551
C236  C     C_R   0.716382 0.972691 0.716382 0.016378
C237  C     C_R   0.972752 0.294113 0.268122 0.013517
C238  C     C_R   0.027248 0.705886 0.731877 0.013517
C239  C     C_R   0.472752 0.205886 0.268122 0.013517
C240  C     C_R   0.527248 0.794113 0.731877 0.013517
C241  C     C_R   0.268122 0.205887 0.527247 0.013517
C242  C     C_R   0.731877 0.794113 0.472752 0.013517
C243  C     C_R   0.527248 0.205886 0.731877 0.013517
C244  C     C_R   0.472752 0.794113 0.268122 0.013517
C245  C     C_R   0.731877 0.205887 0.472752 0.013517
C246  C     C_R   0.750000 0.889827 0.750000 0.480551
C247  C     C_R   0.231877 0.705886 0.527247 0.013517
C248  C     C_R   0.472752 0.794113 0.731877 0.013517
C249  C     C_R   0.527247 0.205886 0.268122 0.013517
C250  C     C_R   0.231877 0.705886 0.472752 0.013517
C251  C     C_R   0.731877 0.205887 0.527247 0.013517
C252  C     C_R   0.527248 0.794113 0.268122 0.013517
C253  C     C_R   0.472752 0.205886 0.731877 0.013517
C254  C     C_R   0.731877 0.794113 0.527247 0.013517
C255  C     C_R   0.268122 0.205887 0.472752 0.013517
C256  C     C_R   0.216382 0.472691 0.716382 0.016378
C257  C     C_R   0.110122 0.250000 0.750000 0.481085
C258  C     C_R   0.783618 0.527309 0.283618 0.016378
C259  C     C_R   0.216382 0.527309 0.283618 0.016378
C260  C     C_R   0.783618 0.472691 0.716382 0.016378
C261  C     C_R   0.783618 0.527309 0.716382 0.016378
C262  C     C_R   0.216382 0.472691 0.283618 0.016378
C263  C     C_R   0.783618 0.472691 0.283618 0.016378
C264  C     C_R   0.216382 0.527309 0.716382 0.016378
C265  C     C_R   0.445970 0.750000 0.750000 0.011641
C266  C     C_R   0.554030 0.250000 0.250000 0.011641
C267  C     C_R   0.750000 0.750000 0.554030 0.011641
C268  C     C_R   0.889878 0.750000 0.250000 0.481085
C269  C     C_R   0.250000 0.250000 0.445970 0.011641
C270  C     C_R   0.554030 0.750000 0.250000 0.011641
C271  C     C_R   0.445970 0.250000 0.750000 0.011641
C272  C     C_R   0.250000 0.750000 0.445970 0.011641
C273  C     C_R   0.750000 0.250000 0.554030 0.011641
C274  C     C_R   0.445970 0.250000 0.250000 0.011641
C275  C     C_R   0.554030 0.750000 0.750000 0.011641
C276  C     C_R   0.750000 0.250000 0.445970 0.011641
C277  C     C_R   0.250000 0.750000 0.554030 0.011641
C278  C     C_R   0.554030 0.250000 0.750000 0.011641
C279  C     C_R   0.110122 0.250000 0.250000 0.481085
C280  C     C_R   0.445970 0.750000 0.250000 0.011641
C281  C     C_R   0.250000 0.250000 0.554030 0.011641
C282  C     C_R   0.750000 0.750000 0.445970 0.011641
C283  C     C_R   0.750000 0.445920 0.250000 0.015455
C284  C     C_R   0.250000 0.554080 0.750000 0.015455
C285  C     C_R   0.750000 0.554080 0.750000 0.015455
C286  C     C_R   0.250000 0.445920 0.250000 0.015455
C287  C     C_R   0.250000 0.554080 0.250000 0.015455
C288  C     C_R   0.750000 0.445920 0.750000 0.015455
C289  C     C_R   0.250000 0.445920 0.750000 0.015455
C290  C     C_R   0.889878 0.750000 0.750000 0.481085
C291  C     C_R   0.750000 0.554080 0.250000 0.015455
C292  C     C_R   0.945970 0.250000 0.750000 0.011641
C293  C     C_R   0.054030 0.750000 0.250000 0.011641
C294  C     C_R   0.750000 0.250000 0.054030 0.011641
C295  C     C_R   0.250000 0.750000 0.945970 0.011641
C296  C     C_R   0.054030 0.250000 0.250000 0.011641
C297  C     C_R   0.945970 0.750000 0.750000 0.011641
C298  C     C_R   0.250000 0.250000 0.945970 0.011641
C299  C     C_R   0.750000 0.750000 0.054030 0.011640
C300  C     C_R   0.945970 0.750000 0.250000 0.011641
C301  C     C_R   0.110122 0.750000 0.250000 0.481085
C302  C     C_R   0.054030 0.250000 0.750000 0.011641
C303  C     C_R   0.750000 0.750000 0.945970 0.011640
C304  C     C_R   0.250000 0.250000 0.054030 0.011641
C305  C     C_R   0.054030 0.750000 0.750000 0.011641
C306  C     C_R   0.945970 0.250000 0.250000 0.011641
C307  C     C_R   0.250000 0.750000 0.054030 0.011641
C308  C     C_R   0.750000 0.250000 0.945970 0.011641
C309  C     C_R   0.250000 0.945920 0.250000 0.015455
C310  C     C_R   0.750000 0.054080 0.750000 0.015455
C311  C     C_R   0.250000 0.054080 0.750000 0.015455
C312  C     C_R   0.889878 0.250000 0.750000 0.481085
C313  C     C_R   0.750000 0.945920 0.250000 0.015455
C314  C     C_R   0.750000 0.054080 0.250000 0.015455
C315  C     C_R   0.250000 0.945920 0.750000 0.015455
C316  C     C_R   0.750000 0.945920 0.750000 0.015455
C317  C     C_R   0.250000 0.054080 0.250000 0.015455
C318  C     C_R   0.110122 0.750000 0.750000 0.481085
C319  C     C_R   0.250000 0.389827 0.750000 0.480551
C320  C     C_R   0.889878 0.250000 0.250000 0.481085
C321  C     C_R   0.250000 0.250000 0.889878 0.481085
C322  C     C_R   0.750000 0.750000 0.110122 0.481085
C323  C     C_R   0.250000 0.750000 0.889878 0.481085
C324  C     C_R   0.750000 0.250000 0.110122 0.481085
C325  C     C_R   0.750000 0.750000 0.889878 0.481085
C326  C     C_R   0.250000 0.250000 0.110122 0.481085
C327  C     C_R   0.750000 0.250000 0.889878 0.481085
C328  C     C_R   0.250000 0.750000 0.110122 0.481085
C329  C     C_R   0.553741 0.661887 0.787306 -0.086388
C330  C     C_R   0.250000 0.610172 0.250000 0.480551
C331  C     C_R   0.446259 0.338113 0.212694 -0.086388
C332  C     C_R   0.787306 0.661887 0.446259 -0.086388
C333  C     C_R   0.212694 0.338113 0.553741 -0.086388
C334  C     C_R   0.446259 0.661887 0.212694 -0.086388
C335  C     C_R   0.553741 0.338113 0.787306 -0.086388
C336  C     C_R   0.287306 0.838113 0.553741 -0.086388
C337  C     C_R   0.787306 0.338113 0.446259 -0.086388
C338  C     C_R   0.553741 0.338113 0.212694 -0.086388
C339  C     C_R   0.446259 0.661887 0.787306 -0.086388
C340  C     C_R   0.787306 0.338113 0.553741 -0.086388
C341  C     C_R   0.750000 0.389827 0.750000 0.480551
C342  C     C_R   0.287306 0.838113 0.446259 -0.086388
C343  C     C_R   0.446259 0.338113 0.787306 -0.086388
C344  C     C_R   0.553741 0.661887 0.212694 -0.086388
C345  C     C_R   0.212694 0.338113 0.446259 -0.086388
C346  C     C_R   0.787306 0.661887 0.553741 -0.086388
C347  C     C_R   0.682587 0.553945 0.182587 -0.091498
C348  C     C_R   0.317412 0.446055 0.817412 -0.091498
C349  C     C_R   0.682587 0.446055 0.817412 -0.091498
C350  C     C_R   0.317412 0.553945 0.182587 -0.091497
C351  C     C_R   0.317412 0.446055 0.182587 -0.091498
C352  C     C_R   0.250000 0.610172 0.750000 0.480551
C353  C     C_R   0.682587 0.553945 0.817412 -0.091498
C354  C     C_R   0.317412 0.553945 0.817412 -0.091497
C355  C     C_R   0.682587 0.446055 0.182587 -0.091498
C356  C     C_R   0.053741 0.161887 0.787306 -0.086388
C357  C     C_R   0.946259 0.838113 0.212694 -0.086388
C358  C     C_R   0.787306 0.161887 0.946259 -0.086388
C359  C     C_R   0.212694 0.838113 0.053741 -0.086388
C360  C     C_R   0.946259 0.161887 0.212694 -0.086388
C361  C     C_R   0.053741 0.838113 0.787306 -0.086388
C362  C     C_R   0.212694 0.161887 0.053741 -0.086388
C363  C     C_R   0.750000 0.389827 0.250000 0.480551
C364  C     C_R   0.787305 0.838113 0.946259 -0.086388
C365  C     C_R   0.053741 0.838113 0.212694 -0.086388
C366  C     C_R   0.946259 0.161887 0.787306 -0.086388
C367  C     C_R   0.787305 0.838113 0.053741 -0.086388
C368  C     C_R   0.212694 0.161887 0.946259 -0.086389
C369  C     C_R   0.946259 0.838113 0.787306 -0.086388
C370  C     C_R   0.053741 0.161887 0.212694 -0.086388
C371  C     C_R   0.212694 0.838113 0.946259 -0.086388
C372  C     C_R   0.787306 0.161887 0.053741 -0.086388
C373  C     C_R   0.287306 0.338113 0.946259 -0.086388
C374  C     C_R   0.610122 0.250000 0.250000 0.481085
C375  C     C_R   0.712694 0.661887 0.053741 -0.086388
C376  C     C_R   0.182587 0.053945 0.182587 -0.091498
C377  C     C_R   0.817412 0.946055 0.817412 -0.091498
C378  C     C_R   0.287306 0.661887 0.053741 -0.086388
C379  C     C_R   0.712694 0.338113 0.946259 -0.086388
C380  C     C_R   0.182587 0.946055 0.817412 -0.091497
C381  C     C_R   0.817412 0.053945 0.182587 -0.091498
C382  C     C_R   0.712694 0.661887 0.946259 -0.086388
C383  C     C_R   0.287306 0.338113 0.053741 -0.086389
C384  C     C_R   0.817412 0.946055 0.182587 -0.091498
H1    H     H_    0.595416 0.660236 0.788938 0.117020
H2    H     H_    0.404584 0.660236 0.788938 0.117020
H3    H     H_    0.319703 0.085537 0.547614 0.110792
H4    H     H_    0.452386 0.914463 0.319703 0.110792
H5    H     H_    0.547614 0.085536 0.680297 0.110792
H6    H     H_    0.180297 0.585537 0.547614 0.110792
H7    H     H_    0.680297 0.085537 0.452386 0.110792
H8    H     H_    0.547614 0.085537 0.319703 0.110792
H9    H     H_    0.452386 0.914463 0.680297 0.110792
H10   H     H_    0.680297 0.085537 0.547614 0.110792
H11   H     H_    0.180297 0.585537 0.452386 0.110792
H12   H     H_    0.452386 0.085536 0.680297 0.110792
H13   H     H_    0.788938 0.339763 0.595416 0.117020
H14   H     H_    0.547614 0.914463 0.319703 0.110792
H15   H     H_    0.319703 0.085537 0.452386 0.110792
H16   H     H_    0.680297 0.914463 0.547614 0.110792
H17   H     H_    0.875919 0.547785 0.375919 0.095322
H18   H     H_    0.124081 0.452215 0.624081 0.095322
H19   H     H_    0.875919 0.452215 0.624081 0.095322
H20   H     H_    0.124081 0.547785 0.375919 0.095322
H21   H     H_    0.124081 0.452215 0.375919 0.095322
H22   H     H_    0.875919 0.547785 0.624081 0.095322
H23   H     H_    0.124081 0.547785 0.624081 0.095322
H24   H     H_    0.288938 0.839763 0.404584 0.117020
H25   H     H_    0.875919 0.452215 0.375919 0.095322
H26   H     H_    0.047614 0.414463 0.680297 0.110792
H27   H     H_    0.952386 0.585537 0.319703 0.110792
H28   H     H_    0.680297 0.414463 0.952386 0.110792
H29   H     H_    0.319703 0.585537 0.047614 0.110792
H30   H     H_    0.952386 0.414463 0.319703 0.110792
H31   H     H_    0.047614 0.585537 0.680297 0.110792
H32   H     H_    0.319703 0.414463 0.047614 0.110792
H33   H     H_    0.680297 0.585536 0.952386 0.110792
H34   H     H_    0.047614 0.585537 0.319703 0.110792
H35   H     H_    0.404584 0.339763 0.788938 0.117020
H36   H     H_    0.952386 0.414463 0.680297 0.110792
H37   H     H_    0.680297 0.585536 0.047614 0.110792
H38   H     H_    0.319703 0.414463 0.952386 0.110792
H39   H     H_    0.952386 0.585537 0.680297 0.110792
H40   H     H_    0.047614 0.414463 0.319703 0.110792
H41   H     H_    0.319703 0.585537 0.952386 0.110792
H42   H     H_    0.680297 0.414463 0.047614 0.110792
H43   H     H_    0.180297 0.085537 0.952386 0.110792
H44   H     H_    0.819703 0.914463 0.047614 0.110792
H45   H     H_    0.375919 0.047785 0.375919 0.095322
H46   H     H_    0.595416 0.660236 0.211062 0.117020
H47   H     H_    0.624081 0.952215 0.624081 0.095322
H48   H     H_    0.180297 0.914463 0.047614 0.110792
H49   H     H_    0.819703 0.085537 0.952386 0.110792
H50   H     H_    0.375919 0.952215 0.624081 0.095322
H51   H     H_    0.624081 0.047785 0.375919 0.095322
H52   H     H_    0.819703 0.914463 0.952386 0.110792
H53   H     H_    0.180297 0.085537 0.047614 0.110792
H54   H     H_    0.624081 0.952215 0.375919 0.095322
H55   H     H_    0.375919 0.047785 0.624081 0.095322
H56   H     H_    0.819703 0.085537 0.047614 0.110792
H57   H     H_    0.211062 0.339763 0.404584 0.117020
H58   H     H_    0.180297 0.914463 0.952386 0.110792
H59   H     H_    0.624081 0.047785 0.624081 0.095322
H60   H     H_    0.375919 0.952215 0.375919 0.095322
H61   H     H_    0.124081 0.047785 0.875919 0.095322
H62   H     H_    0.875919 0.952215 0.124081 0.095322
H63   H     H_    0.047614 0.914463 0.819703 0.110792
H64   H     H_    0.952386 0.085537 0.180297 0.110792
H65   H     H_    0.875919 0.952215 0.875919 0.095322
H66   H     H_    0.124081 0.047785 0.124081 0.095322
H67   H     H_    0.952386 0.085536 0.819703 0.110792
H68   H     H_    0.788938 0.660236 0.595416 0.117020
H69   H     H_    0.047614 0.914463 0.180297 0.110792
H70   H     H_    0.875919 0.047785 0.124081 0.095322
H71   H     H_    0.124081 0.952215 0.875919 0.095322
H72   H     H_    0.952386 0.914463 0.180297 0.110792
H73   H     H_    0.047614 0.085536 0.819703 0.110792
H74   H     H_    0.124081 0.952215 0.124081 0.095322
H75   H     H_    0.875919 0.047785 0.875919 0.095322
H76   H     H_    0.047614 0.085537 0.180297 0.110792
H77   H     H_    0.952386 0.914463 0.819703 0.110792
H78   H     H_    0.547614 0.414463 0.180297 0.110792
H79   H     H_    0.681224 0.595790 0.181224 0.097875
H80   H     H_    0.452386 0.585537 0.819703 0.110792
H81   H     H_    0.180297 0.414463 0.452386 0.110792
H82   H     H_    0.819703 0.585537 0.547614 0.110792
H83   H     H_    0.452386 0.414463 0.819703 0.110792
H84   H     H_    0.547614 0.585537 0.180297 0.110792
H85   H     H_    0.819703 0.414463 0.547614 0.110792
H86   H     H_    0.319703 0.914463 0.452386 0.110792
H87   H     H_    0.547614 0.585537 0.819703 0.110792
H88   H     H_    0.452386 0.414463 0.180297 0.110792
H89   H     H_    0.319703 0.914463 0.547614 0.110792
H90   H     H_    0.318776 0.404210 0.818776 0.097875
H91   H     H_    0.819703 0.414463 0.452386 0.110792
H92   H     H_    0.452386 0.585537 0.180297 0.110792
H93   H     H_    0.547614 0.414463 0.819703 0.110792
H94   H     H_    0.819703 0.585537 0.452386 0.110792
H95   H     H_    0.180297 0.414463 0.547614 0.110792
H96   H     H_    0.375919 0.547785 0.875919 0.095322
H97   H     H_    0.624081 0.452215 0.124081 0.095322
H98   H     H_    0.375919 0.452215 0.124081 0.095322
H99   H     H_    0.624081 0.547785 0.875919 0.095322
H100  H     H_    0.624081 0.452215 0.875919 0.095322
H101  H     H_    0.681224 0.404210 0.818776 0.097875
H102  H     H_    0.375919 0.547785 0.124081 0.095322
H103  H     H_    0.624081 0.547785 0.124081 0.095322
H104  H     H_    0.375919 0.452215 0.875919 0.095322
H105  H     H_    0.404584 0.339763 0.211062 0.117020
H106  H     H_    0.318776 0.595790 0.181224 0.097876
H107  H     H_    0.318776 0.404210 0.181224 0.097875
H108  H     H_    0.681224 0.595790 0.818776 0.097875
H109  H     H_    0.318776 0.595790 0.818776 0.097876
H110  H     H_    0.681224 0.404210 0.181224 0.097875
H111  H     H_    0.095416 0.160236 0.788938 0.117020
H112  H     H_    0.904584 0.839763 0.211062 0.117020
H113  H     H_    0.788938 0.160236 0.904584 0.117020
H114  H     H_    0.211062 0.839763 0.095416 0.117020
H115  H     H_    0.904584 0.160236 0.211062 0.117020
H116  H     H_    0.788938 0.660236 0.404584 0.117020
H117  H     H_    0.095416 0.839763 0.788938 0.117020
H118  H     H_    0.211062 0.160237 0.095416 0.117020
H119  H     H_    0.788938 0.839763 0.904584 0.117020
H120  H     H_    0.095416 0.839763 0.211062 0.117020
H121  H     H_    0.904584 0.160236 0.788938 0.117020
H122  H     H_    0.788938 0.839763 0.095416 0.117020
H123  H     H_    0.211062 0.160237 0.904584 0.117020
H124  H     H_    0.904584 0.839763 0.788938 0.117020
H125  H     H_    0.095416 0.160236 0.211062 0.117020
H126  H     H_    0.211062 0.839763 0.904584 0.117020
H127  H     H_    0.211062 0.339763 0.595416 0.117020
H128  H     H_    0.788938 0.160236 0.095416 0.117020
H129  H     H_    0.288938 0.339763 0.904584 0.117020
H130  H     H_    0.711062 0.660236 0.095416 0.117020
H131  H     H_    0.181224 0.095790 0.181224 0.097875
H132  H     H_    0.818776 0.904210 0.818776 0.097875
H133  H     H_    0.288938 0.660236 0.095416 0.117020
H134  H     H_    0.711062 0.339763 0.904584 0.117020
H135  H     H_    0.181224 0.904210 0.818776 0.097876
H136  H     H_    0.818776 0.095790 0.181224 0.097875
H137  H     H_    0.711062 0.660236 0.904584 0.117020
H138  H     H_    0.404584 0.660236 0.211062 0.117020
H139  H     H_    0.288938 0.339763 0.095416 0.117020
H140  H     H_    0.818776 0.904210 0.181224 0.097875
H141  H     H_    0.181224 0.095790 0.818776 0.097875
H142  H     H_    0.711062 0.339763 0.095416 0.117020
H143  H     H_    0.288938 0.660236 0.904584 0.117020
H144  H     H_    0.818776 0.095790 0.818776 0.097875
H145  H     H_    0.181224 0.904210 0.181224 0.097876
H146  H     H_    0.318776 0.095790 0.681224 0.097876
H147  H     H_    0.681224 0.904210 0.318776 0.097876
H148  H     H_    0.095416 0.660236 0.711062 0.117020
H149  H     H_    0.595416 0.339763 0.788938 0.117020
H150  H     H_    0.904584 0.339763 0.288938 0.117020
H151  H     H_    0.681224 0.904210 0.681224 0.097875
H152  H     H_    0.318776 0.095790 0.318776 0.097875
H153  H     H_    0.904584 0.339763 0.711062 0.117020
H154  H     H_    0.095416 0.660236 0.288938 0.117020
H155  H     H_    0.681224 0.095790 0.318776 0.097875
H156  H     H_    0.318776 0.904210 0.681224 0.097875
H157  H     H_    0.904584 0.660236 0.288938 0.117020
H158  H     H_    0.095416 0.339763 0.711062 0.117020
H159  H     H_    0.318776 0.904210 0.318776 0.097875
H160  H     H_    0.288938 0.839763 0.595416 0.117020
H161  H     H_    0.681224 0.095790 0.681224 0.097876
H162  H     H_    0.095416 0.339763 0.288938 0.117020
H163  H     H_    0.904584 0.660236 0.711062 0.117020
H164  H     H_    0.595416 0.160236 0.288938 0.117020
H165  H     H_    0.404584 0.839763 0.711062 0.117020
H166  H     H_    0.288938 0.160236 0.404584 0.117020
H167  H     H_    0.711062 0.839763 0.595416 0.117020
H168  H     H_    0.404584 0.160236 0.711062 0.117020
H169  H     H_    0.595416 0.839763 0.288938 0.117020
H170  H     H_    0.711062 0.160236 0.595416 0.117020
H171  H     H_    0.788938 0.339763 0.404584 0.117020
H172  H     H_    0.211062 0.660236 0.404584 0.117020
H173  H     H_    0.595416 0.839763 0.711062 0.117020
H174  H     H_    0.404584 0.160236 0.288938 0.117020
H175  H     H_    0.211062 0.660236 0.595416 0.117020
H176  H     H_    0.711062 0.160236 0.404584 0.117020
H177  H     H_    0.404584 0.839763 0.288938 0.117020
H178  H     H_    0.595416 0.160236 0.711062 0.117020
H179  H     H_    0.711062 0.839763 0.404584 0.117020
H180  H     H_    0.288938 0.160236 0.595416 0.117020
H181  H     H_    0.181224 0.595790 0.681224 0.097875
H182  H     H_    0.595416 0.339763 0.211062 0.117020
H183  H     H_    0.818776 0.404210 0.318776 0.097875
H184  H     H_    0.181224 0.404210 0.318776 0.097876
H185  H     H_    0.818776 0.595790 0.681224 0.097875
H186  H     H_    0.818776 0.404210 0.681224 0.097875
H187  H     H_    0.181224 0.595790 0.318776 0.097875
H188  H     H_    0.818776 0.595790 0.318776 0.097875
H189  H     H_    0.181224 0.404210 0.681224 0.097876
H190  H     H_    0.547614 0.914463 0.680297 0.110792
H191  H     H_    0.452386 0.085537 0.319703 0.110792
H192  H     H_    0.680297 0.914463 0.452386 0.110792
O1    O     O_3   0.750000 0.750000 0.750000 -0.445210
O2    O     O_R   0.280360 0.365810 0.280360 -0.541577
O3    O     O_R   0.780360 0.780360 0.634190 -0.539417
O4    O     O_R   0.219640 0.780360 0.365810 -0.539416
O5    O     O_R   0.780360 0.219640 0.634190 -0.539417
O6    O     O_R   0.780360 0.780360 0.365810 -0.539416
O7    O     O_R   0.219640 0.219640 0.634190 -0.539416
O8    O     O_R   0.719640 0.634190 0.280360 -0.541577
O9    O     O_R   0.280360 0.365810 0.719640 -0.541577
O10   O     O_R   0.280360 0.634190 0.280360 -0.541577
O11   O     O_R   0.719640 0.365810 0.719640 -0.541577
O12   O     O_R   0.280360 0.634190 0.719640 -0.541577
O13   O     O_R   0.719640 0.365810 0.280360 -0.541577
O14   O     O_R   0.634190 0.280360 0.280360 -0.539417
O15   O     O_R   0.365810 0.719640 0.719640 -0.539417
O16   O     O_R   0.634190 0.719640 0.280360 -0.539417
O17   O     O_3   0.250000 0.250000 0.250000 -0.445210
O18   O     O_R   0.365810 0.280360 0.719640 -0.539416
O19   O     O_R   0.634190 0.719640 0.719640 -0.539416
O20   O     O_R   0.365810 0.280360 0.280360 -0.539416
O21   O     O_R   0.634190 0.280360 0.719640 -0.539416
O22   O     O_R   0.365810 0.719640 0.280360 -0.539416
O23   O     O_R   0.280360 0.719640 0.365810 -0.539416
O24   O     O_R   0.719640 0.280360 0.634190 -0.539416
O25   O     O_R   0.719640 0.719640 0.365810 -0.539417
O26   O     O_R   0.280360 0.280360 0.634190 -0.539417
O27   O     O_R   0.719640 0.280360 0.365810 -0.539416
O28   O     O_3   0.750000 0.750000 0.250000 -0.445210
O29   O     O_R   0.280360 0.719640 0.634190 -0.539417
O30   O     O_R   0.280360 0.280360 0.365810 -0.539416
O31   O     O_R   0.719640 0.719640 0.634190 -0.539416
O32   O     O_R   0.219640 0.134190 0.719640 -0.541577
O33   O     O_R   0.780360 0.865810 0.280360 -0.541577
O34   O     O_R   0.719640 0.134190 0.780360 -0.541577
O35   O     O_R   0.280360 0.865810 0.219640 -0.541577
O36   O     O_R   0.780360 0.134190 0.280360 -0.541577
O37   O     O_R   0.219640 0.865810 0.719640 -0.541577
O38   O     O_R   0.280360 0.134190 0.219640 -0.541577
O39   O     O_3   0.250000 0.250000 0.750000 -0.445210
O40   O     O_R   0.719640 0.865810 0.780360 -0.541577
O41   O     O_R   0.219640 0.865810 0.280360 -0.541577
O42   O     O_R   0.780360 0.134190 0.719640 -0.541577
O43   O     O_R   0.719640 0.865810 0.219640 -0.541577
O44   O     O_R   0.280360 0.134190 0.780360 -0.541577
O45   O     O_R   0.780360 0.865810 0.719640 -0.541577
O46   O     O_R   0.219640 0.134190 0.280360 -0.541577
O47   O     O_R   0.280360 0.865810 0.780360 -0.541577
O48   O     O_R   0.719640 0.134190 0.219640 -0.541577
O49   O     O_R   0.134190 0.280360 0.780360 -0.539417
O50   O     O_3   0.250000 0.750000 0.250000 -0.445210
O51   O     O_R   0.865810 0.719640 0.219640 -0.539417
O52   O     O_R   0.134190 0.219640 0.280360 -0.539417
O53   O     O_R   0.865810 0.780360 0.719640 -0.539417
O54   O     O_R   0.134190 0.719640 0.219640 -0.539416
O55   O     O_R   0.865810 0.280360 0.780360 -0.539416
O56   O     O_R   0.134190 0.780360 0.719640 -0.539416
O57   O     O_R   0.865810 0.219640 0.280360 -0.539416
O58   O     O_R   0.865810 0.719640 0.780360 -0.539416
O59   O     O_R   0.134190 0.280360 0.219640 -0.539416
O60   O     O_R   0.865810 0.780360 0.280360 -0.539416
O61   O     O_3   0.750000 0.250000 0.750000 -0.445210
O62   O     O_R   0.134190 0.219640 0.719640 -0.539417
O63   O     O_R   0.865810 0.280360 0.219640 -0.539416
O64   O     O_R   0.134190 0.719640 0.780360 -0.539417
O65   O     O_R   0.865810 0.219640 0.719640 -0.539417
O66   O     O_R   0.134190 0.780360 0.280360 -0.539417
O67   O     O_R   0.280360 0.219640 0.865810 -0.539416
O68   O     O_R   0.719640 0.780360 0.134190 -0.539417
O69   O     O_R   0.219640 0.719640 0.865810 -0.539417
O70   O     O_R   0.780360 0.280360 0.134190 -0.539417
O71   O     O_R   0.719640 0.780360 0.865810 -0.539417
O72   O     O_3   0.250000 0.750000 0.750000 -0.445210
O73   O     O_R   0.280360 0.219640 0.134190 -0.539417
O74   O     O_R   0.780360 0.280360 0.865810 -0.539416
O75   O     O_R   0.219640 0.719640 0.134190 -0.539416
O76   O     O_R   0.719640 0.219640 0.134190 -0.539416
O77   O     O_R   0.280360 0.780360 0.865810 -0.539416
O78   O     O_R   0.780360 0.719640 0.134190 -0.539417
O79   O     O_R   0.219640 0.280360 0.865810 -0.539416
O80   O     O_R   0.280360 0.780360 0.134190 -0.539417
O81   O     O_R   0.719640 0.219640 0.865810 -0.539417
O82   O     O_R   0.219640 0.280360 0.134190 -0.539416
O83   O     O_3   0.750000 0.250000 0.250000 -0.445210
O84   O     O_R   0.780360 0.719640 0.865810 -0.539416
O85   O     O_R   0.219640 0.634190 0.219640 -0.541577
O86   O     O_R   0.780360 0.365810 0.780360 -0.541577
O87   O     O_R   0.219640 0.634190 0.780360 -0.541577
O88   O     O_R   0.780360 0.365810 0.219640 -0.541577
O89   O     O_R   0.780360 0.634190 0.780360 -0.541577
O90   O     O_R   0.219640 0.365810 0.219640 -0.541577
O91   O     O_R   0.780360 0.634190 0.219640 -0.541577
O92   O     O_R   0.219640 0.365810 0.780360 -0.541577
O93   O     O_R   0.634190 0.780360 0.780360 -0.539417
O94   O     O_R   0.719640 0.634190 0.719640 -0.541577
O95   O     O_R   0.365810 0.219640 0.219640 -0.539417
O96   O     O_R   0.634190 0.219640 0.780360 -0.539417
O97   O     O_R   0.365810 0.780360 0.219640 -0.539417
O98   O     O_R   0.634190 0.219640 0.219640 -0.539417
O99   O     O_R   0.365810 0.780360 0.780360 -0.539416
O100  O     O_R   0.634190 0.780360 0.219640 -0.539416
O101  O     O_R   0.365810 0.219640 0.780360 -0.539416
O102  O     O_R   0.780360 0.219640 0.365810 -0.539416
O103  O     O_R   0.219640 0.780360 0.634190 -0.539416
O104  O     O_R   0.219640 0.219640 0.365810 -0.539417
Zn1   Zn    Zn3+2 0.706630 0.793370 0.793370 0.924883
Zn2   Zn    Zn3+2 0.293370 0.793370 0.793370 0.924883
Zn3   Zn    Zn3+2 0.793370 0.206630 0.706630 0.924883
Zn4   Zn    Zn3+2 0.206630 0.793370 0.293370 0.924883
Zn5   Zn    Zn3+2 0.293370 0.206630 0.793370 0.924883
Zn6   Zn    Zn3+2 0.706630 0.793370 0.206630 0.924883
Zn7   Zn    Zn3+2 0.206630 0.206630 0.293370 0.924882
Zn8   Zn    Zn3+2 0.793370 0.793370 0.706630 0.924882
Zn9   Zn    Zn3+2 0.793370 0.706630 0.206630 0.924883
Zn10  Zn    Zn3+2 0.206630 0.293370 0.793370 0.924883
Zn11  Zn    Zn3+2 0.793370 0.293370 0.793370 0.924883
Zn12  Zn    Zn3+2 0.293370 0.206630 0.206630 0.924883
Zn13  Zn    Zn3+2 0.206630 0.706630 0.206630 0.924883
Zn14  Zn    Zn3+2 0.206630 0.293370 0.206630 0.924883
Zn15  Zn    Zn3+2 0.793370 0.706630 0.793370 0.924883
Zn16  Zn    Zn3+2 0.206630 0.706630 0.793370 0.924883
Zn17  Zn    Zn3+2 0.793370 0.293370 0.206630 0.924883
Zn18  Zn    Zn3+2 0.706630 0.293370 0.293370 0.924883
Zn19  Zn    Zn3+2 0.293370 0.706630 0.706630 0.924883
Zn20  Zn    Zn3+2 0.293370 0.293370 0.293370 0.924883
Zn21  Zn    Zn3+2 0.706630 0.706630 0.706630 0.924883
Zn22  Zn    Zn3+2 0.293370 0.293370 0.706630 0.924883
Zn23  Zn    Zn3+2 0.793370 0.793370 0.293370 0.924883
Zn24  Zn    Zn3+2 0.706630 0.706630 0.293370 0.924882
Zn25  Zn    Zn3+2 0.706630 0.293370 0.706630 0.924883
Zn26  Zn    Zn3+2 0.293370 0.706630 0.293370 0.924883
Zn27  Zn    Zn3+2 0.206630 0.206630 0.706630 0.924883
Zn28  Zn    Zn3+2 0.293370 0.793370 0.206630 0.924883
Zn29  Zn    Zn3+2 0.706630 0.206630 0.793370 0.924882
Zn30  Zn    Zn3+2 0.206630 0.793370 0.706630 0.924883
Zn31  Zn    Zn3+2 0.793370 0.206630 0.293370 0.924883
Zn32  Zn    Zn3+2 0.706630 0.206630 0.206630 0.924883

loop_
_geom_bond_atom_site_label_1
_geom_bond_atom_site_label_2
_ccdc_geom_bond_type
C91   C368  A    
C258  C291  A    
C174  C333  A    
C343  H35   S    
O10   Zn26  S    
C97   C375  A    
C82   C94   A    
C200  C359  A    
C239  C249  A    
C11   H150  S    
C225  C237  A    
O83   Zn31  S    
C333  H127  S    
C197  C362  A    
C94   H58   S    
O87   Zn16  S    
C161  C346  A    
C47   C261  A    
C145  H4    S    
C21   H159  S    
C364  H119  S    
C46   C274  S    
C218  C316  A    
C101  C282  S    
C363  O88   A    
C246  O45   A    
C176  C283  A    
O75   Zn13  S    
C158  H18   S    
C337  H171  S    
C18   C125  A    
C78   C356  A    
C43   C264  A    
C81   C95   A    
C312  O55   A    
C105  H33   S    
C98   C114  A    
O78   Zn9   S    
C138  C145  A    
C29   H167  S    
C191  C369  A    
O98   Zn32  S    
C359  H114  S    
C201  C309  S    
C107  H62   S    
C14   H152  S    
C93   H76   S    
C16   C122  A    
C219  C376  A    
C330  O10   A    
O93   Zn1   S    
C128  H60   S    
O41   Zn4   S    
O62   Zn27  S    
C236  C316  A    
C223  O8    A    
C7    H145  S    
C268  O60   A    
C298  C321  S    
O56   Zn30  S    
C191  C198  A    
C198  C305  A    
C36   H174  S    
O14   Zn18  S    
C37   H175  S    
C31   H169  S    
C201  O41   A    
C171  C277  A    
C97   C105  A    
C90   O24   A    
C134  H15   S    
C81   H49   S    
C74   H98   S    
C244  C280  A    
C112  O90   A    
C16   H154  S    
C118  H30   S    
C290  C297  S    
O55   Zn11  S    
C185  C195  A    
C51   C256  A    
C208  C294  A    
C23   C225  A    
C137  C147  A    
O6    Zn23  S    
C4    C208  A    
C261  C285  A    
C146  C269  S    
C178  C285  A    
O61   Zn11  S    
C21   C227  A    
C192  C368  A    
C336  H160  S    
C217  C378  A    
C163  C270  A    
C60   C337  A    
C18   H156  S    
C32   C139  A    
C211  C375  A    
C246  C316  S    
C150  H23   S    
C47   C153  A    
C38   C245  A    
C29   C254  A    
C23   C130  A    
C367  H122  S    
C292  C312  S    
C26   C249  A    
C130  H40   S    
C5    C207  A    
C205  C309  A    
C28   H166  S    
O3    Zn8   S    
C23   H162  S    
O44   Zn5   S    
O72   Zn16  S    
C255  C269  A    
C233  C292  A    
C159  C339  A    
O39   Zn22  S    
C362  H118  S    
C348  H90   S    
C19   C229  A    
C178  C182  A    
C187  C294  A    
C20   C127  A    
C124  O102  A    
C39   H177  S    
O1    Zn21  S    
C319  O92   A    
C256  C264  A    
C244  C252  A    
C154  H19   S    
C321  O79   A    
C28   C134  A    
C95   H56   S    
C363  O13   A    
C307  C328  S    
O50   Zn13  S    
C165  C342  A    
C67   C345  A    
C98   H66   S    
O54   Zn13  S    
C176  C184  A    
C22   H161  S    
C48   C260  A    
C345  H57   S    
C42   C241  A    
C40   C147  A    
C9    C116  A    
C295  C323  S    
C49   C155  A    
C104  C381  A    
C312  O65   A    
O17   Zn12  S    
C37   C247  A    
C179  O33   A    
C114  H74   S    
C330  O85   A    
O96   Zn29  S    
C68   C280  S    
C243  C253  A    
C284  C352  S    
C268  O51   A    
C50   H188  S    
C168  C311  S    
C88   C366  A    
C325  O71   A    
C143  H6    S    
O4    Zn4   S    
C88   H67   S    
C257  O49   A    
C340  H13   S    
C56   C66   A    
C64   C342  A    
C8    C231  A    
O103  Zn30  S    
C16   C232  A    
C33   C250  A    
C108  H61   S    
C230  C313  A    
C17   C221  A    
C52   C329  A    
C235  O38   A    
C308  C327  S    
O46   Zn7   S    
C102  C109  A    
C319  O9    A    
C166  C340  A    
C181  C350  A    
C157  O3    A    
C242  C282  A    
C104  C107  A    
C141  H190  S    
C83   C93   A    
C165  C171  A    
C4    C109  A    
C34   C141  A    
C160  C266  A    
C165  C272  A    
C306  C320  S    
C6    C111  A    
C140  C143  A    
C18   C220  A    
C44   C263  A    
C86   H52   S    
O45   Zn8   S    
C103  H71   S    
C68   O97   A    
O83   Zn17  S    
C133  H9    S    
C54   C69   A    
C187  C202  A    
C209  C215  A    
C369  H124  S    
C383  H139  S    
C229  C300  A    
C190  O42   A    
C72   C349  A    
C195  C356  A    
C332  H116  S    
O30   Zn20  S    
C214  C314  A    
O59   Zn14  S    
C223  O91   A    
C117  H31   S    
C5    C110  A    
C87   H69   S    
O101  Zn5   S    
C69   C346  A    
C323  O77   A    
C226  C236  A    
C109  H42   S    
C127  H26   S    
C55   H95   S    
C139  C144  A    
C189  C370  A    
C186  C293  A    
C101  O6    A    
C36   C142  A    
C2    O15   A    
C232  C293  A    
C53   C61   A    
C43   H181  S    
O57   Zn31  S    
C79   O4    A    
C10   H148  S    
C153  H22   S    
C221  C230  A    
C115  H55   S    
C87   C365  A    
C196  C364  A    
C213  C298  A    
C3    H141  S    
O28   Zn23  S    
C289  C319  S    
C173  C280  A    
C57   C278  S    
C189  C199  A    
C36   C239  A    
C324  O70   A    
C140  H11   S    
O61   Zn29  S    
C164  C343  A    
C136  H16   S    
O18   Zn22  S    
C70   C77   A    
O70   Zn17  S    
C112  O2    A    
C351  H107  S    
O17   Zn14  S    
C72   C75   A    
C106  H32   S    
C74   C351  A    
C256  C289  A    
C100  C378  A    
C192  C298  A    
C227  C309  A    
C120  H45   S    
C183  C289  A    
C180  C351  A    
C72   H100  S    
O94   Zn21  S    
C234  C317  A    
C182  C349  A    
C215  C315  A    
C248  C265  A    
C50   C258  A    
O28   Zn6   S    
C134  C149  A    
O67   Zn5   S    
C9    C230  A    
C35   O93   A    
O81   Zn29  S    
C266  C374  S    
C79   C272  S    
C167  C331  A    
C97   H37   S    
C12   C119  A    
C338  H182  S    
C58   C65   A    
C193  C196  A    
C99   C111  A    
C384  H140  S    
C25   C222  A    
C358  H113  S    
O68   Zn6   S    
C76   H96   S    
C21   C128  A    
C2    C265  S    
C43   C150  A    
C194  C357  A    
C228  C233  A    
C136  C148  A    
C170  C337  A    
C105  C382  A    
C25   H163  S    
C142  H191  S    
O29   Zn19  S    
C64   H86   S    
O58   Zn15  S    
C262  C286  A    
C164  C271  A    
C107  C384  A    
C166  C170  A    
C61   C338  A    
O72   Zn19  S    
C55   C333  A    
C46   O20   A    
C164  C172  A    
C152  H21   S    
C293  C301  S    
C163  C173  A    
O11   Zn25  S    
C34   C240  A    
C179  O43   A    
C372  H128  S    
C349  H101  S    
C48   C154  A    
C205  C219  A    
C305  C318  S    
C220  C231  A    
C171  C336  A    
C144  H7    S    
O72   Zn30  S    
O24   Zn25  S    
C57   O96   A    
C204  C303  A    
O23   Zn26  S    
C304  C326  S    
C51   H189  S    
C122  H34   S    
C2    O99   A    
C82   C359  A    
C48   H186  S    
O80   Zn28  S    
C197  C304  A    
C3    C108  A    
C225  C296  A    
C326  O82   A    
C20   C228  A    
C240  C275  A    
C61   H78   S    
O39   Zn10  S    
C207  C295  A    
C290  O53   A    
C24   O101  A    
C268  C300  S    
C10   C117  A    
C52   C62   A    
C260  C261  A    
C66   C344  A    
C49   C259  A    
C44   H183  S    
C210  C384  A    
C156  H17   S    
C53   C331  A    
C41   C148  A    
C161  C267  A    
O84   Zn15  S    
C46   O95   A    
O90   Zn14  S    
C381  H136  S    
C73   H102  S    
C119  C129  A    
C331  H105  S    
C81   C358  A    
O60   Zn23  S    
C4    H142  S    
C117  C131  A    
C218  C377  A    
C6    C206  A    
C54   H94   S    
C83   C360  A    
O31   Zn21  S    
C6    H144  S    
O36   Zn31  S    
O28   Zn24  S    
O33   Zn23  S    
C257  O62   A    
C59   H89   S    
C60   H91   S    
C111  H75   S    
C90   O5    A    
C32   H170  S    
C35   C275  S    
C84   C92   A    
C121  H36   S    
C76   C354  A    
O8    Zn24  S    
C52   H87   S    
C42   H180  S    
C80   H72   S    
C226  C310  A    
O104  Zn7   S    
O85   Zn13  S    
C3    C209  A    
C162  C269  A    
C100  C110  A    
O2    Zn20  S    
C68   O22   A    
C73   C74   A    
C222  C297  A    
C28   C255  A    
C14   C234  A    
C7    C205  A    
C320  O63   A    
C235  C317  S    
C1    C285  S    
C84   C361  A    
C162  C345  A    
C26   C132  A    
C354  H109  S    
C20   H158  S    
C63   H85   S    
C318  O56   A    
C32   C251  A    
O50   Zn28  S    
C58   C335  A    
C84   H63   S    
C245  C276  A    
C54   C332  A    
O17   Zn7   S    
C199  C306  A    
C327  O81   A    
C82   H48   S    
C121  C127  A    
C53   H88   S    
C203  C383  A    
O26   Zn22  S    
C71   C76   A    
C113  O7    A    
C224  O47   A    
C96   H38   S    
C257  C302  S    
C15   H153  S    
C195  C302  A    
C169  C329  A    
C102  C379  A    
C344  H46   S    
C356  H111  S    
O5    Zn3   S    
O79   Zn10  S    
C379  H134  S    
C157  O31   A    
C42   C149  A    
O102  Zn31  S    
C303  C325  S    
C96   C106  A    
C355  H110  S    
O92   Zn10  S    
C237  C306  A    
C86   C364  A    
C365  H120  S    
O66   Zn4   S    
C45   C152  A    
O64   Zn16  S    
C59   C336  A    
C148  H192  S    
C94   C371  A    
O100  Zn6   S    
C241  C255  A    
C175  C282  A    
C204  C382  A    
C89   C367  A    
O17   Zn20  S    
C38   H176  S    
O34   Zn29  S    
C132  H8    S    
C80   C357  A    
C221  C314  A    
C75   H99   S    
O49   Zn10  S    
C245  C251  A    
C30   C137  A    
C160  C338  A    
C357  H112  S    
O16   Zn24  S    
O83   Zn32  S    
O39   Zn27  S    
O50   Zn26  S    
C167  C274  A    
C79   O23   A    
C186  C194  A    
C216  C308  A    
C93   C370  A    
C174  C281  A    
C366  H121  S    
C146  O30   A    
C254  C267  A    
C220  C315  A    
C65   H83   S    
C51   C158  A    
O82   Zn14  S    
C17   H155  S    
C110  H41   S    
C201  O35   A    
O88   Zn17  S    
C287  C330  S    
C380  H135  S    
C177  C183  A    
O35   Zn28  S    
C184  C347  A    
C139  H10   S    
O97   Zn28  S    
O1    Zn1   S    
C187  C372  A    
C27   C133  A    
C301  O54   A    
C247  C277  A    
C116  C123  A    
O50   Zn4   S    
C62   C339  A    
C118  C130  A    
C342  H24   S    
C47   H185  S    
C373  H129  S    
O69   Zn16  S    
C55   C67   A    
C70   C347  A    
C152  C155  A    
O61   Zn25  S    
C202  C358  A    
C124  O27   A    
C30   H168  S    
C34   H173  S    
C192  C197  A    
C31   C138  A    
C73   C350  A    
C184  C291  A    
C361  H117  S    
O12   Zn19  S    
C193  C299  A    
C216  C379  A    
C22   C226  A    
C194  C300  A    
O27   Zn18  S    
C352  O12   A    
C14   C120  A    
O1    Zn8   S    
C228  C302  A    
C264  C284  A    
C11   C237  A    
C341  O11   A    
C320  O57   A    
C180  C181  A    
C368  H123  S    
C78   C88   A    
C227  C234  A    
C341  O86   A    
C92   H77   S    
C150  C158  A    
C279  O52   A    
C135  C277  S    
C33   H172  S    
C38   C144  A    
C100  H29   S    
O19   Zn21  S    
C328  O75   A    
C350  H106  S    
C246  O40   A    
C86   C89   A    
C224  C315  S    
C347  H79   S    
C120  C128  A    
C378  H133  S    
C229  C232  A    
C360  H115  S    
C163  C344  A    
C19   C126  A    
C133  C141  A    
C185  C366  A    
C49   H187  S    
C99   C377  A    
O47   Zn2   S    
O76   Zn32  S    
C131  H39   S    
C301  O66   A    
C27   C248  A    
C252  C270  A    
C212  O48   A    
O73   Zn12  S    
C253  C271  A    
C299  C322  S    
C135  O29   A    
C204  C211  A    
C62   H80   S    
O77   Zn2   S    
O63   Zn17  S    
C58   H93   S    
C31   C252  A    
C65   C343  A    
C327  O74   A    
O71   Zn1   S    
C180  C286  A    
O61   Zn3   S    
C137  H12   S    
C181  C287  A    
C40   C243  A    
C191  C297  A    
C377  H132  S    
C182  C288  A    
C83   H64   S    
C29   C136  A    
C346  H68   S    
C260  C288  A    
C290  O58   A    
C240  C248  A    
C176  C355  A    
C135  O103  A    
C149  H3    S    
C7    C114  A    
C106  C383  A    
O48   Zn32  S    
C172  C278  A    
O91   Zn9   S    
C113  C281  S    
O86   Zn11  S    
C223  C291  S    
O38   Zn12  S    
O42   Zn3   S    
C212  C314  S    
C258  C263  A    
C169  C275  A    
C250  C272  A    
O95   Zn12  S    
C168  O44   A    
C259  C262  A    
C170  C276  A    
C203  C304  A    
C85   C91   A    
C224  O37   A    
C27   H165  S    
C12   H151  S    
C59   C64   A    
O15   Zn19  S    
C168  O32   A    
C60   C63   A    
C179  C313  S    
C334  H138  S    
C1    O94   A    
C80   C87   A    
C129  H59   S    
C161  C175  A    
C175  C332  A    
C324  O76   A    
C147  H5    S    
C103  C380  A    
C33   C140  A    
C66   H84   S    
C279  C296  S    
C212  O36   A    
C102  H28   S    
O39   Zn5   S    
C263  C283  A    
O72   Zn2   S    
C160  C167  A    
C328  O80   A    
O99   Zn2   S    
C374  O98   A    
C188  C371  A    
C85   H53   S    
C177  C284  A    
C8    C115  A    
C321  O67   A    
C104  H70   S    
C9    H147  S    
O32   Zn27  S    
O89   Zn15  S    
C45   H184  S    
C50   C156  A    
C199  C360  A    
C206  C218  A    
C382  H137  S    
C98   C376  A    
C103  C108  A    
C322  O78   A    
C283  C363  S    
C186  C365  A    
C85   C362  A    
C99   H65   S    
C101  O25   A    
O9    Zn22  S    
C188  C200  A    
C91   H43   S    
C63   C340  A    
C189  C296  A    
C13   O16   A    
C208  C216  A    
O13   Zn18  S    
C159  C169  A    
C39   C145  A    
C185  C292  A    
C112  C286  S    
O74   Zn11  S    
C243  C278  A    
C374  O14   A    
C196  C303  A    
C17   C123  A    
C77   C355  A    
C151  H25   S    
O83   Zn18  S    
C132  C142  A    
C215  C380  A    
C157  C267  S    
C67   H81   S    
C329  H1    S    
C30   C253  A    
C44   C151  A    
C24   C271  S    
O65   Zn3   S    
C113  O26   A    
C71   H104  S    
C202  C308  A    
O28   Zn9   S    
C125  H50   S    
C325  O84   A    
C35   O19   A    
O37   Zn30  S    
C193  C367  A    
C69   H82   S    
C210  C313  A    
C238  C305  A    
C177  C354  A    
C210  C214  A    
C353  H108  S    
C222  C238  A    
C56   H92   S    
C8    H146  S    
C214  C381  A    
C249  C266  A    
C122  C126  A    
C259  C287  A    
C166  C273  A    
C77   H97   S    
C173  C334  A    
C190  C310  S    
C219  C317  A    
C339  H2    S    
O7    Zn27  S    
C78   H73   S    
C335  H149  S    
C15   C233  A    
C326  O73   A    
O51   Zn9   S    
C1    O89   A    
C37   C143  A    
O53   Zn8   S    
C26   H164  S    
C323  O69   A    
C294  C324  S    
C10   C238  A    
C95   C372  A    
C203  C213  A    
C242  C254  A    
C231  C311  A    
C239  C274  A    
C209  C311  A    
C25   C131  A    
C75   C353  A    
C56   C334  A    
C13   O100  A    
C39   C244  A    
O1    Zn15  S    
C116  H54   S    
C12   C236  A    
C370  H125  S    
C146  O104  A    
C235  O46   A    
C15   C121  A    
O52   Zn7   S    
C119  H47   S    
C89   H44   S    
C19   H157  S    
C71   C348  A    
C251  C273  A    
C241  C281  A    
C211  C299  A    
C279  O59   A    
C183  C348  A    
C162  C174  A    
O43   Zn6   S    
C159  C265  A    
C376  H131  S    
C92   C369  A    
C115  C125  A    
C41   C242  A    
C126  H27   S    
C70   H103  S    
C22   C129  A    
C13   C270  S    
O22   Zn26  S    
C213  C373  A    
C11   C118  A    
O21   Zn25  S    
C45   C262  A    
C371  H126  S    
C40   H178  S    
C288  C341  S    
O25   Zn24  S    
C57   O21   A    
C90   C273  S    
C322  O68   A    
C217  C307  A    
C124  C276  S    
C5    H143  S    
C188  C295  A    
O20   Zn20  S    
C207  C217  A    
C318  O64   A    
C151  C156  A    
C96   C373  A    
C375  H130  S    
C123  H51   S    
C138  H14   S    
C24   O18   A    
C155  H20   S    
C178  C353  A    
C200  C307  A    
C153  C154  A    
C190  O34   A    
C352  O87   A    
C41   H179  S    
C172  C335  A    
C247  C250  A    
O40   Zn1   S    
C206  C310  A    
C198  C361  A    
