data_mof_unit_pretest_984.cif
_audit_creation_date              2012-12-11T17:05:31-0500
_audit_creation_method            fapswitch 2.2
_symmetry_space_group_name_H-M    P1
_symmetry_Int_Tables_number       1
_space_group_crystal_system       triclinic
_cell_length_a                    6.98503
_cell_length_b                    14.51125
_cell_length_c                    16.025679
_cell_angle_alpha                 90.293461
_cell_angle_beta                  90.116524
_cell_angle_gamma                 90.009731
_cell_volume                      1624.36243557

loop_
_atom_site_label
_atom_site_type_symbol
_atom_type_description
_atom_site_fract_x
_atom_site_fract_y
_atom_site_fract_z
_atom_type_partial_charge
O1    O     O_R   0.494380 0.415640 0.412830 -0.536026
O2    O     O_R   0.823960 0.405540 0.586560 -0.552742
O3    O     O_R   0.994270 0.584360 0.587170 -0.544020
C1    C     C_R   0.654982 0.381292 0.613328 0.697325
O4    O     O_R   0.824090 0.404620 0.413450 -0.548138
O5    O     O_R   0.994400 0.583430 0.412820 -0.537389
C2    C     C_R   0.655371 0.383058 0.384156 0.698856
O6    O     O_R   0.494250 0.416570 0.587180 -0.537564
O7    O     O_3   0.660800 0.558670 0.500000 -0.366763
V1    V     V_3+5 0.935650 0.489120 0.500000 1.365042
O8    O     O_R   0.324110 0.594460 0.413440 -0.543106
C3    C     C_R   0.155817 0.615166 0.383642 0.699768
O9    O     O_R   0.323980 0.595380 0.586550 -0.520109
C4    C     C_R   0.155114 0.617799 0.615179 0.699559
V2    V     V_3+5 0.435660 0.510880 0.500000 1.411896
O10   O     O_3   0.160640 0.441330 0.500000 -0.381239
C5    C     C_3   0.932649 0.703983 0.713342 -0.389647
H1    H     H_    0.852862 0.733658 0.659636 0.155994
H2    H     H_    0.857577 0.638833 0.728866 0.153912
C6    C     C_3   0.920168 0.771502 0.787795 -0.345923
H3    H     H_    0.849711 0.737063 0.841261 0.146381
H4    H     H_    0.825509 0.830001 0.770100 0.144382
H5    H     H_    0.136271 0.808013 0.607095 0.120898
H6    H     H_    0.113435 0.912203 0.712957 0.135445
C7    C     C_3   0.225524 0.783015 0.660124 0.039914
C8    C     C_3   0.260209 0.651621 0.765236 0.097192
C9    C     C_3   0.144945 0.686686 0.687110 0.025315
H7    H     H_    0.412251 0.642190 0.746460 0.110217
C10   C     C_3   0.122035 0.808660 0.812358 0.021776
C11   C     C_3   0.207402 0.854431 0.733094 -0.423671
C12   C     C_3   0.256868 0.726204 0.836512 0.100238
H8    H     H_    0.405303 0.754170 0.841356 0.093564
H9    H     H_    0.348852 0.885843 0.748031 0.143073
C13   C     C_R   0.251370 0.741723 0.179975 0.026460
C14   C     C_R   0.117699 0.813033 0.180772 -0.099875
C15   C     C_R   0.984945 0.813815 0.246900 -0.160730
H10   H     H_    0.874756 0.866239 0.249545 0.119559
C16   C     C_R   0.001590 0.750596 0.313437 -0.135890
H11   H     H_    0.906105 0.757365 0.366225 0.137722
C17   C     C_R   0.144831 0.681915 0.313811 -0.128129
C18   C     C_R   0.261699 0.675730 0.242391 0.006718
C19   C     C_3   0.475039 0.665049 0.228026 0.190731
C20   C     C_3   0.459834 0.740928 0.162063 -0.371400
H12   H     H_    0.489096 0.718298 0.096891 0.151669
H13   H     H_    0.530482 0.806780 0.180233 0.176602
C21   C     C_R   0.477793 0.300124 0.726665 0.086633
C22   C     C_R   0.645281 0.312715 0.681559 -0.111346
C23   C     C_R   0.801164 0.257416 0.703532 -0.189558
H14   H     H_    0.924629 0.257403 0.665258 0.136773
C24   C     C_R   0.790775 0.194585 0.769745 -0.197177
H15   H     H_    0.909075 0.148136 0.780035 0.139745
C25   C     C_R   0.623147 0.185966 0.817454 -0.114012
C26   C     C_R   0.468328 0.243101 0.796774 0.092688
C27   C     C_3   0.269608 0.213852 0.775535 -0.449078
C28   C     C_3   0.289447 0.267394 0.694471 -0.174713
H16   H     H_    0.166016 0.245568 0.819689 0.173498
H17   H     H_    0.254132 0.137923 0.768328 0.166132
H18   H     H_    0.190882 0.327105 0.689061 0.125824
C29   C     C_R   0.486047 0.256381 0.305876 0.129629
C30   C     C_R   0.646995 0.312362 0.317066 -0.103413
C31   C     C_R   0.802506 0.297688 0.263017 -0.169281
H19   H     H_    0.927054 0.341348 0.267695 0.137915
C32   C     C_R   0.791519 0.232479 0.197639 -0.190451
H20   H     H_    0.909208 0.227067 0.154282 0.133713
C33   C     C_R   0.623883 0.180517 0.183876 -0.114891
C34   C     C_R   0.475315 0.191063 0.241714 0.101625
C35   C     C_3   0.269920 0.211734 0.225855 -0.426444
C36   C     C_3   0.283679 0.284885 0.293553 -0.406453
H21   H     H_    0.176241 0.152928 0.243128 0.172026
H22   H     H_    0.244828 0.240222 0.162601 0.167674
H23   H     H_    0.193797 0.270921 0.348700 0.176271
H24   H     H_    0.271435 0.356257 0.269418 0.167594
O11   O     O_R   0.771490 0.080820 0.910070 -0.540115
O12   O     O_R   0.441590 0.092730 0.083780 -0.538511
O13   O     O_R   0.271350 0.913900 0.084390 -0.538124
C37   C     C_R   0.610690 0.114668 0.112841 0.692515
O14   O     O_R   0.441780 0.091820 0.910670 -0.539415
O15   O     O_R   0.271540 0.912980 0.910040 -0.544329
C38   C     C_R   0.610594 0.114710 0.882930 0.693679
O16   O     O_R   0.771300 0.081740 0.084420 -0.540080
O17   O     O_3   0.604960 0.938700 0.997240 -0.370496
V3    V     V_3+5 0.330090 0.008230 0.997220 1.381748
O18   O     O_R   0.941820 0.901930 0.910640 -0.542309
C39   C     C_R   0.110509 0.879605 0.882133 0.678048
O19   O     O_R   0.941630 0.902840 0.083750 -0.540408
C40   C     C_R   0.110162 0.881977 0.113158 0.694920
V4    V     V_3+5 0.830090 0.986410 0.997190 1.380912
O20   O     O_3   0.105080 0.055990 0.997200 -0.368897
N1    N     N_3   0.423627 0.776754 0.630181 -0.669647
H25   H     H_    0.458188 0.838685 0.600704 0.219270
H26   H     H_    0.517260 0.770345 0.680720 0.216779
C41   C     C_R   0.541896 0.574952 0.188598 0.121346
C42   C     C_R   0.735426 0.565944 0.165484 -0.131494
C43   C     C_R   0.797566 0.489109 0.120158 -0.154542
C44   C     C_R   0.667109 0.420884 0.096582 -0.057916
C45   C     C_R   0.475464 0.428130 0.120230 -0.089332
C46   C     C_R   0.412861 0.504206 0.166565 -0.164319
H27   H     H_    0.837266 0.619765 0.180620 0.148455
H28   H     H_    0.946222 0.483283 0.101978 0.114251
H29   H     H_    0.714598 0.362225 0.060142 0.098429
H30   H     H_    0.374636 0.375368 0.101554 0.099771
H31   H     H_    0.262857 0.508650 0.182716 0.089513
N2    N     N_3   0.592642 0.693600 0.299401 -0.679116
H32   H     H_    0.524644 0.745692 0.333652 0.229453
H33   H     H_    0.614431 0.637400 0.338722 0.257024
C47   C     C_R   0.299909 0.204162 0.617439 0.139536
C48   C     C_R   0.421401 0.126247 0.614915 -0.125193
C49   C     C_R   0.416994 0.065230 0.547205 -0.144940
C50   C     C_R   0.288585 0.079423 0.481827 -0.093129
C51   C     C_R   0.167205 0.155671 0.483396 -0.138675
C52   C     C_R   0.177114 0.219185 0.549172 -0.138468
H34   H     H_    0.517282 0.111012 0.665829 0.123270
H35   H     H_    0.510666 0.005836 0.546308 0.102312
H36   H     H_    0.282048 0.031008 0.430290 0.104094
H37   H     H_    0.063546 0.164994 0.433935 0.107457
H38   H     H_    0.083860 0.278342 0.547589 0.132703
N3    N     N_3   0.195323 0.560963 0.794768 -0.635406
H39   H     H_    0.212023 0.511856 0.747385 0.203181
H40   H     H_    0.051139 0.562567 0.811548 0.240586
N4    N     N_3   0.211894 0.686019 0.918312 -0.632305
H41   H     H_    0.065385 0.673655 0.923946 0.230012
H42   H     H_    0.250356 0.732559 0.965465 0.209132

loop_
_geom_bond_atom_site_label_1
_geom_bond_atom_site_label_2
_ccdc_geom_bond_type
O18   V4    S    
V4    O20   S    
C32   C33   A    
C42   C43   A    
C48   H34   S    
C44   C45   A    
C8    N3    S    
C1    O6    A    
C19   N2    S    
O17   V3    S    
C26   C27   S    
N4    H41   S    
C8    C9    S    
C33   C37   S    
O12   C37   A    
C43   H28   S    
C15   H10   S    
O16   V4    S    
N3    H40   S    
C29   C34   A    
O5    C3    A    
C16   H11   S    
C14   C40   S    
C47   C48   A    
V2    O10   S    
C5    C6    S    
C49   C50   A    
C13   C14   A    
C18   C19   S    
C31   C32   A    
C51   C52   A    
O11   V4    S    
C21   C22   A    
O8    V2    S    
C22   C23   A    
C21   C28   S    
C24   C25   A    
C48   C49   A    
C52   H38   S    
O1    V2    S    
O9    C4    A    
C4    C9    S    
N1    H26   S    
C25   C38   S    
O7    V1    S    
C46   H31   S    
C6    C10   S    
C23   C24   A    
C34   C35   S    
C8    C12   S    
C45   H30   S    
C31   H19   S    
C13   C18   A    
O12   V3    S    
N4    H42   S    
C41   C46   A    
C24   H15   S    
C47   C52   A    
O14   C38   A    
C27   H16   S    
O19   V4    S    
C35   C36   S    
C5    C9    S    
C10   C39   S    
O4    C2    A    
C44   H29   S    
C28   C47   S    
O19   C40   A    
C30   C31   A    
C35   H21   S    
C14   C15   A    
C49   H35   S    
C3    C17   S    
O2    C1    A    
C20   H12   S    
C10   C11   S    
C29   C36   S    
O15   V3    S    
O13   C40   A    
O18   C39   A    
C36   H24   S    
C45   C46   A    
C5    H1    S    
O11   C38   A    
N2    H33   S    
C20   H13   S    
O17   V4    S    
O3    C4    A    
C50   H36   S    
C17   C18   A    
C6    H4    S    
O6    V2    S    
O9    V2    S    
C19   C20   S    
O2    V1    S    
C2    C30   S    
C25   C26   A    
C7    C11   S    
C27   C28   S    
C23   H14   S    
C11   H9    S    
O1    C2    A    
C7    N1    S    
C12   H8    S    
C13   C20   S    
C37   O16   A    
O5    V1    S    
O8    C3    A    
O13   V3    S    
C7    C9    S    
C8    H7    S    
C35   H22   S    
C15   C16   A    
O7    V2    S    
O4    V1    S    
C10   C12   S    
O3    V1    S    
V1    O10   S    
N3    H39   S    
C16   C17   A    
O14   V3    S    
C36   H23   S    
V3    O20   S    
C51   H37   S    
C21   C26   A    
C41   C42   A    
C5    H2    S    
C19   C41   S    
H5    C7    S    
C43   C44   A    
H6    C11   S    
C12   N4    S    
C32   H20   S    
O15   C39   A    
C29   C30   A    
C6    H3    S    
C33   C34   A    
C28   H18   S    
N2    H32   S    
N1    H25   S    
C50   C51   A    
C42   H27   S    
C1    C22   S    
C27   H17   S    
