data_mof_unit_pretest_1399.cif
_audit_creation_date              2012-12-10T17:02:11-0500
_audit_creation_method            fapswitch 2.2
_symmetry_space_group_name_H-M    P1
_symmetry_Int_Tables_number       1
_space_group_crystal_system       triclinic
_cell_length_a                    10.633224
_cell_length_b                    10.680509
_cell_length_c                    10.034754
_cell_angle_alpha                 89.746439
_cell_angle_beta                  89.923897
_cell_angle_gamma                 90.104272
_cell_volume                      1139.61533264

loop_
_atom_site_label
_atom_site_type_symbol
_atom_type_description
_atom_site_fract_x
_atom_site_fract_y
_atom_site_fract_z
_atom_type_partial_charge
C1    C     C_R   0.508875 0.262697 0.500089 0.925022
C2    C     C_2   0.534489 0.131474 0.502085 -0.449775
C3    C     C_2   0.574005 0.570290 0.924568 -0.124400
C4    C     C_R   0.260551 0.496121 0.500104 0.860811
C5    C     C_2   0.568637 0.575538 0.074512 -0.124483
C6    C     C_R   0.499994 0.737463 0.499567 0.964166
C7    C     C_R   0.739436 0.496653 0.499911 0.862113
C8    C     C_R   0.129974 0.287606 0.626165 -0.286102
C9    C     C_R   0.064101 0.190708 0.688557 -0.208754
C10   C     C_R   0.932997 0.191272 0.692550 0.601795
C11   C     C_R   0.867972 0.288264 0.626896 -0.295473
C12   C     C_R   0.065363 0.388264 0.565375 0.100078
C13   C     C_R   0.933660 0.388368 0.565326 0.033150
C14   C     C_3   0.776248 0.130258 0.838358 -0.313346
C15   C     C_3   0.543649 0.061074 0.160331 -0.313637
C16   C     C_R   0.128197 0.487526 0.499924 -0.070169
C17   C     C_R   0.064519 0.581328 0.431358 -0.206273
C18   C     C_R   0.936070 0.581299 0.431020 -0.202409
C19   C     C_R   0.871670 0.487578 0.499435 -0.055640
C20   C     C_2   0.567359 0.929818 0.404478 -0.274311
C21   C     C_2   0.499052 0.869879 0.496696 -0.390348
C22   C     C_2   0.560008 0.065980 0.391354 0.599062
H1    H     H_    0.114619 0.656107 0.380440 0.153965
H2    H     H_    0.886532 0.656088 0.379920 0.147878
H3    H     H_    0.625275 0.877798 0.334693 0.165821
H4    H     H_    0.437737 0.916269 0.567327 0.142314
H5    H     H_    0.689219 0.153090 0.782396 0.167662
H6    H     H_    0.806245 0.211143 0.900613 0.169124
H7    H     H_    0.752963 0.052145 0.907368 0.190994
H8    H     H_    0.446235 0.025124 0.175541 0.164143
H9    H     H_    0.608926 0.983787 0.134602 0.153910
H10   H     H_    0.541179 0.125892 0.073667 0.179477
H11   H     H_    0.533212 0.088023 0.600054 0.121944
H12   H     H_    0.641960 0.630182 0.874660 0.168062
H13   H     H_    0.432444 0.449461 0.898175 0.163432
H14   H     H_    0.626732 0.644988 0.123614 0.152408
H15   H     H_    0.451664 0.431008 0.102572 0.169768
H16   H     H_    0.231436 0.281483 0.624307 0.172319
H17   H     H_    0.115521 0.114314 0.734125 0.159773
H18   H     H_    0.766794 0.282906 0.621341 0.157969
N1    N     N_2   0.501340 0.501330 0.852150 -0.194140
N2    N     N_2   0.501380 0.501360 0.147810 -0.183385
O1    O     O_R   0.499980 0.319060 0.613040 -0.648522
O2    O     O_3   0.587963 0.127781 0.271986 -0.575882
O3    O     O_R   0.500020 0.319100 0.386900 -0.543200
O4    O     O_R   0.316750 0.499980 0.613090 -0.615513
O5    O     O_R   0.316790 0.500020 0.386950 -0.614226
O6    O     O_R   0.499980 0.680900 0.613100 -0.605898
O7    O     O_R   0.500020 0.680940 0.386960 -0.616779
O8    O     O_R   0.683210 0.499980 0.613050 -0.620405
O9    O     O_R   0.683250 0.500020 0.386910 -0.606970
O10   O     O_3   0.872113 0.089873 0.751036 -0.610668
Zn1   Zn    Zn3+2 0.499970 0.499970 0.650990 0.933009
Zn2   Zn    Zn3+2 0.500030 0.500030 0.349010 0.970541

loop_
_geom_bond_atom_site_label_1
_geom_bond_atom_site_label_2
_ccdc_geom_bond_type
C10   O10   S    
C2    C22   D    
C21   H4    S    
C15   H9    S    
C14   H5    S    
C9    C10   A    
C8    C12   A    
O9    Zn2   S    
C1    O3    A    
O1    Zn1   S    
C17   C18   A    
C7    O9    A    
C15   H10   S    
C4    O4    A    
N2    Zn2   S    
C12   C13   A    
C11   C13   A    
N1    Zn1   S    
C17   H1    S    
C6    O6    A    
O5    Zn2   S    
C18   H2    S    
C2    H11   S    
C4    C16   S    
C20   C22   S    
O3    Zn2   S    
C1    C2    S    
C7    C19   S    
C8    H16   S    
C6    O7    A    
O6    Zn1   S    
H13   N1    S    
C14   O10   S    
O8    Zn1   S    
C16   C17   A    
C20   H3    S    
C13   C19   A    
C14   H7    S    
C11   H18   S    
C5    H14   S    
C12   C16   A    
C9    H17   S    
C5    N2    D    
C20   C21   D    
O4    Zn1   S    
C15   H8    S    
C18   C19   A    
C10   C11   A    
H15   N2    S    
C15   O2    S    
C3    N1    D    
C3    H12   S    
C14   H6    S    
C6    C21   S    
C1    O1    A    
C22   O2    S    
O7    Zn2   S    
C7    O8    A    
C8    C9    A    
C3    C5    S    
C4    O5    A    
