data_mof_unit_pretest_787.cif
_audit_creation_date              2012-12-11T16:22:15-0500
_audit_creation_method            fapswitch 2.2
_symmetry_space_group_name_H-M    P1
_symmetry_Int_Tables_number       1
_space_group_crystal_system       triclinic
_cell_length_a                    19.568394
_cell_length_b                    6.939407
_cell_length_c                    17.777562
_cell_angle_alpha                 90.000071
_cell_angle_beta                  107.985253
_cell_angle_gamma                 90.0
_cell_volume                      2296.10833522

loop_
_atom_site_label
_atom_site_type_symbol
_atom_type_description
_atom_site_fract_x
_atom_site_fract_y
_atom_site_fract_z
_atom_type_partial_charge
O1    O     O_R   0.561700 0.369960 0.440190 -0.545293
O2    O     O_R   0.061700 0.630040 0.940190 -0.545292
O3    O     O_R   0.413790 0.033680 0.407460 -0.543630
O4    O     O_R   0.913790 0.966320 0.907460 -0.543630
O5    O     O_R   0.438300 0.869760 0.559810 -0.534901
O6    O     O_R   0.938300 0.130240 0.059810 -0.534901
C1    C     C_R   0.386664 0.203825 0.384821 0.739088
C2    C     C_R   0.886664 0.796175 0.884821 0.739088
O7    O     O_R   0.559630 0.039830 0.430710 -0.544831
O8    O     O_R   0.059630 0.960170 0.930710 -0.544831
O9    O     O_R   0.585190 0.875950 0.583220 -0.538932
O10   O     O_R   0.085190 0.124050 0.083220 -0.538932
C3    C     C_R   0.581369 0.209105 0.415772 0.696575
C4    C     C_R   0.081369 0.790895 0.915771 0.696574
O11   O     O_R   0.414810 0.363770 0.416780 -0.545828
O12   O     O_R   0.914810 0.636230 0.916780 -0.545828
O13   O     O_3   0.508210 0.205480 0.550010 -0.358424
O14   O     O_3   0.008210 0.794520 0.050010 -0.358423
V1    V     V_3+5 0.498480 0.928140 0.490720 1.446481
V2    V     V_3+5 0.998480 0.071860 0.990720 1.446481
O15   O     O_R   0.586210 0.546600 0.592540 -0.538328
O16   O     O_R   0.086210 0.453400 0.092540 -0.538328
C5    C     C_R   0.613437 0.715997 0.615468 0.774358
C6    C     C_R   0.113437 0.284003 0.115468 0.774358
O17   O     O_R   0.440370 0.540460 0.569290 -0.524899
O18   O     O_R   0.940370 0.459540 0.069290 -0.524898
C7    C     C_R   0.419265 0.709230 0.584497 0.756409
C8    C     C_R   0.919265 0.290770 0.084497 0.756409
V3    V     V_3+5 0.501520 0.428910 0.509280 1.475528
V4    V     V_3+5 0.001520 0.571090 0.009280 1.475529
O19   O     O_3   0.491790 0.701440 0.449990 -0.382205
O20   O     O_3   0.991790 0.298560 0.949990 -0.382205
C9    C     C_R   0.252830 0.784042 0.646367 -0.109984
C10   C     C_R   0.752831 0.215950 0.146368 -0.109984
H1    H     H_    0.197143 0.822623 0.618204 0.133008
H2    H     H_    0.697144 0.177362 0.118205 0.133006
C11   C     C_R   0.299438 0.774410 0.600424 -0.196459
C12   C     C_R   0.799439 0.225581 0.100425 -0.196457
H3    H     H_    0.278997 0.806946 0.537847 0.127153
H4    H     H_    0.778998 0.193039 0.037849 0.127154
C13   C     C_R   0.371486 0.720065 0.634480 -0.099617
C14   C     C_R   0.871486 0.279935 0.134480 -0.099618
C15   C     C_R   0.397026 0.680732 0.716133 0.253444
C16   C     C_R   0.897026 0.319277 0.216133 0.253443
C17   C     C_R   0.350503 0.694777 0.762226 -0.050880
C18   C     C_R   0.850502 0.305231 0.262226 -0.050882
H5    H     H_    0.371493 0.669324 0.825283 0.177575
H6    H     H_    0.871492 0.330689 0.325283 0.177576
C19   C     C_R   0.277540 0.741823 0.727653 0.063003
C20   C     C_R   0.777540 0.258177 0.227654 0.063003
C21   C     C_R   0.220990 0.597627 0.826037 0.275680
C22   C     C_R   0.720990 0.402374 0.326037 0.275678
C23   C     C_R   0.173117 0.612077 0.870435 -0.177262
C24   C     C_R   0.673116 0.387923 0.370435 -0.177261
H7    H     H_    0.169030 0.492329 0.907904 0.151807
H8    H     H_    0.669030 0.507671 0.407904 0.151807
C25   C     C_R   0.131302 0.778523 0.867414 -0.106510
C26   C     C_R   0.631302 0.221477 0.367414 -0.106510
C27   C     C_R   0.137667 0.930451 0.817809 -0.132670
C28   C     C_R   0.637668 0.069549 0.317809 -0.132670
H9    H     H_    0.105937 0.060179 0.813619 0.140888
H10   H     H_    0.605937 0.939820 0.313619 0.140889
C29   C     C_R   0.184309 0.915407 0.771990 -0.115471
C30   C     C_R   0.684310 0.084593 0.271991 -0.115470
H11   H     H_    0.187368 0.034075 0.733620 0.165609
H12   H     H_    0.687368 0.965924 0.233620 0.165608
C31   C     C_R   0.227424 0.750901 0.776199 0.034724
C32   C     C_R   0.727424 0.249099 0.276199 0.034725
C33   C     C_2   0.712590 0.896898 0.710840 -0.101546
C34   C     C_2   0.212590 0.103102 0.210840 -0.101546
C35   C     C_2   0.680218 0.726853 0.683575 -0.270642
C36   C     C_2   0.180218 0.273147 0.183575 -0.270642
H13   H     H_    0.688454 0.029716 0.682502 0.140245
H14   H     H_    0.188454 0.970284 0.182502 0.140245
H15   H     H_    0.702126 0.591660 0.710930 0.128908
H16   H     H_    0.202126 0.408340 0.210930 0.128908
C37   C     C_2   0.779957 0.920920 0.778556 -0.127565
C38   C     C_2   0.279957 0.079080 0.278556 -0.127566
C39   C     C_2   0.820281 0.773747 0.817240 -0.294613
C40   C     C_2   0.320281 0.226252 0.317240 -0.294612
H17   H     H_    0.796833 0.067481 0.796445 0.133890
H18   H     H_    0.296833 0.932519 0.296445 0.133890
H19   H     H_    0.804538 0.626766 0.799781 0.133375
H20   H     H_    0.304538 0.373233 0.299781 0.133375
Br1   Br    Br    0.495553 0.613348 0.767323 -0.519659
Br2   Br    Br    0.995551 0.386671 0.267322 -0.519658
Br3   Br    Br    0.272973 0.360227 0.833142 -0.587601
Br4   Br    Br    0.772973 0.639775 0.333142 -0.587603

loop_
_geom_bond_atom_site_label_1
_geom_bond_atom_site_label_2
_ccdc_geom_bond_type
C35   H15   S    
C29   H11   S    
C34   C38   S    
O13   V3    S    
C33   C37   S    
O4    C2    A    
V1    O19   S    
O9    V1    S    
C30   C32   A    
C12   H4    S    
C12   C14   A    
O3    C1    A    
C24   C26   A    
C38   C40   D    
C25   C27   A    
O12   V4    S    
C28   H10   S    
C17   H5    S    
C8    C14   S    
C33   C35   D    
C7    C13   S    
O7    C3    A    
C1    O11   A    
O5    C7    A    
O7    V1    S    
O6    C8    A    
O8    V2    S    
C34   H14   S    
C2    C39   S    
O3    V1    S    
O14   V4    S    
C37   H17   S    
V4    O20   S    
C19   C31   S    
C10   H2    S    
C22   C32   A    
C36   H16   S    
C22   C24   A    
C37   C39   D    
C2    O12   A    
C13   C15   A    
C14   C16   A    
C16   Br2   S    
C16   C18   A    
O11   V3    S    
C24   H8    S    
C23   H7    S    
O17   V3    S    
C29   C31   A    
C10   C20   A    
C27   H9    S    
C40   H20   S    
C15   Br1   S    
C5    C35   S    
C22   Br4   S    
O8    C4    A    
C21   Br3   S    
C23   C25   A    
O13   V1    S    
C3    C26   S    
O15   V3    S    
C9    C11   A    
C21   C23   A    
C30   H12   S    
C38   H18   S    
C17   C19   A    
O10   V2    S    
O1    V3    S    
C21   C31   A    
C33   H13   S    
C15   C17   A    
O18   V4    S    
O15   C5    A    
O16   C6    A    
O1    C3    A    
C6    C36   S    
V2    O20   S    
C4    C25   S    
O10   C6    A    
O16   V4    S    
C10   C12   A    
O18   C8    A    
O5    V1    S    
O17   C7    A    
O6    V2    S    
C18   C20   A    
C27   C29   A    
O2    V4    S    
C28   C30   A    
V3    O19   S    
C39   H19   S    
C20   C32   S    
O9    C5    A    
C9    H1    S    
O14   V2    S    
C11   C13   A    
O2    C4    A    
O4    V2    S    
C18   H6    S    
C11   H3    S    
C9    C19   A    
C34   C36   D    
C26   C28   A    
C1    C40   S    
