data_mof_unit_pretest_156.cif
_audit_creation_date              2012-12-10T17:41:02-0500
_audit_creation_method            fapswitch 2.2
_symmetry_space_group_name_H-M    P1
_symmetry_Int_Tables_number       1
_space_group_crystal_system       triclinic
_cell_length_a                    14.73968
_cell_length_b                    15.444677
_cell_length_c                    9.955907
_cell_angle_alpha                 89.87708
_cell_angle_beta                  90.820451
_cell_angle_gamma                 90.360749
_cell_volume                      2266.1761415

loop_
_atom_site_label
_atom_site_type_symbol
_atom_type_description
_atom_site_fract_x
_atom_site_fract_y
_atom_site_fract_z
_atom_type_partial_charge
C1    C     C_R   0.383578 0.877361 0.499889 0.875026
C2    C     C_R   0.669812 0.260610 0.444412 -0.221750
C3    C     C_R   0.211548 0.276356 0.383700 -0.205044
C4    C     C_R   0.179942 0.751674 0.421746 -0.218327
C5    C     C_R   0.683596 0.808976 0.506979 -0.105942
C6    C     C_R   0.690880 0.180929 0.501544 -0.054273
C7    C     C_R   0.176875 0.303957 0.506176 -0.112485
C8    C     C_R   0.193019 0.678861 0.501533 -0.061627
C9    C     C_R   0.327244 0.009334 0.125716 0.390714
C10   C     C_R   0.828985 0.519061 0.126152 0.395274
C11   C     C_R   0.248975 0.018048 0.044304 -0.360787
C12   C     C_R   0.386199 0.125094 0.500328 0.880934
C13   C     C_R   0.752892 0.539770 0.045599 -0.364360
C14   C     C_R   0.252174 0.012532 0.907231 0.510579
C15   C     C_R   0.754943 0.535202 0.907839 0.531362
C16   C     C_R   0.336776 0.004588 0.848947 -0.274538
C17   C     C_R   0.837456 0.513590 0.849816 -0.282408
C18   C     C_R   0.418443 0.002886 0.923819 0.027233
C19   C     C_R   0.918965 0.507889 0.924121 0.027061
C20   C     C_R   0.416603 0.003776 0.068180 0.108249
C21   C     C_R   0.917350 0.508984 0.068279 0.107476
C22   C     C_R   0.577885 0.996216 0.073134 -0.096752
C23   C     C_R   0.881567 0.379142 0.499728 0.873647
C24   C     C_R   0.077471 0.491469 0.073139 -0.084079
C25   C     C_R   0.621077 0.118187 0.500510 0.851081
C26   C     C_R   0.617012 0.876876 0.501726 0.844129
C27   C     C_R   0.121844 0.617446 0.500568 0.854196
C28   C     C_R   0.115170 0.375721 0.501481 0.846623
C29   C     C_R   0.577826 0.996492 0.930482 -0.097278
C30   C     C_R   0.077435 0.491755 0.930454 -0.083602
C31   C     C_R   0.349199 0.228091 0.747859 -0.258978
C32   C     C_R   0.420568 0.718484 0.652789 -0.270044
C33   C     C_R   0.860805 0.734909 0.744082 -0.202895
C34   C     C_R   0.888317 0.626373 0.500123 0.866645
C35   C     C_R   0.931153 0.210592 0.606179 -0.276023
C36   C     C_R   0.309270 0.243987 0.871229 -0.198108
C37   C     C_R   0.433039 0.644233 0.731190 -0.272289
C38   C     C_R   0.823603 0.752752 0.868699 -0.226410
C39   C     C_R   0.952293 0.129541 0.659573 -0.261957
C40   C     C_R   0.732221 0.773764 0.878251 0.615394
C41   C     C_R   0.886104 0.064259 0.663740 0.594499
C42   C     C_R   0.217486 0.263968 0.877261 0.626714
C43   C     C_R   0.366455 0.578735 0.732072 0.594320
C44   C     C_R   0.682344 0.789029 0.758574 -0.273955
C45   C     C_R   0.283384 0.220921 0.382284 -0.214054
C46   C     C_R   0.799690 0.080085 0.609804 -0.277249
C47   C     C_R   0.170050 0.280706 0.756034 -0.280857
C48   C     C_R   0.287694 0.589762 0.655162 -0.264467
C49   C     C_R   0.722865 0.780124 0.630687 0.053991
C50   C     C_R   0.777176 0.162441 0.556849 0.017421
C51   C     C_R   0.213229 0.272865 0.630009 0.052914
C52   C     C_R   0.272694 0.665951 0.578993 0.018067
C53   C     C_R   0.297628 0.232871 0.626953 0.117227
C54   C     C_R   0.339422 0.730992 0.577913 0.101670
C55   C     C_R   0.807142 0.739803 0.625377 0.115909
C56   C     C_R   0.244589 0.815109 0.420973 -0.216622
C57   C     C_R   0.843206 0.228142 0.555407 0.101776
C58   C     C_R   0.325832 0.197660 0.502995 -0.130970
C59   C     C_R   0.322707 0.805995 0.499578 -0.097246
C60   C     C_R   0.832422 0.702317 0.501935 -0.139208
C61   C     C_R   0.819426 0.309071 0.499431 -0.077976
C62   C     C_3   0.167436 0.966454 0.720615 -0.327791
C63   C     C_3   0.675563 0.533727 0.699664 -0.391652
C64   C     C_3   0.608384 0.751998 0.016110 -0.354962
C65   C     C_3   0.911436 0.984180 0.851476 -0.315852
C66   C     C_3   0.092009 0.237767 0.009269 -0.360825
C67   C     C_R   0.790375 0.726761 0.381679 -0.207506
C68   C     C_3   0.454142 0.463208 0.800570 -0.309368
C69   C     C_R   0.734044 0.324864 0.443933 -0.210843
C70   C     C_R   0.718924 0.782636 0.384139 -0.209275
H1    H     H_    0.305198 0.196122 0.286323 0.192066
H2    H     H_    0.474906 0.765563 0.651704 0.169870
H3    H     H_    0.931655 0.717154 0.741564 0.183872
H4    H     H_    0.984431 0.258629 0.602850 0.156916
H5    H     H_    0.349069 0.237225 0.962901 0.149290
H6    H     H_    0.494172 0.638515 0.791636 0.168542
H7    H     H_    0.865014 0.746158 0.958831 0.146854
H8    H     H_    0.020492 0.117225 0.696360 0.184185
H9    H     H_    0.611800 0.804586 0.767480 0.165912
H10   H     H_    0.751118 0.027253 0.609402 0.167261
H11   H     H_    0.099483 0.297497 0.761802 0.167632
H12   H     H_    0.232021 0.872586 0.361800 0.180217
H13   H     H_    0.239317 0.536947 0.655569 0.177201
H14   H     H_    0.690635 0.804145 0.289065 0.208257
H15   H     H_    0.602912 0.273360 0.402318 0.144269
H16   H     H_    0.183388 0.297633 0.288240 0.211189
H17   H     H_    0.118309 0.760349 0.362473 0.156040
H18   H     H_    0.641752 0.993026 0.127762 0.155550
H19   H     H_    0.140980 0.484476 0.127766 0.163867
H20   H     H_    0.182701 0.024345 0.089010 0.163104
H21   H     H_    0.687900 0.552095 0.091242 0.163513
H22   H     H_    0.197052 0.901384 0.740573 0.171921
H23   H     H_    0.811234 0.701469 0.285540 0.189910
H24   H     H_    0.200932 0.998432 0.634220 0.165826
H25   H     H_    0.095303 0.956151 0.691523 0.228261
H26   H     H_    0.690253 0.464358 0.680237 0.175198
H27   H     H_    0.724026 0.577263 0.648410 0.189998
H28   H     H_    0.607868 0.547719 0.655336 0.186853
H29   H     H_    0.600310 0.688672 0.964134 0.197212
H30   H     H_    0.557681 0.799412 0.978411 0.180178
H31   H     H_    0.593815 0.740346 0.123550 0.190491
H32   H     H_    0.845161 0.003526 0.894198 0.157513
H33   H     H_    0.966743 0.027671 0.888710 0.179172
H34   H     H_    0.716454 0.387549 0.402825 0.157822
H35   H     H_    0.926809 0.918041 0.888493 0.202439
H36   H     H_    0.086804 0.174776 0.955148 0.186193
H37   H     H_    0.040433 0.284071 0.970734 0.181322
H38   H     H_    0.076244 0.224734 0.116043 0.194168
H39   H     H_    0.508330 0.495328 0.860973 0.218977
H40   H     H_    0.473561 0.457070 0.693283 0.149566
H41   H     H_    0.446398 0.396613 0.840851 0.196506
H42   H     H_    0.249978 0.017283 0.283360 0.301924
H43   H     H_    0.750323 0.517008 0.282562 0.300807
H44   H     H_    0.336220 0.000614 0.744086 0.239186
H45   H     H_    0.836907 0.500171 0.746761 0.233276
H46   H     H_    0.641723 0.993511 0.878553 0.149008
H47   H     H_    0.140981 0.484978 0.878545 0.168176
H48   H     H_    0.420697 0.212770 0.748432 0.183981
N1    N     N_R   0.498810 0.000000 0.142780 -0.100512
N2    N     N_R   0.998810 0.500000 0.142780 -0.105001
N3    N     N_R   0.498740 0.000000 0.857170 -0.105261
N4    N     N_R   0.998740 0.500000 0.857170 -0.109224
O1    O     O_R   0.408390 0.908380 0.614690 -0.657744
O2    O     O_R   0.591620 0.908390 0.614640 -0.639505
O3    O     O_R   0.091620 0.591610 0.614640 -0.626589
O4    O     O_R   0.091620 0.408390 0.614640 -0.637105
O5    O     O_R   0.591610 0.091610 0.385310 -0.616180
O6    O     O_R   0.591610 0.908390 0.385310 -0.620907
O7    O     O_R   0.091610 0.591610 0.385310 -0.617687
O8    O     O_R   0.091610 0.408390 0.385310 -0.620240
O9    O     O_3   0.171055 0.020651 0.834774 -0.622312
O10   O     O_3   0.673375 0.550794 0.838706 -0.632551
O11   O     O_3   0.697207 0.786045 0.005771 -0.638619
O12   O     O_R   0.408390 0.091620 0.614690 -0.649563
O13   O     O_3   0.907165 0.982333 0.709978 -0.619291
O14   O     O_3   0.179748 0.274739 0.003206 -0.632364
O15   O     O_3   0.371244 0.506789 0.815594 -0.618759
O16   O     O_3   0.312848 0.001092 0.259690 -0.719364
O17   O     O_3   0.812542 0.499816 0.257165 -0.713810
O18   O     O_R   0.908390 0.408380 0.614690 -0.655532
O19   O     O_R   0.908390 0.591620 0.614690 -0.653366
O20   O     O_R   0.408370 0.908380 0.385360 -0.534764
O21   O     O_R   0.408370 0.091620 0.385360 -0.556531
O22   O     O_R   0.908370 0.408380 0.385360 -0.531741
O23   O     O_R   0.908370 0.591620 0.385360 -0.560472
O24   O     O_R   0.591620 0.091610 0.614640 -0.623996
Zn1   Zn    Zn3+2 0.500010 0.000000 0.653130 0.919726
Zn2   Zn    Zn3+2 0.000010 0.500000 0.653130 0.921642
Zn3   Zn    Zn3+2 0.499980 0.000000 0.346870 0.987592
Zn4   Zn    Zn3+2 0.999980 0.500000 0.346870 0.989037

loop_
_geom_bond_atom_site_label_1
_geom_bond_atom_site_label_2
_ccdc_geom_bond_type
C44   C49   A    
C33   C55   A    
C38   C40   A    
C34   O19   A    
N1    Zn3   S    
C22   C29   A    
C45   H1    S    
C36   C42   A    
C66   H37   S    
C4    C8    A    
C24   H19   S    
O18   Zn2   S    
C39   C41   A    
C4    H17   S    
O12   Zn1   S    
O20   Zn3   S    
C19   C21   A    
C63   H28   S    
C3    C7    A    
C1    C59   S    
C34   O23   A    
C6    C25   S    
C2    H15   S    
C42   O14   S    
C65   H35   S    
C56   C59   A    
O22   Zn4   S    
C1    O20   A    
O19   Zn2   S    
C17   C19   A    
C64   H29   S    
C15   O10   S    
C30   N4    A    
C60   C67   A    
C52   C54   A    
C62   H22   S    
O8    Zn4   S    
C41   C46   A    
H43   O17   S    
C25   O24   A    
N4    Zn2   S    
C2    C69   A    
C70   H14   S    
C43   C48   A    
C8    C52   A    
C40   C44   A    
C28   O8    A    
O23   Zn4   S    
C54   C59   A    
C12   C58   S    
C12   O12   A    
C55   C60   A    
C4    C56   A    
C3    H16   S    
C34   C60   S    
C5    C49   A    
C68   O15   S    
C2    C6    A    
C26   O2    A    
C65   H32   S    
C66   H36   S    
C32   C54   A    
C28   O4    A    
C14   O9    S    
C10   C21   A    
C22   N1    A    
O2    Zn1   S    
C45   C58   A    
C24   N2    A    
C39   H8    S    
H42   O16   S    
C23   O18   A    
C32   H2    S    
C68   H40   S    
O4    Zn2   S    
C47   C51   A    
C64   H31   S    
C63   O10   S    
C63   H26   S    
C3    C45   A    
C6    C50   A    
C7    C28   S    
C29   N3    A    
C51   C53   A    
C68   H41   S    
C37   C43   A    
C35   C39   A    
C1    O1    A    
C31   H48   S    
C5    C70   A    
C36   H5    S    
C9    O16   S    
C9    C20   A    
C23   C61   S    
C35   H4    S    
N3    Zn1   S    
C26   O6    A    
C32   C37   A    
C31   C53   A    
C57   C61   A    
C9    C11   A    
C65   O13   S    
C66   O14   S    
C33   H3    S    
C38   H7    S    
C37   H6    S    
O1    Zn1   S    
C22   H18   S    
C62   H24   S    
C27   O7    A    
C14   C16   A    
C23   O22   A    
C10   O17   S    
C65   H33   S    
C41   O13   S    
C17   H45   S    
O24   Zn1   S    
C69   H34   S    
C61   C69   A    
C15   C17   A    
C64   O11   S    
C68   H39   S    
C62   H25   S    
C50   C57   A    
C62   O9    S    
C29   H46   S    
C44   H9    S    
C66   H38   S    
C10   C13   A    
C16   H44   S    
C53   C58   A    
C12   O21   A    
C56   H12   S    
C30   H47   S    
C21   N2    A    
C40   O11   S    
C46   C50   A    
N2    Zn4   S    
C33   C38   A    
O3    Zn2   S    
C48   H13   S    
C35   C57   A    
C67   C70   A    
C13   C15   A    
C25   O5    A    
C64   H30   S    
C7    C51   A    
O7    Zn4   S    
C63   H27   S    
C49   C55   A    
O5    Zn3   S    
C46   H10   S    
C27   O3    A    
C11   H20   S    
C19   N4    A    
C11   C14   A    
C43   O15   S    
C18   C20   A    
C42   C47   A    
C47   H11   S    
C24   C30   A    
C18   N3    A    
C5    C26   S    
O6    Zn3   S    
O21   Zn3   S    
C16   C18   A    
C67   H23   S    
C8    C27   S    
C31   C36   A    
C48   C52   A    
C20   N1    A    
C13   H21   S    
