data_mof_unit_pretest_122.cif
_audit_creation_date              2012-12-11T15:10:50-0500
_audit_creation_method            fapswitch 2.2
_symmetry_space_group_name_H-M    P1
_symmetry_Int_Tables_number       1
_space_group_crystal_system       triclinic
_cell_length_a                    21.165616
_cell_length_b                    7.236253
_cell_length_c                    18.2659
_cell_angle_alpha                 88.700294
_cell_angle_beta                  93.162251
_cell_angle_gamma                 89.283153
_cell_volume                      2792.35681119

loop_
_atom_site_label
_atom_site_type_symbol
_atom_type_description
_atom_site_fract_x
_atom_site_fract_y
_atom_site_fract_z
_atom_type_partial_charge
O1    O     O_R   0.448880 0.506250 0.415280 -0.530147
O2    O     O_R   0.551120 0.006250 0.584720 -0.539012
O3    O     O_R   0.434830 0.174000 0.557310 -0.529281
O4    O     O_R   0.565170 0.674000 0.442690 -0.516017
C1    C     C_R   0.417031 0.344249 0.579693 0.700712
C2    C     C_R   0.584391 0.845298 0.422303 0.697661
O5    O     O_R   0.441680 0.176440 0.414130 -0.544879
O6    O     O_R   0.558320 0.676440 0.585870 -0.522694
O7    O     O_R   0.558020 0.007570 0.440520 -0.518439
O8    O     O_R   0.441980 0.507570 0.559480 -0.522015
C3    C     C_R   0.429957 0.347425 0.386969 0.777387
C4    C     C_R   0.572769 0.842755 0.611375 0.715091
O9    O     O_3   0.538160 0.339670 0.508820 -0.357626
O10   O     O_3   0.461840 0.839670 0.491180 -0.377350
V1    V     V_3+5 0.492920 0.064260 0.498360 1.404928
V2    V     V_3+5 0.507080 0.564260 0.501640 1.463592
C5    C     C_R   0.864391 0.100720 0.695044 -0.088858
C6    C     C_R   0.132508 0.425744 0.308337 -0.074379
C7    C     C_R   0.887023 0.958371 0.817244 -0.237228
C8    C     C_R   0.118445 0.423416 0.175408 -0.247052
C9    C     C_R   0.582551 0.810712 0.747353 0.303887
C10   C     C_R   0.423873 0.413728 0.252665 0.247556
C11   C     C_R   0.614151 0.849265 0.814450 0.287212
C12   C     C_R   0.397732 0.363798 0.183252 0.263532
C13   C     C_R   0.681433 0.870738 0.819773 0.259763
C14   C     C_R   0.333606 0.305257 0.177948 0.357918
C15   C     C_R   0.714387 0.888683 0.753526 -0.017288
C16   C     C_R   0.293764 0.326099 0.238643 -0.056452
C17   C     C_R   0.677588 0.891887 0.685036 -0.070428
C18   C     C_R   0.327019 0.326179 0.309001 -0.084626
C19   C     C_R   0.781628 0.923983 0.752815 0.025190
C20   C     C_R   0.224351 0.343276 0.235848 0.033706
C21   C     C_R   0.805530 0.007270 0.688998 -0.078326
C22   C     C_R   0.194596 0.349091 0.304570 -0.051090
C23   C     C_R   0.769786 0.992663 0.621079 0.003062
C24   C     C_R   0.229034 0.285230 0.369220 -0.008977
C25   C     C_R   0.707113 0.935600 0.620312 -0.145910
C26   C     C_R   0.294458 0.288434 0.371868 -0.157592
C27   C     C_R   0.826864 0.873165 0.811352 0.413489
C28   C     C_R   0.182989 0.366359 0.170507 0.359408
C29   C     C_R   0.904640 0.077231 0.759306 -0.151981
C30   C     C_R   0.094572 0.460919 0.243757 -0.127432
C31   C     C_R   0.612258 0.845317 0.681706 -0.234583
C32   C     C_R   0.392645 0.362108 0.315613 -0.226791
H1    H     H_    0.681242 0.924940 0.567749 0.123548
H2    H     H_    0.320007 0.260235 0.423990 0.136597
C33   C     C_1   0.866570 0.939577 0.134758 -0.178221
C34   C     C_1   0.135570 0.440002 0.868006 -0.180113
C35   C     C_1   0.824880 0.927381 0.180141 0.018027
C36   C     C_1   0.178512 0.425966 0.824328 0.024267
C37   C     C_1   0.775246 0.909482 0.233558 0.021419
C38   C     C_1   0.229066 0.406645 0.772193 0.018966
C39   C     C_1   0.733139 0.893211 0.278241 0.007015
C40   C     C_1   0.271541 0.389719 0.728077 0.012415
C41   C     C_1   0.682685 0.873881 0.330529 0.015701
C42   C     C_1   0.321928 0.370058 0.675777 0.009566
C43   C     C_1   0.639016 0.858815 0.373264 -0.160243
C44   C     C_1   0.364753 0.355374 0.631997 -0.173565
O11   O     O_R   0.058070 0.289240 0.940580 -0.522018
O12   O     O_R   0.941930 0.789240 0.059420 -0.515107
O13   O     O_R   0.058330 0.616740 0.085880 -0.536094
O14   O     O_R   0.941670 0.116740 0.914120 -0.548951
C45   C     C_R   0.074921 0.445031 0.108878 0.762220
C46   C     C_R   0.927474 0.951179 0.887804 0.761033
O15   O     O_R   0.065180 0.619040 0.942700 -0.525136
O16   O     O_R   0.934820 0.119040 0.057300 -0.514572
O17   O     O_R   0.948870 0.787780 0.915270 -0.516591
O18   O     O_R   0.051130 0.287780 0.084730 -0.532939
C47   C     C_R   0.083123 0.450764 0.920124 0.691515
C48   C     C_R   0.917319 0.950194 0.080471 0.717313
O19   O     O_3   0.961870 0.453310 0.991210 -0.365009
O20   O     O_3   0.038130 0.953310 0.008790 -0.381541
V3    V     V_3+5 0.007070 0.728770 0.001630 1.455891
V4    V     V_3+5 0.992930 0.228770 0.998370 1.456591
C49   C     C_2   0.966283 0.174494 0.765347 0.838698
O21   O     O_2   0.015298 0.086264 0.779345 -0.548460
O22   O     O_R   0.967985 0.366673 0.756016 -0.670579
H3    H     H_    0.012484 0.416472 0.761859 0.298658
C50   C     C_2   0.029895 0.542666 0.247283 0.831823
O23   O     O_2   0.983920 0.460062 0.221939 -0.549438
O24   O     O_R   0.021995 0.714747 0.279110 -0.639980
H4    H     H_    0.976024 0.756439 0.277758 0.313526
C51   C     C_2   0.798018 0.009785 0.548606 0.791303
O25   O     O_2   0.850993 0.946894 0.540337 -0.523760
O26   O     O_R   0.762709 0.090093 0.488895 -0.660898
H5    H     H_    0.786528 0.090968 0.442232 0.311708
C52   C     C_2   0.198527 0.204216 0.433805 0.794831
O27   O     O_2   0.149501 0.117670 0.425161 -0.517777
O28   O     O_R   0.227074 0.221010 0.504221 -0.665152
H6    H     H_    0.202149 0.158559 0.543409 0.313551
C53   C     C_2   0.880025 0.242138 0.638630 0.858701
O29   O     O_2   0.931952 0.240643 0.612362 -0.493133
O30   O     O_R   0.834713 0.376394 0.615459 -0.673476
H7    H     H_    0.850584 0.465143 0.577077 0.324024
C54   C     C_2   0.109771 0.489971 0.379422 0.878497
O31   O     O_2   0.057421 0.446556 0.398665 -0.500389
O32   O     O_R   0.148833 0.599623 0.424287 -0.649288
H8    H     H_    0.128531 0.634160 0.471159 0.327801
O33   O     O_3   0.815949 0.722321 0.856411 -0.563064
C55   C     C_3   0.830542 0.557107 0.819826 0.114597
H9    H     H_    0.875987 0.498632 0.844100 0.168345
H10   H     H_    0.836524 0.576420 0.759675 0.114789
C56   C     C_3   0.777770 0.416846 0.828496 -0.318818
H11   H     H_    0.731056 0.486507 0.817630 0.190257
H12   H     H_    0.781577 0.308518 0.786957 0.174930
C57   C     C_3   0.781166 0.323840 0.904512 -0.709670
H13   H     H_    0.819997 0.219404 0.908949 0.221270
H14   H     H_    0.735887 0.253936 0.913862 0.225422
H15   H     H_    0.789893 0.426127 0.947876 0.238120
O34   O     O_3   0.206477 0.353408 0.101622 -0.565051
C58   C     C_3   0.187719 0.189285 0.064667 0.145949
H16   H     H_    0.223534 0.162428 0.024181 0.168471
H17   H     H_    0.144609 0.214220 0.029763 0.111341
C59   C     C_3   0.181302 0.013045 0.113251 -0.351770
H18   H     H_    0.219342 0.004943 0.157507 0.205749
H19   H     H_    0.135275 0.017203 0.139674 0.200762
C60   C     C_3   0.184438 0.838098 0.068317 -0.757779
H20   H     H_    0.146734 0.838761 0.024039 0.251695
H21   H     H_    0.179188 0.716524 0.104992 0.244215
H22   H     H_    0.230150 0.824134 0.042415 0.213943
O35   O     O_3   0.525446 0.718073 0.748551 -0.560180
C61   C     C_3   0.473325 0.830414 0.723002 0.136279
H23   H     H_    0.459803 0.795830 0.665383 0.132276
H24   H     H_    0.482934 0.981042 0.724510 0.083851
C62   C     C_3   0.417199 0.785365 0.769185 -0.326062
H25   H     H_    0.403148 0.639804 0.760265 0.195825
H26   H     H_    0.431343 0.799061 0.828246 0.207541
C63   C     C_3   0.360614 0.912668 0.749271 -0.827270
H27   H     H_    0.372632 0.057479 0.762486 0.228320
H28   H     H_    0.319955 0.870604 0.781455 0.241598
H29   H     H_    0.346557 0.904243 0.689948 0.245374
O36   O     O_3   0.481727 0.499015 0.260096 -0.570196
C64   C     C_3   0.470692 0.693127 0.257206 0.092305
H30   H     H_    0.458798 0.740247 0.312329 0.152931
H31   H     H_    0.431173 0.736467 0.217200 0.076646
C65   C     C_3   0.530243 0.791281 0.234338 -0.360011
H32   H     H_    0.571687 0.731699 0.266217 0.212659
H33   H     H_    0.538025 0.768205 0.175952 0.185111
C66   C     C_3   0.525486 0.999415 0.244476 -0.786294
H34   H     H_    0.486610 0.057463 0.207805 0.253045
H35   H     H_    0.570382 0.065398 0.230198 0.236704
H36   H     H_    0.515889 0.031891 0.301813 0.236627
O37   O     O_3   0.713714 0.903847 0.887013 -0.564971
C67   C     C_3   0.698196 0.775135 0.942917 0.164500
H37   H     H_    0.693441 0.632708 0.921799 0.124662
H38   H     H_    0.653792 0.816143 0.967625 0.144161
C68   C     C_3   0.748649 0.775418 0.006196 -0.310269
H39   H     H_    0.795609 0.736133 0.987072 0.232437
H40   H     H_    0.752269 0.917013 0.028271 0.185981
C69   C     C_3   0.731658 0.640804 0.067600 -0.859457
H41   H     H_    0.689460 0.692636 0.094807 0.232128
H42   H     H_    0.771823 0.626202 0.109004 0.251578
H43   H     H_    0.721389 0.501821 0.045690 0.226581
O38   O     O_3   0.311624 0.218309 0.115045 -0.540192
C70   C     C_3   0.345800 0.053392 0.101257 0.166143
H44   H     H_    0.313719 0.934788 0.103850 0.112868
H45   H     H_    0.383861 0.016206 0.143798 0.071490
C71   C     C_3   0.373521 0.069639 0.025053 -0.240827
H46   H     H_    0.370947 0.215344 0.004448 0.223136
H47   H     H_    0.424365 0.030660 0.030169 0.179364
C72   C     C_3   0.340058 0.949788 0.967544 -0.855588
H48   H     H_    0.339129 0.803367 0.986714 0.231762
H49   H     H_    0.365752 0.957444 0.916291 0.232466
H50   H     H_    0.291012 0.000493 0.954720 0.234506
O39   O     O_3   0.577046 0.865642 0.874212 -0.570774
C73   C     C_3   0.574432 0.052520 0.896413 0.045649
H51   H     H_    0.621241 0.121084 0.897541 0.134778
H52   H     H_    0.559434 0.051742 0.953749 0.139081
C74   C     C_3   0.526181 0.167299 0.848463 -0.348349
H53   H     H_    0.543413 0.184263 0.792405 0.187350
H54   H     H_    0.480077 0.095924 0.845833 0.207034
C75   C     C_3   0.516194 0.358489 0.879287 -0.777858
H55   H     H_    0.482360 0.439217 0.842223 0.257918
H56   H     H_    0.561674 0.433476 0.884153 0.245767
H57   H     H_    0.495887 0.345345 0.933782 0.218419
O40   O     O_3   0.435705 0.310395 0.127029 -0.585678
C76   C     C_3   0.478906 0.439457 0.101087 0.093811
H58   H     H_    0.509847 0.360677 0.065437 0.120719
H59   H     H_    0.512418 0.490125 0.143421 0.172493
C77   C     C_3   0.446084 0.592484 0.053358 -0.348231
H60   H     H_    0.414212 0.528205 0.011093 0.202934
H61   H     H_    0.416966 0.681320 0.087417 0.182503
C78   C     C_3   0.494242 0.710844 0.014709 -0.815361
H62   H     H_    0.515584 0.812833 0.052731 0.215879
H63   H     H_    0.470469 0.786450 0.967167 0.254643
H64   H     H_    0.532834 0.625081 0.993841 0.243608

loop_
_geom_bond_atom_site_label_1
_geom_bond_atom_site_label_2
_ccdc_geom_bond_type
C73   H52   S    
C52   O27   D    
O39   C73   S    
C70   H45   S    
C74   H53   S    
C54   O31   D    
O1    C3    A    
C68   H39   S    
C34   C47   S    
C78   H62   S    
O2    C4    A    
C63   H27   S    
C2    O7    A    
C59   H18   S    
C33   C35   T    
O22   H3    S    
C75   H55   S    
O5    C3    A    
C8    C30   A    
O30   H7    S    
C1    C44   S    
C68   H40   S    
C12   C14   A    
C4    C31   S    
C60   H21   S    
C8    C28   A    
C66   H36   S    
C15   C17   A    
C57   H13   S    
O18   V4    S    
O37   C67   S    
O16   V4    S    
O32   H8    S    
O12   V3    S    
O15   V3    S    
C18   C26   A    
O13   C45   A    
O34   C58   S    
O14   C46   A    
C71   C72   S    
C11   O39   S    
C9    C11   A    
C56   H12   S    
C10   C32   A    
C58   H16   S    
C77   H61   S    
O36   C64   S    
C35   C37   S    
C69   H43   S    
C5    C53   S    
C62   C63   S    
C36   C38   S    
C19   C21   A    
O17   V3    S    
C56   C57   S    
C22   C24   A    
C77   C78   S    
C34   C36   T    
C62   H25   S    
C30   C50   S    
O6    V2    S    
C9    C31   A    
C17   C31   A    
C70   C71   S    
C71   H47   S    
C6    C54   S    
C74   H54   S    
C2    C43   S    
C18   C32   A    
C13   O37   S    
C5    C21   A    
C67   C68   S    
C72   H49   S    
C38   C40   T    
C72   H48   S    
C39   C41   S    
C24   C52   S    
C40   C42   S    
C15   C19   A    
C46   O17   A    
C16   C20   A    
C68   C69   S    
O4    C2    A    
C60   H22   S    
C53   O29   D    
C50   O24   S    
C23   C51   S    
O20   V3    S    
C28   O34   S    
O13   V3    S    
O26   H5    S    
C55   C56   S    
O24   H4    S    
C37   C39   T    
C65   C66   S    
C71   H46   S    
O4    V2    S    
C49   O21   D    
C33   C48   S    
C53   O30   S    
C64   H30   S    
C49   O22   S    
C27   O33   S    
C51   O25   D    
C19   C27   A    
O12   C48   A    
C7    C46   S    
O6    C4    A    
C76   C77   S    
C55   H10   S    
O35   C61   S    
C3    C32   S    
C58   H17   S    
O1    V2    S    
C54   O32   S    
O2    V1    S    
C6    C22   A    
O11   V4    S    
O38   C70   S    
C7    C27   A    
C29   C49   S    
O11   C47   A    
C64   C65   S    
C67   H38   S    
O40   C76   S    
C51   O26   S    
C41   C43   T    
C73   H51   S    
C74   C75   S    
C10   C12   A    
C78   H64   S    
C25   H1    S    
C24   C26   A    
C12   O40   S    
C63   H29   S    
C56   H11   S    
C72   H50   S    
O3    V1    S    
C77   H60   S    
C23   C25   A    
C65   H33   S    
C62   H26   S    
C45   O18   A    
C10   O36   S    
C69   H41   S    
C75   H56   S    
C65   H32   S    
O3    C1    A    
C63   H28   S    
O19   V4    S    
C59   H19   S    
C66   H34   S    
C75   H57   S    
C13   C15   A    
C14   C16   A    
O33   C55   S    
C67   H37   S    
C61   C62   S    
C6    C30   A    
O28   H6    S    
C16   C18   A    
O8    V2    S    
C60   H20   S    
C66   H35   S    
O16   C48   A    
C57   H14   S    
C76   H59   S    
C8    C45   S    
O15   C47   A    
O5    V1    S    
C55   H9    S    
C21   C23   A    
C42   C44   T    
C58   C59   S    
C69   H42   S    
C20   C28   A    
C9    O35   S    
C5    C29   A    
C26   H2    S    
C59   C60   S    
C14   O38   S    
C50   O23   D    
C1    O8    A    
C11   C13   A    
C73   C74   S    
C76   H58   S    
O9    V2    S    
C17   C25   A    
C70   H44   S    
C64   H31   S    
C52   O28   S    
O10   V1    S    
O14   V4    S    
C78   H63   S    
C61   H23   S    
C61   H24   S    
C7    C29   A    
O7    V1    S    
C20   C22   A    
C57   H15   S    
