data_mof_unit_pretest_1200.cif
_audit_creation_date              2012-10-26T21:21:53-0400
_audit_creation_method            fapswitch 2.2
_symmetry_space_group_name_H-M    P1
_symmetry_Int_Tables_number       1
_space_group_crystal_system       triclinic
_cell_length_a                    18.047926
_cell_length_b                    18.640879
_cell_length_c                    11.782147
_cell_angle_alpha                 89.511585
_cell_angle_beta                  76.603535
_cell_angle_gamma                 89.792722
_cell_volume                      3855.85685452

loop_
_atom_site_label
_atom_site_type_symbol
_atom_type_description
_atom_site_fract_x
_atom_site_fract_y
_atom_site_fract_z
_atom_type_partial_charge
C1    C     C_R   0.397810 0.098359 0.520945 0.537917
C2    C     C_R   0.463859 0.007691 0.037436 -0.079033
C3    C     C_R   0.036066 0.498834 0.963487 -0.082736
C4    C     C_R   0.963859 0.507691 0.037436 -0.079024
C5    C     C_R   0.409890 0.009539 0.863813 0.367415
C6    C     C_R   0.590918 0.997622 0.136409 0.373353
C7    C     C_R   0.909890 0.509537 0.863813 0.367412
C8    C     C_R   0.090918 0.497620 0.136409 0.373360
C9    C     C_R   0.401851 0.017384 0.985251 -0.172851
C10   C     C_R   0.599621 0.999303 0.013860 -0.180685
C11   C     C_R   0.901850 0.517381 0.985251 -0.172845
C12   C     C_R   0.599990 0.899497 0.478851 0.535599
C13   C     C_R   0.099621 0.499302 0.013860 -0.180681
C14   C     C_R   0.543436 0.992966 0.839954 0.371445
C15   C     C_R   0.456220 0.009387 0.161305 0.378664
C16   C     C_R   0.043437 0.492966 0.839954 0.371442
C17   C     C_R   0.956220 0.509392 0.161305 0.378663
C18   C     C_R   0.658225 0.155940 0.466763 -0.008805
C19   C     C_R   0.346874 0.839362 0.532464 -0.007642
C20   C     C_R   0.336241 0.149971 0.531631 -0.000449
C21   C     C_R   0.656895 0.842900 0.464470 -0.005058
C22   C     C_R   0.158230 0.655936 0.466762 -0.008801
C23   C     C_R   0.600889 0.099777 0.478712 0.532272
C24   C     C_R   0.846873 0.339363 0.532463 -0.007641
C25   C     C_R   0.836242 0.649971 0.531631 -0.000454
C26   C     C_R   0.156895 0.342900 0.464470 -0.005056
C27   C     C_R   0.263161 0.752999 0.652678 -0.142370
C28   C     C_R   0.744716 0.239813 0.346005 -0.145402
C29   C     C_R   0.773861 0.790902 0.352489 -0.145219
C30   C     C_R   0.215439 0.197205 0.638715 -0.153034
C31   C     C_R   0.763182 0.252981 0.652668 -0.142369
C32   C     C_R   0.244747 0.739786 0.345996 -0.145405
C33   C     C_R   0.273863 0.290903 0.352489 -0.145218
C34   C     C_R   0.400607 0.898842 0.521057 0.517923
C35   C     C_R   0.715441 0.697207 0.638715 -0.153034
C36   C     C_R   0.316817 0.807463 0.641735 -0.144057
C37   C     C_R   0.688302 0.188030 0.357695 -0.148034
C38   C     C_R   0.715758 0.841160 0.363120 -0.140129
C39   C     C_R   0.277289 0.151558 0.632746 -0.144082
C40   C     C_R   0.816834 0.307449 0.641728 -0.144054
C41   C     C_R   0.188327 0.688009 0.357686 -0.148034
C42   C     C_R   0.215759 0.341161 0.363120 -0.140129
C43   C     C_R   0.777291 0.651559 0.632746 -0.144083
C44   C     C_R   0.325300 0.814079 0.433308 -0.139011
C45   C     C_R   0.897809 0.598359 0.520945 0.537914
C46   C     C_R   0.683598 0.177367 0.564951 -0.127430
C47   C     C_R   0.653665 0.791298 0.551963 -0.140102
C48   C     C_R   0.334342 0.195392 0.437423 -0.121128
C49   C     C_R   0.825282 0.314096 0.433311 -0.139005
C50   C     C_R   0.183587 0.677377 0.564956 -0.127423
C51   C     C_R   0.153663 0.291296 0.551963 -0.140101
C52   C     C_R   0.834342 0.695391 0.437423 -0.121135
C53   C     C_R   0.270063 0.761263 0.443945 0.050960
C54   C     C_R   0.738801 0.230341 0.554466 0.046430
C55   C     C_R   0.713661 0.743283 0.545066 0.046567
C56   C     C_R   0.099990 0.399497 0.478851 0.535599
C57   C     C_R   0.274142 0.243005 0.444263 0.044649
C58   C     C_R   0.770048 0.261277 0.443948 0.050960
C59   C     C_R   0.238795 0.730345 0.554470 0.046433
C60   C     C_R   0.213660 0.243282 0.545066 0.046567
C61   C     C_R   0.774142 0.743005 0.444263 0.044644
C62   C     C_3   0.715372 0.031794 0.134947 -0.024686
C63   C     C_3   0.771364 0.033499 0.213712 -0.369323
C64   C     C_3   0.290461 0.966907 0.863508 -0.020598
C65   C     C_3   0.231878 0.964317 0.789185 -0.368855
C66   C     C_3   0.215377 0.531785 0.134945 -0.024693
C67   C     C_R   0.100889 0.599776 0.478711 0.532273
C68   C     C_3   0.271364 0.533489 0.213718 -0.369329
C69   C     C_3   0.790467 0.466895 0.863497 -0.020589
C70   C     C_3   0.731882 0.464308 0.789177 -0.368846
C71   C     C_3   0.330040 0.983247 0.251398 -0.011359
C72   C     C_3   0.253495 0.021619 0.269746 -0.391595
C73   C     C_3   0.643991 0.916078 0.777519 -0.005088
C74   C     C_3   0.725317 0.911824 0.704550 -0.363155
C75   C     C_3   0.830038 0.483272 0.251418 -0.011352
C76   C     C_3   0.753498 0.521651 0.269751 -0.391603
C77   C     C_3   0.143992 0.416077 0.777519 -0.005076
C78   C     C_R   0.900607 0.398842 0.521056 0.517916
C79   C     C_3   0.225319 0.411822 0.704553 -0.363147
C80   C     C_R   0.536066 0.998834 0.963487 -0.082735
Cu1   Cu    Cu3+1 0.507800 0.000000 0.383250 1.031815
Cu2   Cu    Cu3+1 0.492200 0.000000 0.616750 1.034145
Cu3   Cu    Cu3+1 0.007800 0.500000 0.383250 1.031807
Cu4   Cu    Cu3+1 0.992200 0.500000 0.616750 1.034139
H1    H     H_    0.660460 0.153046 0.649647 0.144369
H2    H     H_    0.334654 0.824546 0.718716 0.121894
H3    H     H_    0.278318 0.116555 0.705981 0.170356
H4    H     H_    0.717679 0.879615 0.293256 0.166504
H5    H     H_    0.168527 0.672927 0.281314 0.129339
H6    H     H_    0.834684 0.324521 0.718703 0.121884
H7    H     H_    0.778320 0.616556 0.705980 0.170355
H8    H     H_    0.217680 0.379616 0.293256 0.166506
H9    H     H_    0.740156 0.229275 0.737802 0.101222
H10   H     H_    0.267808 0.763624 0.260962 0.093402
H11   H     H_    0.319534 0.290898 0.274389 0.107921
H12   H     H_    0.350726 0.835690 0.347634 0.102030
H13   H     H_    0.669881 0.697422 0.716947 0.100200
H14   H     H_    0.240120 0.729307 0.737817 0.101223
H15   H     H_    0.767761 0.263665 0.260977 0.093402
H16   H     H_    0.819532 0.790896 0.274388 0.107925
H17   H     H_    0.169878 0.197419 0.716946 0.100199
H18   H     H_    0.346888 0.031996 0.037231 0.133469
H19   H     H_    0.656011 0.999849 0.957777 0.123766
H20   H     H_    0.846886 0.531989 0.037231 0.133467
H21   H     H_    0.156012 0.499849 0.957776 0.123769
H22   H     H_    0.697077 0.087769 0.121570 0.116026
H23   H     H_    0.380281 0.194396 0.359548 0.136487
H24   H     H_    0.746460 0.008932 0.050477 0.113760
H25   H     H_    0.799523 0.980452 0.213674 0.129818
H26   H     H_    0.815745 0.074666 0.181491 0.096996
H27   H     H_    0.741472 0.046397 0.304495 0.176748
H28   H     H_    0.260083 0.982733 0.952971 0.107493
H29   H     H_    0.314855 0.912135 0.866682 0.112312
H30   H     H_    0.260352 0.955299 0.696329 0.172559
H31   H     H_    0.191030 0.919988 0.819949 0.096688
H32   H     H_    0.199818 0.015648 0.796244 0.131558
H33   H     H_    0.197087 0.587761 0.121560 0.116020
H34   H     H_    0.605312 0.789269 0.625975 0.092781
H35   H     H_    0.246466 0.508919 0.050477 0.113761
H36   H     H_    0.299534 0.480446 0.213655 0.129804
H37   H     H_    0.315735 0.574668 0.181517 0.097003
H38   H     H_    0.241467 0.546367 0.304508 0.176759
H39   H     H_    0.760088 0.482712 0.952965 0.107485
H40   H     H_    0.814867 0.412125 0.866654 0.112321
H41   H     H_    0.760356 0.455292 0.696320 0.172552
H42   H     H_    0.691035 0.419980 0.819939 0.096689
H43   H     H_    0.699823 0.515639 0.796239 0.131563
H44   H     H_    0.328556 0.954043 0.333250 0.170323
H45   H     H_    0.160434 0.653070 0.649658 0.144362
H46   H     H_    0.335201 0.943282 0.180191 0.082152
H47   H     H_    0.250077 0.054706 0.192496 0.143586
H48   H     H_    0.206775 0.981539 0.285373 0.094849
H49   H     H_    0.245513 0.057200 0.346864 0.169188
H50   H     H_    0.608077 0.875265 0.749424 0.142947
H51   H     H_    0.645287 0.900599 0.867972 0.098463
H52   H     H_    0.762042 0.949427 0.739374 0.138305
H53   H     H_    0.747775 0.856525 0.708040 0.110256
H54   H     H_    0.727302 0.926639 0.612479 0.172433
H55   H     H_    0.828552 0.454083 0.333283 0.170328
H56   H     H_    0.850691 0.335721 0.347641 0.102025
H57   H     H_    0.835194 0.443295 0.180228 0.082150
H58   H     H_    0.750081 0.554724 0.192487 0.143588
H59   H     H_    0.706773 0.481575 0.285401 0.094848
H60   H     H_    0.745522 0.557246 0.346852 0.169191
H61   H     H_    0.108077 0.375265 0.749423 0.142946
H62   H     H_    0.145284 0.400596 0.867974 0.098458
H63   H     H_    0.262046 0.449423 0.739380 0.138300
H64   H     H_    0.247776 0.356523 0.708040 0.110254
H65   H     H_    0.227308 0.426639 0.612481 0.172428
H66   H     H_    0.880279 0.694394 0.359547 0.136501
H67   H     H_    0.105310 0.289267 0.625974 0.092779
H68   H     H_    0.668489 0.172959 0.281329 0.129331
N1    N     N_R   0.519530 0.000000 0.207810 -0.206706
N2    N     N_R   0.480470 0.000000 0.792190 -0.208824
N3    N     N_R   0.019530 0.500000 0.207810 -0.206707
N4    N     N_R   0.980470 0.500000 0.792190 -0.208827
O1    O     O_R   0.430030 0.075530 0.417420 -0.463418
O2    O     O_R   0.583140 0.924490 0.385390 -0.458502
O3    O     O_R   0.583140 0.075510 0.385390 -0.487634
O4    O     O_R   0.416860 0.924490 0.614610 -0.493364
O5    O     O_R   0.916860 0.575510 0.614610 -0.459613
O6    O     O_R   0.083140 0.424490 0.385390 -0.458500
O7    O     O_R   0.083140 0.575510 0.385390 -0.487633
O8    O     O_R   0.916860 0.424490 0.614610 -0.493365
O9    O     O_3   0.652592 0.988191 0.187310 -0.527181
O10   O     O_3   0.347560 0.017387 0.814751 -0.528542
O11   O     O_3   0.152593 0.488187 0.187309 -0.527185
O12   O     O_R   0.569970 0.924470 0.582580 -0.492575
O13   O     O_3   0.847560 0.517384 0.814752 -0.528544
O14   O     O_3   0.389175 0.034724 0.232914 -0.529698
O15   O     O_3   0.614935 0.985958 0.766339 -0.532217
O16   O     O_3   0.889180 0.534743 0.232907 -0.529706
O17   O     O_3   0.114936 0.485956 0.766340 -0.532214
O18   O     O_R   0.569970 0.075530 0.582580 -0.477102
O19   O     O_R   0.430030 0.924470 0.417420 -0.522048
O20   O     O_R   0.930030 0.575530 0.417420 -0.463420
O21   O     O_R   0.069970 0.424470 0.582580 -0.492573
O22   O     O_R   0.069970 0.575530 0.582580 -0.477103
O23   O     O_R   0.930030 0.424470 0.417420 -0.522060
O24   O     O_R   0.416860 0.075510 0.614610 -0.459612

loop_
_geom_bond_atom_site_label_1
_geom_bond_atom_site_label_2
_ccdc_geom_bond_type
C16   O17   S    
C70   H43   S    
C66   C68   S    
C27   H14   S    
C78   O8    A    
C8    C13   A    
Cu1   O3    S    
C25   C45   S    
C65   H30   S    
C32   H10   S    
C39   H3    S    
C25   C43   A    
Cu1   Cu2   S    
C53   C59   A    
C17   O16   S    
C48   C57   A    
C23   O18   A    
Cu2   O12   S    
C7    C11   A    
C74   H54   S    
C26   C42   A    
C66   O11   S    
C50   C59   A    
Cu1   O19   S    
C10   H19   S    
C8    O11   S    
C18   C37   A    
C52   C61   A    
C1    O24   A    
C64   H28   S    
C22   C41   A    
Cu3   N3    S    
C69   H39   S    
C5    N2    A    
C33   H11   S    
Cu1   N1    S    
C31   C40   A    
C73   C74   S    
C8    N3    A    
C45   O5    A    
C64   O10   S    
C34   O19   A    
C75   H57   S    
C44   C53   A    
C47   H34   S    
C21   C38   A    
Cu2   O18   S    
C9    H18   S    
C66   H33   S    
C23   O3    A    
C29   C38   A    
C16   N4    A    
C33   C57   A    
C32   C41   A    
C11   H20   S    
Cu1   O2    S    
C14   C80   A    
C73   O15   S    
C35   C43   A    
C3    C13   A    
C22   C50   A    
C46   H1    S    
C70   H42   S    
C6    O9    S    
C51   H67   S    
Cu3   O20   S    
C14   N2    A    
C65   H31   S    
Cu4   O21   S    
C18   C46   A    
C72   H48   S    
C56   O21   A    
C77   C79   S    
C74   H53   S    
C29   C61   A    
Cu1   O1    S    
C7    N4    A    
C35   C55   A    
C18   C23   S    
C73   H51   S    
C13   H21   S    
C45   O20   A    
C68   H38   S    
C20   C39   A    
C10   C80   A    
C57   C60   A    
C79   H63   S    
C69   H40   S    
C36   H2    S    
C31   H9    S    
C72   H49   S    
C12   C21   S    
C19   C34   S    
C43   H7    S    
C49   C58   A    
C78   O23   A    
C15   O14   S    
C74   H52   S    
Cu2   N2    S    
C63   H25   S    
C75   C76   S    
C5    C9    A    
C62   C63   S    
C44   H12   S    
C50   H45   S    
Cu2   O4    S    
Cu3   Cu4   S    
C46   C54   A    
C71   O14   S    
C69   O13   S    
C5    O10   S    
C4    C11   A    
Cu4   O22   S    
C2    C15   A    
C20   C48   A    
C4    C17   A    
C76   H60   S    
C70   H41   S    
C24   C78   S    
Cu3   O6    S    
C66   H35   S    
C7    O13   S    
C65   H32   S    
C71   H44   S    
C33   C42   A    
C37   H68   S    
C3    C4    A    
C17   N3    A    
C77   H61   S    
C32   C53   A    
C30   C60   A    
C19   C44   A    
C28   H15   S    
C72   H47   S    
C47   C55   A    
C54   C58   A    
C24   C49   A    
Cu3   O7    S    
C1    C20   S    
C77   O17   S    
C64   H29   S    
C29   H16   S    
C41   H5    S    
C38   H4    S    
C14   O15   S    
C67   O22   A    
C26   C56   S    
C68   H37   S    
C6    C10   A    
C79   H64   S    
C62   H22   S    
C28   C58   A    
C27   C36   A    
Cu3   O23   S    
C79   H65   S    
C19   C36   A    
C12   O2    A    
C64   C65   S    
C63   H26   S    
C1    O1    A    
C25   C52   A    
C71   C72   S    
C75   H55   S    
C26   C51   A    
C68   H36   S    
C71   H46   S    
Cu4   N4    S    
Cu4   O8    S    
C28   C37   A    
C55   C61   A    
C30   H17   S    
C24   C40   A    
C30   C39   A    
C42   H8    S    
C31   C54   A    
C63   H27   S    
C69   C70   S    
C22   C67   S    
C15   N1    A    
C6    N1    A    
C2    C80   A    
C3    C16   A    
C48   H23   S    
C76   H59   S    
C67   O7    A    
C62   O9    S    
C62   H24   S    
C73   H50   S    
C52   H66   S    
C12   O12   A    
C49   H56   S    
Cu2   O24   S    
C75   O16   S    
C27   C59   A    
C51   C60   A    
C40   H6    S    
C35   H13   S    
C2    C9    A    
C77   H62   S    
Cu4   O5    S    
C56   O6    A    
C76   H58   S    
C21   C47   A    
C34   O4    A    
