data_mof_unit_pretest_1260.cif
_audit_creation_date              2012-12-10T19:15:20-0500
_audit_creation_method            fapswitch 2.2
_symmetry_space_group_name_H-M    P1
_symmetry_Int_Tables_number       1
_space_group_crystal_system       triclinic
_cell_length_a                    10.802087
_cell_length_b                    9.846561
_cell_length_c                    23.292542
_cell_angle_alpha                 88.991563
_cell_angle_beta                  91.159738
_cell_angle_gamma                 90.329205
_cell_volume                      2476.54701773

loop_
_atom_site_label
_atom_site_type_symbol
_atom_type_description
_atom_site_fract_x
_atom_site_fract_y
_atom_site_fract_z
_atom_type_partial_charge
C1    C     C_R   0.259565 0.499651 0.503720 0.831886
C2    C     C_R   0.235166 0.629741 0.969789 -0.041161
C3    C     C_R   0.246796 0.631414 0.029828 -0.105922
C4    C     C_R   0.344032 0.564367 0.058828 -0.061033
C5    C     C_R   0.431667 0.493023 0.027650 -0.011031
C6    C     C_R   0.530119 0.425927 0.056773 -0.020749
C7    C     C_R   0.618594 0.356167 0.025700 -0.127120
C8    C     C_R   0.610329 0.353799 0.966226 -0.125584
C9    C     C_R   0.357475 0.569467 0.118678 0.535080
C10   C     C_R   0.537759 0.430327 0.116595 0.529693
C11   C     C_R   0.570090 0.557536 0.233701 -0.044255
C12   C     C_R   0.497897 0.500601 0.389524 0.840005
C13   C     C_R   0.584868 0.552439 0.293384 -0.077442
C14   C     C_R   0.487121 0.500620 0.326966 -0.217006
C15   C     C_R   0.379245 0.445965 0.300166 -0.046175
C16   C     C_R   0.369086 0.449307 0.240338 -0.037974
C17   C     C_R   0.463169 0.505646 0.207368 0.189623
C18   C     C_R   0.429096 0.606761 0.760792 -0.140591
C19   C     C_R   0.454862 0.613043 0.702786 -0.092774
C20   C     C_R   0.462122 0.493608 0.671426 -0.059572
C21   C     C_R   0.428979 0.369197 0.697478 -0.268834
C22   C     C_R   0.398623 0.361873 0.755383 0.037864
C23   C     C_R   0.742808 0.499757 0.504355 0.876944
C24   C     C_R   0.405233 0.481629 0.787794 0.293522
C25   C     C_3   0.080301 0.631045 0.539102 -0.219880
C26   C     C_3   0.079681 0.368228 0.541974 -0.199946
C27   C     C_3   0.934888 0.641192 0.534972 -0.086401
C28   C     C_3   0.934689 0.371811 0.548520 -0.126948
C29   C     C_3   0.070958 0.496539 0.447558 -0.408529
C30   C     C_3   0.124925 0.499033 0.509655 -0.089463
C31   C     C_3   0.881700 0.499130 0.510124 -0.106710
C32   C     C_3   0.930325 0.484660 0.447900 -0.425873
C33   C     C_3   0.383915 0.080675 0.472476 -0.289315
C34   C     C_3   0.379191 0.919795 0.477647 -0.272934
C35   C     C_3   0.606031 0.081790 0.466450 -0.170029
C36   C     C_3   0.598378 0.921443 0.461540 -0.150068
C37   C     C_3   0.505654 0.078374 0.558507 -0.168356
C38   C     C_3   0.517114 0.916883 0.558123 -0.165707
C39   C     C_R   0.492487 0.498599 0.610411 0.937483
C40   C     C_R   0.504497 0.418741 0.877179 0.575416
C41   C     C_R   0.312886 0.539124 0.877617 0.541384
C42   C     C_R   0.321654 0.554331 0.937812 -0.110489
C43   C     C_R   0.421459 0.488798 0.967362 -0.001373
C44   C     C_R   0.512371 0.419357 0.936807 -0.016973
N1    N     N_R   0.405407 0.476525 0.849107 -0.329866
N2    N     N_R   0.452947 0.502605 0.146157 -0.352387
N3    N     N_3   0.499750 0.138610 0.498760 -0.130209
N4    N     N_3   0.499750 0.861390 0.498760 -0.130323
O1    O     O_R   0.314910 0.616040 0.499990 -0.610711
O2    O     O_R   0.314910 0.383960 0.499990 -0.659936
O3    O     O_R   0.500080 0.616070 0.416130 -0.625371
O4    O     O_R   0.500080 0.383930 0.416130 -0.625447
O5    O     O_R   0.685320 0.616040 0.499970 -0.627213
O6    O     O_R   0.685320 0.383960 0.499970 -0.650653
O7    O     O_R   0.500150 0.616010 0.583820 -0.580185
O8    O     O_R   0.500150 0.383990 0.583820 -0.664216
O9    O     O_2   0.595567 0.361414 0.847124 -0.522287
O10   O     O_2   0.212707 0.583047 0.847458 -0.542723
O11   O     O_2   0.276565 0.641454 0.149218 -0.524937
O12   O     O_2   0.628500 0.361873 0.145164 -0.524963
Zn1   Zn    Zn3+2 0.500150 0.654960 0.499970 0.962123
Zn2   Zn    Zn3+2 0.500150 0.345040 0.499970 0.916050
C45   C     C_2   0.137545 0.716715 0.942767 0.523340
H1    H     H_    0.152968 0.769318 0.902283 0.125992
O13   O     O_2   0.039446 0.734274 0.966660 -0.532990
H2    H     H_    0.469647 0.711237 0.682937 0.221810
H3    H     H_    0.423909 0.277731 0.672467 0.191202
C46   C     C_2   0.361654 0.228237 0.780207 0.517307
H4    H     H_    0.372271 0.136931 0.755344 0.086819
O14   O     O_2   0.316350 0.218250 0.827696 -0.543521
H5    H     H_    0.119805 0.717053 0.513469 0.223083
H6    H     H_    0.102746 0.285150 0.511903 0.170544
C47   C     C_2   0.136877 0.648747 0.598904 0.336018
H7    H     H_    0.107655 0.585751 0.634633 0.136658
O15   O     O_2   0.214252 0.737203 0.607806 -0.558279
C48   C     C_2   0.155382 0.326559 0.595049 0.532669
H8    H     H_    0.221981 0.395275 0.614398 0.012844
O16   O     O_2   0.144233 0.212559 0.615864 -0.496383
C49   C     C_2   0.880658 0.680975 0.592452 0.410534
H9    H     H_    0.921782 0.764775 0.615961 0.159414
O17   O     O_2   0.788268 0.627190 0.611879 -0.573030
C50   C     C_2   0.888334 0.379807 0.610076 0.609019
H10   H     H_    0.790052 0.368920 0.617413 0.083389
O18   O     O_2   0.955762 0.400333 0.651689 -0.541465
C51   C     C_2   0.905391 0.762219 0.494756 0.326996
H11   H     H_    0.853274 0.750936 0.455093 0.135416
O19   O     O_2   0.941714 0.876405 0.506499 -0.542040
C52   C     C_2   0.891485 0.233190 0.527620 0.319444
H12   H     H_    0.868282 0.217340 0.483102 0.147254
O20   O     O_2   0.896075 0.133222 0.559495 -0.505229
H13   H     H_    0.098651 0.590034 0.423289 0.200221
H14   H     H_    0.107065 0.408268 0.424257 0.201271
H15   H     H_    0.891785 0.561740 0.417753 0.181232
H16   H     H_    0.901244 0.387710 0.428376 0.226459
H17   H     H_    0.374213 0.112862 0.426708 0.142650
H18   H     H_    0.349725 0.875109 0.436206 0.153036
H19   H     H_    0.181219 0.689320 0.053977 0.225565
H20   H     H_    0.301682 0.122809 0.493742 0.194183
H21   H     H_    0.304175 0.889916 0.507474 0.209573
C53   C     C_2   0.623088 0.152094 0.408746 0.593831
H22   H     H_    0.550461 0.148092 0.375950 0.042676
O21   O     O_2   0.719646 0.210777 0.397523 -0.586113
C54   C     C_2   0.589403 0.875238 0.399821 0.432042
H23   H     H_    0.501665 0.868637 0.376759 0.073208
O22   O     O_2   0.683857 0.854619 0.373561 -0.567733
C55   C     C_2   0.604485 0.144215 0.595609 0.463891
H24   H     H_    0.674029 0.207274 0.576544 0.099323
O23   O     O_2   0.606713 0.126146 0.647623 -0.544159
C56   C     C_2   0.636184 0.869432 0.587165 0.584947
H25   H     H_    0.724091 0.883762 0.566737 0.068859
O24   O     O_2   0.636349 0.829787 0.637045 -0.516168
H26   H     H_    0.417344 0.102828 0.580024 0.172273
H27   H     H_    0.441181 0.875758 0.585209 0.202651
H28   H     H_    0.691806 0.101947 0.491292 0.140738
H29   H     H_    0.688189 0.881440 0.476738 0.149642
H30   H     H_    0.695067 0.304156 0.047149 0.206793
H31   H     H_    0.680740 0.299885 0.943416 0.208441
H32   H     H_    0.643016 0.598342 0.207068 0.198537
C57   C     C_2   0.705063 0.593410 0.319798 0.567476
H33   H     H_    0.718749 0.586722 0.365827 0.047313
O25   O     O_2   0.790451 0.634607 0.290515 -0.512944
C58   C     C_2   0.277211 0.383554 0.333625 0.383190
H34   H     H_    0.286273 0.369256 0.379585 0.069509
O26   O     O_2   0.181238 0.346169 0.310025 -0.530405
H35   H     H_    0.288567 0.406350 0.218727 0.199648
H36   H     H_    0.431955 0.699024 0.785445 0.162100

loop_
_geom_bond_atom_site_label_1
_geom_bond_atom_site_label_2
_ccdc_geom_bond_type
C32   H16   S    
C45   O13   D    
C15   C58   S    
C26   H6    S    
C47   H7    S    
C19   C20   A    
O3    Zn1   S    
C35   N3    S    
N3    Zn2   S    
C7    C8    A    
C51   H11   S    
C29   C30   S    
C35   H28   S    
C36   C54   S    
C18   C24   A    
C24   N1    S    
C25   C47   S    
C48   O16   D    
C41   O10   S    
C18   C19   A    
C29   C32   S    
C27   C49   S    
C56   O24   D    
C5    C6    A    
C55   H24   S    
C15   C16   A    
C19   H2    S    
C33   H20   S    
C41   C42   A    
C27   C51   S    
C1    C30   S    
C37   H26   S    
C12   O4    A    
O5    Zn1   S    
C39   O7    A    
C31   C32   S    
C46   H4    S    
C28   C52   S    
C26   C48   S    
C25   H5    S    
C37   N3    S    
C1    O2    A    
C38   N4    S    
C52   H12   S    
C57   O25   D    
C32   H15   S    
C5    C43   A    
C9    N2    A    
C13   C14   A    
C21   H3    S    
C47   O15   D    
C33   H17   S    
C13   C57   S    
C8    H31   S    
C23   O5    A    
C51   O19   D    
C40   N1    A    
O1    Zn1   S    
C28   C50   S    
C17   N2    S    
C49   O17   D    
C38   H27   S    
C16   C17   A    
O6    Zn2   S    
C27   C31   S    
C49   H9    S    
C9    O11   S    
C35   C36   S    
C23   C31   S    
C7    H30   S    
C10   O12   S    
C43   C44   A    
C10   N2    A    
C37   C38   S    
C3    H19   S    
C39   O8    A    
C4    C9    A    
C53   O21   D    
C34   H21   S    
C54   O22   D    
C48   H8    S    
C38   C56   S    
C22   C46   S    
C52   O20   D    
C26   C30   S    
C50   O18   D    
C33   N3    S    
O8    Zn2   S    
C34   N4    S    
C42   C43   A    
C58   O26   D    
C35   C53   S    
C29   H13   S    
C12   O3    A    
C2    C45   S    
C23   O6    A    
C16   H35   S    
C25   C30   S    
C20   C39   S    
C11   C17   A    
C40   O9    S    
C36   H29   S    
C28   C31   S    
C8    C44   A    
C34   H18   S    
C4    C5    A    
C6    C10   A    
C57   H33   S    
C6    C7    A    
C25   C27   S    
C26   C28   S    
C2    C3    A    
C12   C14   S    
C37   C55   S    
O4    Zn2   S    
C56   H25   S    
C18   H36   S    
C11   C13   A    
N4    Zn1   S    
C55   O23   D    
C2    C42   A    
O2    Zn2   S    
O7    Zn1   S    
C53   H22   S    
C33   C34   S    
C36   N4    S    
C22   C24   A    
C45   H1    S    
C40   C44   A    
C20   C21   A    
C46   O14   D    
C50   H10   S    
C54   H23   S    
C41   N1    A    
C14   C15   A    
C58   H34   S    
C21   C22   A    
C11   H32   S    
C1    O1    A    
C29   H14   S    
C3    C4    A    
