data_mof_unit_pretest_1467.cif
_audit_creation_date              2012-12-11T15:09:03-0500
_audit_creation_method            fapswitch 2.2
_symmetry_space_group_name_H-M    P1
_symmetry_Int_Tables_number       1
_space_group_crystal_system       triclinic
_cell_length_a                    26.316665
_cell_length_b                    27.456608
_cell_length_c                    8.642148
_cell_angle_alpha                 89.919322
_cell_angle_beta                  95.829844
_cell_angle_gamma                 89.910726
_cell_volume                      6212.2130521

loop_
_atom_site_label
_atom_site_type_symbol
_atom_type_description
_atom_site_fract_x
_atom_site_fract_y
_atom_site_fract_z
_atom_type_partial_charge
Ba1   Ba    Ba6+2 0.999910 0.465960 0.844870 1.213541
Ba2   Ba    Ba6+2 0.999910 0.534040 0.344870 2.090364
Ba3   Ba    Ba6+2 0.499910 0.965960 0.844870 0.936775
Ba4   Ba    Ba6+2 0.499910 0.034040 0.344870 1.925442
C1    C     C_3   0.034084 0.240468 0.708846 1.139125
C2    C     C_R   0.849289 0.645612 0.600433 -0.417677
C3    C     C_3   0.514074 0.209124 0.165891 0.814054
C4    C     C_R   0.903040 0.390945 0.311291 0.429326
C5    C     C_R   0.903691 0.609477 0.811205 0.316033
C6    C     C_R   0.403216 0.890806 0.310850 0.414050
C7    C     C_R   0.403785 0.109632 0.810704 0.304776
C8    C     C_2   0.238407 0.474160 0.384864 0.677573
C9    C     C_2   0.238244 0.525845 0.884001 0.705666
C10   C     C_2   0.738390 0.974077 0.384985 0.655989
C11   C     C_2   0.738244 0.025858 0.883953 0.636192
C12   C     C_2   0.833467 0.563656 0.009733 0.500720
C13   C     C_R   0.350624 0.854290 0.096834 -0.217091
C14   C     C_2   0.812213 0.440929 0.415007 0.515074
C15   C     C_2   0.337294 0.063246 0.020589 0.461802
C16   C     C_2   0.311082 0.943396 0.397299 0.552831
C17   C     C_2   0.757536 0.459328 0.797847 0.477900
C18   C     C_2   0.761350 0.571778 0.368522 0.409697
C19   C     C_2   0.253475 0.965701 0.794909 0.416436
C20   C     C_2   0.257959 0.073451 0.380814 0.407602
C21   C     C_2   0.751976 0.547895 0.742531 0.535607
C22   C     C_2   0.730197 0.496488 0.239061 0.545536
C23   C     C_2   0.254344 0.054481 0.755430 0.544156
C24   C     C_R   0.349441 0.145825 0.599914 -0.426926
C25   C     C_2   0.224825 0.998833 0.254881 0.567180
C26   C     C_2   0.169340 0.716547 0.717625 0.547919
C27   C     C_2   0.168512 0.282484 0.221374 0.579445
C28   C     C_2   0.669477 0.216538 0.717727 0.620858
C29   C     C_2   0.668480 0.782534 0.221137 0.637412
C30   C     C_2   0.045275 0.589685 0.847448 0.691844
C31   C     C_2   0.045594 0.411959 0.345231 0.645484
C32   C     C_2   0.545226 0.089911 0.847768 0.666868
C33   C     C_2   0.545706 0.912093 0.345002 0.644281
C34   C     C_2   0.950950 0.273558 0.086219 0.415448
C35   C     C_R   0.837444 0.315808 0.195751 -0.115563
C36   C     C_2   0.951239 0.726918 0.585484 0.355196
C37   C     C_2   0.450864 0.773550 0.085319 0.414776
C38   C     C_2   0.451477 0.227129 0.585055 0.370897
C39   C     C_2   0.024299 0.187778 0.135495 0.808273
C40   C     C_2   0.024331 0.812768 0.630647 0.738773
C41   C     C_2   0.524169 0.687814 0.135861 0.790721
C42   C     C_2   0.524697 0.312868 0.630035 0.689090
C43   C     C_R   0.836979 0.684377 0.698446 -0.033251
C44   C     C_R   0.337650 0.815675 0.195167 -0.089826
C45   C     C_R   0.337219 0.184644 0.697932 -0.007711
C46   C     C_R   0.862494 0.313338 0.348570 0.550133
C47   C     C_R   0.862811 0.687102 0.849751 0.637693
C48   C     C_R   0.362704 0.813190 0.347994 0.562092
C49   C     C_3   0.035681 0.759429 0.206768 1.166915
C50   C     C_R   0.363059 0.187341 0.849219 0.634678
C51   C     C_R   0.896312 0.350456 0.404699 -0.094739
C52   C     C_R   0.897262 0.650234 0.904494 -0.097566
C53   C     C_R   0.396473 0.850335 0.404220 -0.090526
C54   C     C_R   0.397486 0.150447 0.903960 -0.099687
C55   C     C_R   0.803825 0.228917 0.153015 0.658872
C56   C     C_R   0.803495 0.771191 0.651858 0.685985
C57   C     C_R   0.303827 0.728823 0.152921 0.649365
C58   C     C_R   0.303875 0.271491 0.650172 0.690075
C59   C     C_R   0.264205 0.696175 0.103151 0.547738
C60   C     C_3   0.534023 0.740479 0.708539 1.140230
C61   C     C_R   0.264160 0.304110 0.599910 0.499294
C62   C     C_R   0.764265 0.196221 0.103103 0.533251
C63   C     C_R   0.763812 0.803823 0.601522 0.504923
C64   C     C_R   0.215677 0.713338 0.042849 -0.287521
C65   C     C_R   0.215175 0.286908 0.545424 -0.237083
C66   C     C_R   0.715691 0.213330 0.043057 -0.287312
C67   C     C_R   0.714960 0.786635 0.545527 -0.244590
C68   C     C_R   0.207851 0.764244 0.036410 0.654868
C69   C     C_R   0.206808 0.236172 0.546041 0.561077
C70   C     C_R   0.707740 0.264218 0.037074 0.652312
C71   C     C_3   0.536124 0.259398 0.206483 1.162310
C72   C     C_R   0.706729 0.735853 0.544435 0.579056
C73   C     C_R   0.747613 0.296767 0.083127 -0.294426
C74   C     C_R   0.746633 0.703362 0.591585 -0.154544
C75   C     C_R   0.247799 0.796744 0.082242 -0.301058
C76   C     C_R   0.246707 0.203711 0.593361 -0.148012
C77   C     C_3   0.004436 0.277276 0.164076 0.120141
C78   C     C_3   0.004883 0.723349 0.662342 0.110550
C79   C     C_3   0.504282 0.777348 0.163665 0.121787
C80   C     C_3   0.505101 0.223490 0.661924 0.099695
C81   C     C_R   0.796250 0.279840 0.141601 -0.075318
C82   C     C_R   0.884862 0.391330 0.153528 -0.087571
C83   C     C_R   0.795632 0.720311 0.645081 -0.116693
C84   C     C_R   0.296380 0.779758 0.141079 -0.067983
C85   C     C_R   0.295883 0.220617 0.644792 -0.121503
C86   C     C_R   0.148251 0.682636 0.829496 0.031552
C87   C     C_R   0.147636 0.317090 0.331620 0.001204
C88   C     C_R   0.648366 0.182602 0.829497 -0.049169
C89   C     C_R   0.647545 0.817021 0.331606 -0.042505
C90   C     C_R   0.105652 0.651937 0.783537 0.078599
C91   C     C_R   0.105145 0.348017 0.284745 0.075572
C92   C     C_R   0.605762 0.151911 0.783491 0.071958
C93   C     C_R   0.883226 0.608100 0.655908 0.004805
C94   C     C_R   0.605106 0.847999 0.284713 0.073206
C95   C     C_R   0.118391 0.609127 0.035196 0.020925
C96   C     C_R   0.117919 0.390942 0.535584 0.015020
C97   C     C_R   0.618458 0.109107 0.035196 -0.013279
C98   C     C_R   0.617882 0.890898 0.535603 0.017093
C99   C     C_R   0.159041 0.640757 0.082604 0.081182
C100  C     C_R   0.158525 0.359294 0.583532 0.062053
C101  C     C_R   0.659118 0.140716 0.082627 0.073901
C102  C     C_R   0.658382 0.859131 0.583688 0.076119
C103  C     C_R   0.173623 0.678528 0.983759 0.055632
C104  C     C_R   0.385208 0.891139 0.152930 -0.048455
C105  C     C_R   0.173072 0.321491 0.485496 0.107164
C106  C     C_R   0.673702 0.178490 0.983811 0.085526
C107  C     C_R   0.672906 0.821306 0.485616 0.106605
C108  C     C_R   0.091537 0.616621 0.888921 -0.217761
C109  C     C_R   0.090977 0.383545 0.389299 -0.224940
C110  C     C_R   0.591634 0.116611 0.888904 -0.261684
C111  C     C_R   0.590986 0.883559 0.389225 -0.235947
C112  C     C_3   0.020344 0.229155 0.247454 0.850850
C113  C     C_3   0.020854 0.771601 0.743930 0.901627
C114  C     C_3   0.520146 0.729281 0.247464 0.857814
C115  C     C_R   0.383134 0.108153 0.655682 0.010934
C116  C     C_3   0.521172 0.271731 0.743384 0.924150
C117  C     C_3   0.152220 0.471618 0.233646 0.886159
C118  C     C_3   0.151912 0.528228 0.733535 1.046171
C119  C     C_3   0.652227 0.971603 0.233586 0.748812
C120  C     C_3   0.651900 0.028216 0.733565 0.707713
C121  C     C_3   0.203438 0.445510 0.271226 0.437438
C122  C     C_3   0.203029 0.554408 0.770240 0.409384
C123  C     C_3   0.703437 0.945479 0.271164 0.430123
C124  C     C_3   0.703014 0.054407 0.770197 0.399989
C125  C     C_3   0.825563 0.515609 0.928260 0.059417
C126  C     C_R   0.850394 0.354414 0.097386 -0.183997
C127  C     C_3   0.817214 0.495533 0.403808 0.171988
C128  C     C_3   0.326356 0.016619 0.933430 0.127431
C129  C     C_3   0.315194 0.998116 0.400892 0.198553
C130  C     C_3   0.768765 0.509682 0.861401 -0.149006
C131  C     C_3   0.762193 0.517189 0.377770 -0.208728
C132  C     C_3   0.269040 0.014001 0.868085 -0.125079
C133  C     C_3   0.259733 0.018900 0.389175 -0.240327
C134  C     C_3   0.012428 0.290950 0.667531 0.781587
C135  C     C_3   0.013744 0.709113 0.166208 0.806791
C136  C     C_3   0.512334 0.790951 0.667254 0.807837
F1    F     F_    0.226714 0.438814 0.136284 -0.605490
F2    F     F_    0.084955 0.755004 0.278072 -0.633308
F3    F     F_    0.583530 0.744546 0.778108 -0.636576
F4    F     F_    0.585327 0.254865 0.278292 -0.636016
F5    F     F_    0.984702 0.216717 0.347957 -0.713249
F6    F     F_    0.985522 0.784243 0.845230 -0.693539
F7    F     F_    0.484435 0.716930 0.347843 -0.706354
F8    F     F_    0.485897 0.284449 0.844784 -0.690467
F9    F     F_    0.273755 0.647601 0.110874 -0.563399
F10   F     F_    0.273979 0.352621 0.601457 -0.590476
F11   F     F_    0.773913 0.147660 0.110441 -0.575561
F12   F     F_    0.226117 0.561085 0.634930 -0.615735
F13   F     F_    0.773559 0.852350 0.604389 -0.594548
F14   F     F_    0.849749 0.210401 0.209987 -0.573272
F15   F     F_    0.849749 0.789669 0.704789 -0.575916
F16   F     F_    0.349695 0.710240 0.210149 -0.568289
F17   F     F_    0.350231 0.289970 0.701950 -0.571737
F18   F     F_    0.161215 0.782757 0.986917 -0.561301
F19   F     F_    0.159727 0.217866 0.502075 -0.553572
F20   F     F_    0.661056 0.282662 0.987837 -0.566078
F21   F     F_    0.659779 0.717517 0.498859 -0.559433
F22   F     F_    0.852261 0.276343 0.445001 -0.583457
F23   F     F_    0.726742 0.938835 0.136250 -0.618554
F24   F     F_    0.852910 0.724225 0.945928 -0.589986
F25   F     F_    0.352425 0.776223 0.444473 -0.582535
F26   F     F_    0.353265 0.224538 0.945251 -0.590243
F27   F     F_    0.004214 0.216917 0.807754 -0.664690
F28   F     F_    0.005849 0.783371 0.304887 -0.692146
F29   F     F_    0.504438 0.717077 0.808547 -0.659336
F30   F     F_    0.506238 0.283483 0.304161 -0.684974
F31   F     F_    0.922709 0.432316 0.379646 -0.680453
F32   F     F_    0.926500 0.568993 0.877047 -0.722686
F33   F     F_    0.422556 0.932270 0.379460 -0.669347
F34   F     F_    0.726086 0.061076 0.634852 -0.613590
F35   F     F_    0.426979 0.069257 0.875941 -0.716939
F36   F     F_    0.066913 0.235768 0.334172 -0.596742
F37   F     F_    0.067652 0.765073 0.829587 -0.604896
F38   F     F_    0.566677 0.735946 0.334361 -0.597334
F39   F     F_    0.567974 0.265140 0.828933 -0.599948
F40   F     F_    0.121819 0.443576 0.129733 -0.682568
F41   F     F_    0.121119 0.556279 0.630184 -0.698802
F42   F     F_    0.621841 0.943580 0.129576 -0.702161
F43   F     F_    0.621074 0.056256 0.630271 -0.713423
F44   F     F_    0.036791 0.308979 0.545534 -0.737113
F45   F     F_    0.038001 0.690908 0.044422 -0.760589
F46   F     F_    0.536424 0.808868 0.544531 -0.736593
F47   F     F_    0.538230 0.190926 0.043943 -0.754911
F48   F     F_    0.083434 0.244532 0.779700 -0.626178
H1    H     H_    0.020378 0.314876 0.770282 0.014631
H2    H     H_    0.839221 0.504179 0.305740 0.074638
H3    H     H_    0.350969 0.013621 0.837311 0.093220
H4    H     H_    0.334848 0.009895 0.300926 0.059585
H5    H     H_    0.744404 0.515383 0.956365 0.143654
H6    H     H_    0.741796 0.506666 0.477799 0.031560
H7    H     H_    0.245579 0.019220 0.965858 0.103522
H8    H     H_    0.242557 0.007442 0.495045 0.059756
H9    H     H_    0.034893 0.218017 0.602976 0.142437
H10   H     H_    0.036701 0.781727 0.100430 0.131760
H11   H     H_    0.534496 0.717911 0.602815 0.140954
H12   H     H_    0.021513 0.685117 0.269103 0.008308
H13   H     H_    0.537331 0.281637 0.100067 0.128784
H14   H     H_    0.179599 0.635753 0.196546 0.158709
H15   H     H_    0.179210 0.364393 0.697193 0.158764
H16   H     H_    0.679663 0.135713 0.196590 0.141772
H17   H     H_    0.679001 0.864160 0.697474 0.136338
H18   H     H_    0.832245 0.356684 0.979504 0.203435
H19   H     H_    0.831679 0.644505 0.482615 0.227380
H20   H     H_    0.332259 0.856724 0.979229 0.205655
H21   H     H_    0.331966 0.144756 0.481922 0.226681
H22   H     H_    0.740089 0.335554 0.076374 0.227313
H23   H     H_    0.520540 0.814943 0.769743 0.006323
H24   H     H_    0.738904 0.664660 0.589707 0.167673
H25   H     H_    0.240378 0.835548 0.075001 0.203585
H26   H     H_    0.238835 0.165086 0.593491 0.169849
H27   H     H_    0.003347 0.305426 0.255733 0.040544
H28   H     H_    0.004095 0.695574 0.755165 0.063550
H29   H     H_    0.503067 0.805563 0.255089 0.043704
H30   H     H_    0.504242 0.195769 0.754819 0.061295
H31   H     H_    0.133982 0.476692 0.342613 -0.943483
H32   H     H_    0.133840 0.523012 0.842789 -2.077436
H33   H     H_    0.633987 0.976660 0.342554 -0.892448
H34   H     H_    0.521835 0.185081 0.268655 0.005212
H35   H     H_    0.633838 0.022993 0.842838 -0.278083
H36   H     H_    0.250029 0.510639 0.355341 0.135631
H37   H     H_    0.249956 0.489340 0.855000 0.138877
H38   H     H_    0.750009 0.010576 0.355676 0.118834
H39   H     H_    0.749966 0.989355 0.854959 0.125991
H40   H     H_    0.867046 0.568108 0.090949 0.090275
H41   H     H_    0.799427 0.419730 0.312841 -0.071264
H42   H     H_    0.372531 0.065859 0.095125 0.096149
H43   H     H_    0.300454 0.924742 0.288521 -0.094963
H44   H     H_    0.746499 0.453555 0.675338 0.076100
H45   H     H_    0.196708 0.409147 0.320754 -0.007460
H46   H     H_    0.734872 0.592173 0.431640 0.124842
H47   H     H_    0.215036 0.961316 0.738018 0.097393
H48   H     H_    0.232256 0.093299 0.447985 0.126769
H49   H     H_    0.780004 0.568945 0.687907 -0.050103
H50   H     H_    0.745146 0.468515 0.168089 0.027565
H51   H     H_    0.283164 0.072463 0.695310 -0.072438
H52   H     H_    0.238610 0.973133 0.173947 -0.011670
H53   H     H_    0.209530 0.726066 0.732899 0.056471
H54   H     H_    0.208499 0.272146 0.238145 0.033316
H55   H     H_    0.709624 0.226204 0.733418 0.022007
H56   H     H_    0.196219 0.590769 0.819344 0.008778
H57   H     H_    0.708519 0.772368 0.237607 0.009615
H58   H     H_    0.045848 0.552853 0.803740 0.105093
H59   H     H_    0.047669 0.448461 0.299484 0.096704
H60   H     H_    0.545541 0.053038 0.804309 0.052760
H61   H     H_    0.547885 0.948562 0.299072 0.082475
H62   H     H_    0.920932 0.261066 0.152388 0.112856
H63   H     H_    0.921149 0.738287 0.653180 0.107817
H64   H     H_    0.420842 0.760654 0.150796 0.111439
H65   H     H_    0.421399 0.238402 0.652895 0.098197
H66   H     H_    0.990061 0.173952 0.069631 0.029097
H67   H     H_    0.696685 0.909095 0.320532 -0.015646
H68   H     H_    0.989889 0.826468 0.565159 0.055163
H69   H     H_    0.489963 0.673945 0.069913 0.036311
H70   H     H_    0.490265 0.326616 0.564622 0.080389
H71   H     H_    0.696209 0.090770 0.819276 -0.016854
H72   H     H_    0.850997 0.512709 0.834397 0.091631
O1    O     O_2   0.898940 0.431940 0.867860 -0.406728
O2    O     O_3   0.038773 0.712024 0.550436 -0.536229
O3    O     O_3   0.538493 0.788146 0.052202 -0.561324
O4    O     O_3   0.538969 0.212033 0.550100 -0.539107
O5    O     O_3   0.058810 0.523750 0.066650 -0.403501
O6    O     O_3   0.058810 0.476250 0.566650 -0.395391
O7    O     O_3   0.558810 0.023750 0.066650 -0.441140
O8    O     O_3   0.558810 0.976250 0.566650 -0.415324
O9    O     O_3   0.941140 0.476130 0.123050 -0.344839
O10   O     O_3   0.941140 0.523870 0.623050 -0.340692
O11   O     O_3   0.441140 0.976130 0.123050 -0.358375
O12   O     O_2   0.898940 0.568060 0.367860 -0.452369
O13   O     O_3   0.441140 0.023870 0.623050 -0.341474
O14   O     O_3   0.982430 0.389880 0.635700 -0.389666
O15   O     O_3   0.982430 0.610120 0.135700 -0.413185
O16   O     O_3   0.482430 0.889880 0.635700 -0.386549
O17   O     O_3   0.482430 0.110120 0.135700 -0.405857
O18   O     O_2   0.897202 0.350566 0.729071 -0.369160
O19   O     O_2   0.898065 0.650744 0.229197 -0.392356
O20   O     O_2   0.396908 0.850842 0.728203 -0.361963
O21   O     O_2   0.398197 0.150991 0.228768 -0.391413
O22   O     O_3   0.836353 0.480350 0.043713 -0.653288
O23   O     O_2   0.398940 0.931940 0.867860 -0.389121
O24   O     O_3   0.842102 0.511440 0.547056 -0.628876
O25   O     O_3   0.335772 0.979482 0.043235 -0.662282
O26   O     O_3   0.342479 0.010666 0.544862 -0.613163
O27   O     O_3   0.959516 0.287699 0.624668 -0.523105
O28   O     O_3   0.960888 0.712859 0.123192 -0.534012
O29   O     O_3   0.459350 0.787731 0.625565 -0.530878
O30   O     O_3   0.461223 0.212973 0.123091 -0.540130
O31   O     O_2   0.100770 0.431440 0.821660 -0.316280
O32   O     O_2   0.100770 0.568560 0.321660 -0.342565
O33   O     O_2   0.600770 0.931440 0.821660 -0.366034
O34   O     O_2   0.398940 0.068060 0.367860 -0.460995
O35   O     O_2   0.600770 0.068560 0.321660 -0.354099
O36   O     O_3   0.017130 0.389790 0.053700 -0.440549
O37   O     O_3   0.017130 0.610210 0.553700 -0.433752
O38   O     O_3   0.517130 0.889790 0.053700 -0.444910
O39   O     O_3   0.517130 0.110210 0.553700 -0.435216
O40   O     O_2   0.101783 0.350492 0.955598 -0.366858
O41   O     O_2   0.101782 0.649263 0.454518 -0.355517
O42   O     O_2   0.601777 0.850495 0.955581 -0.378774
O43   O     O_2   0.601875 0.149150 0.454552 -0.371460
O44   O     O_2   0.254290 0.456633 0.510418 -0.440648
O45   O     O_3   0.160710 0.483654 0.664072 -0.595964
O46   O     O_2   0.254223 0.543478 0.009084 -0.452851
O47   O     O_2   0.754266 0.956483 0.510448 -0.457362
O48   O     O_2   0.754224 0.043499 0.009024 -0.476751
O49   O     O_2   0.803717 0.597721 0.986540 -0.557444
O50   O     O_2   0.822208 0.419689 0.538652 -0.532095
O51   O     O_2   0.308460 0.098244 0.007588 -0.552550
O52   O     O_2   0.318563 0.919314 0.516245 -0.494523
O53   O     O_2   0.759706 0.424165 0.884826 -0.505690
O54   O     O_2   0.787815 0.593550 0.284115 -0.543890
O55   O     O_2   0.282539 0.930919 0.801211 -0.461450
O56   O     O_3   0.160844 0.516300 0.164431 -0.579318
O57   O     O_2   0.281974 0.095680 0.290647 -0.523395
O58   O     O_2   0.706573 0.555910 0.707965 -0.477146
O59   O     O_2   0.685983 0.509715 0.208192 -0.506182
O60   O     O_2   0.209855 0.067548 0.731538 -0.490781
O61   O     O_2   0.179777 0.010450 0.238016 -0.520660
O62   O     O_2   0.142568 0.735301 0.610365 -0.425191
O63   O     O_2   0.141790 0.264088 0.113673 -0.391722
O64   O     O_2   0.642775 0.235134 0.610024 -0.435708
O65   O     O_2   0.641749 0.764035 0.113646 -0.407686
O66   O     O_2   0.005429 0.611232 0.849540 -0.620480
O67   O     O_3   0.660707 0.983649 0.664075 -0.615723
O68   O     O_2   0.004758 0.392430 0.349431 -0.564322
O69   O     O_2   0.505553 0.111763 0.849604 -0.603639
O70   O     O_2   0.504812 0.892720 0.349524 -0.562305
O71   O     O_2   0.940715 0.284315 0.949828 -0.489271
O72   O     O_2   0.940978 0.717327 0.448319 -0.477320
O73   O     O_2   0.440679 0.784716 0.949257 -0.487932
O74   O     O_2   0.441223 0.217689 0.447785 -0.476635
O75   O     O_2   0.065521 0.169073 0.118959 -0.412757
O76   O     O_2   0.065394 0.831438 0.612557 -0.421605
O77   O     O_2   0.565410 0.669082 0.119705 -0.405757
O78   O     O_3   0.660853 0.016302 0.164485 -0.620919
O79   O     O_2   0.565787 0.331464 0.611816 -0.411520
O80   O     O_3   0.038529 0.288134 0.052331 -0.570893
P1    P     P_3+3 0.893960 0.447890 0.040050 1.099678
P2    P     P_3+3 0.066675 0.654537 0.586617 1.157862
P3    P     P_3+3 0.566573 0.845437 0.087543 1.222840
P4    P     P_3+3 0.566750 0.154504 0.586560 1.166107
P5    P     P_3+3 0.934106 0.654416 0.098887 1.245091
P6    P     P_3+3 0.933258 0.346431 0.599064 1.239581
P7    P     P_3+3 0.434299 0.154595 0.098569 1.255547
P8    P     P_3+3 0.433204 0.846475 0.598909 1.260045
P9    P     P_3+3 0.893960 0.552110 0.540050 1.181399
P10   P     P_3+3 0.393960 0.947890 0.040050 1.111579
P11   P     P_3+3 0.393960 0.052110 0.540050 1.182298
P12   P     P_3+3 0.105800 0.447360 0.649510 1.129740
P13   P     P_3+3 0.105800 0.552640 0.149510 1.195779
P14   P     P_3+3 0.605800 0.947360 0.649510 1.030049
P15   P     P_3+3 0.605800 0.052640 0.149510 1.101247
P16   P     P_3+3 0.066589 0.345440 0.087589 1.225375

loop_
_geom_bond_atom_site_label_1
_geom_bond_atom_site_label_2
_ccdc_geom_bond_type
C41   C114  S    
C95   C99   A    
C101  C106  A    
C129  C133  S    
C92   P4    S    
C13   C44   A    
C125  H72   S    
Ba3   O16   S    
C25   O61   D    
C23   C132  S    
C52   P5    S    
C31   O68   D    
C68   C75   A    
C55   C62   A    
C9    H37   S    
C112  F5    S    
C96   C100  A    
C15   O51   D    
C60   F29   S    
C57   C59   A    
C136  O29   S    
C18   H46   S    
C26   H53   S    
C66   C70   A    
C118  O45   S    
C123  F23   S    
O13   P11   S    
C134  F44   S    
C92   C110  A    
C95   P13   S    
C113  F37   S    
C117  F40   S    
O67   P14   S    
C9    O46   D    
O14   P6    S    
C2    C93   A    
C132  H7    S    
O56   P13   S    
Ba4   P15   S    
C36   H63   S    
C96   P12   S    
C40   H68   S    
C101  H16   S    
C24   H21   S    
C11   H39   S    
C113  F6    S    
C33   O70   D    
C21   H49   S    
C64   C68   A    
C82   P1    S    
C47   F24   S    
C12   C125  S    
C80   H30   S    
C116  F8    S    
C34   C77   S    
C122  H56   S    
Ba3   O13   S    
O39   P4    S    
C39   O75   D    
C74   H24   S    
C67   C72   A    
C60   C136  S    
Ba2   O9    S    
C12   O49   D    
C12   H40   S    
O5    P13   S    
Ba3   O8    S    
Ba1   O36   S    
C49   C135  S    
C13   H20   S    
C86   C103  A    
C76   H26   S    
C18   C131  S    
O43   P4    D    
C56   F15   S    
C62   C66   A    
C135  O28   S    
C31   C109  S    
C4    C82   A    
O45   P12   S    
Ba1   P1    S    
C44   C48   A    
C129  O26   S    
C80   O4    S    
O23   P10   D    
C99   C103  A    
C1    F48   S    
C136  H23   S    
C74   C83   A    
C42   H70   S    
C46   F22   S    
Ba4   P11   S    
C30   C108  S    
C27   H54   S    
C79   O3    S    
C10   O47   D    
C32   C110  S    
C28   C88   S    
C11   O48   D    
Ba4   O7    S    
C117  C121  S    
C126  H18   S    
C119  H33   S    
O12   P9    D    
C19   C132  S    
O15   P5    S    
C3    F47   S    
C114  F7    S    
C57   C84   A    
C116  F39   S    
C72   C74   A    
C38   O74   D    
C39   C112  S    
C3    O30   S    
C90   P2    S    
Ba2   O6    S    
C88   C92   A    
Ba1   O31   S    
C49   F2    S    
Ba2   O32   S    
C66   C106  S    
C122  F12   S    
Ba2   P9    S    
C56   C63   A    
C121  F1    S    
C70   C73   A    
O19   P5    D    
C7    C54   A    
C104  P10   S    
C4    F31   S    
C19   H47   S    
C115  P11   S    
C73   C81   A    
C16   H43   S    
C72   F21   S    
Ba1   P12   S    
Ba3   P10   S    
C102  C107  A    
O21   P7    D    
C2    C43   A    
C14   O50   D    
C42   O79   D    
C36   C78   S    
C71   F4    S    
C135  H12   S    
C82   C126  A    
C1    H9    S    
C17   H44   S    
C134  O27   S    
C43   C83   S    
C55   C81   A    
C30   H58   S    
C20   O57   D    
C20   H48   S    
C48   F25   S    
C24   C45   A    
C49   F28   S    
C119  C123  S    
C128  O25   S    
O6    P12   S    
C128  C132  S    
O27   P6    S    
C42   C116  S    
C5    C52   A    
C29   H57   S    
Ba1   O14   S    
C73   H22   S    
C114  F38   S    
C27   C87   S    
C37   O73   D    
C134  H1    S    
Ba2   O37   S    
Ba3   Ba4   S    
C15   C128  S    
C59   C64   A    
C25   H52   S    
O36   P16   S    
C60   F3    S    
C20   C133  S    
Ba2   O12   S    
C54   P7    S    
C69   F19   S    
C124  F34   S    
C70   F20   S    
C28   O64   D    
C136  F46   S    
C131  H6    S    
C88   C106  A    
C94   C111  A    
C77   H27   S    
Ba4   O11   S    
C77   C112  S    
C90   C108  A    
C34   O71   D    
C125  O22   S    
C87   C91   A    
O9    P1    S    
C17   O53   D    
Ba4   O17   S    
Ba4   O35   S    
C26   C86   S    
O11   P10   S    
C71   H13   S    
C23   H51   S    
C117  O56   S    
C26   O62   D    
C10   H38   S    
C50   C54   A    
O25   P10   S    
C79   H29   S    
C58   C85   A    
C77   O80   S    
C76   C85   A    
C8    H36   S    
C98   C111  A    
Ba2   O15   S    
C6    C104  A    
C118  F41   S    
C41   O77   D    
Ba1   O6    S    
O34   P11   D    
C78   O2    S    
C44   C84   S    
C65   C69   A    
O32   P13   D    
C64   C103  S    
O10   P9    S    
C120  C124  S    
O1    P1    D    
C6    F33   S    
C133  H8    S    
C97   C110  A    
C117  H31   S    
Ba3   P14   S    
C14   C127  S    
C50   F26   S    
C4    C51   A    
O33   P14   D    
C55   F14   S    
C86   C90   A    
C21   O58   D    
Ba3   O7    S    
C23   O60   D    
O80   P16   S    
C100  H15   S    
C38   C80   S    
Ba3   O33   S    
C32   O69   D    
C13   C104  A    
C43   C47   A    
C8    C121  S    
C38   H65   S    
C10   C123  S    
C124  H71   S    
O16   P8    S    
C22   H50   S    
O35   P15   D    
C80   C116  S    
C71   F30   S    
C27   O63   D    
C21   C130  S    
C89   C107  A    
C78   H28   S    
C9    C122  S    
C39   H66   S    
C11   C124  S    
C123  H67   S    
O29   P8    S    
C57   F16   S    
C17   C130  S    
O42   P3    D    
C127  H2    S    
C5    C93   A    
Ba4   O34   S    
C14   H41   S    
C29   C89   S    
C41   H69   S    
C33   C111  S    
C29   O65   D    
Ba4   O8    S    
C25   C133  S    
C7    F35   S    
O2    P2    S    
C63   F13   S    
C99   H14   S    
C120  O67   S    
C61   C65   A    
C37   H64   S    
C63   C67   A    
C15   H42   S    
C48   C53   A    
C125  C130  S    
C98   P14   S    
C60   H11   S    
O24   P9    S    
C5    F32   S    
C78   C113  S    
C36   O72   D    
C129  H4    S    
C22   O59   D    
O78   P15   S    
C97   P15   S    
C7    C115  A    
C102  H17   S    
C1    C134  S    
C34   H62   S    
O31   P12   D    
O37   P2    S    
C118  H32   S    
C49   H10   S    
C79   C114  S    
C93   P9    S    
Ba1   Ba2   S    
C119  F42   S    
C127  C131  S    
C100  C105  A    
C45   C50   A    
C37   C79   S    
C68   F18   S    
O7    P15   S    
C47   C52   A    
C61   F10   S    
O30   P7    S    
C59   F9    S    
C22   C131  S    
C65   C105  S    
C130  H5    S    
O3    P3    S    
C67   C107  S    
C18   O54   D    
Ba4   O39   S    
C16   C129  S    
O8    P14   S    
C8    O44   D    
Ba3   O23   S    
O20   P8    D    
C127  O24   S    
C56   C83   A    
C97   C101  A    
C58   F17   S    
C112  F36   S    
C6    C53   A    
C120  F43   S    
C3    H34   S    
C3    C71   S    
Ba1   O10   S    
Ba2   O5    S    
O4    P4    S    
C118  C122  S    
Ba3   O38   S    
O26   P11   S    
C53   P8    S    
O28   P5    S    
C120  H35   S    
C40   O76   D    
C16   O52   D    
O18   P6    D    
C19   O55   D    
C128  H3    S    
C2    H19   S    
C75   C84   A    
Ba1   O1    S    
C51   P6    S    
C28   H55   S    
C32   H60   S    
O17   P7    S    
C58   C61   A    
C96   C109  A    
Ba2   P13   S    
C45   C85   S    
C24   C115  A    
C94   P3    S    
C35   C126  A    
C30   O66   D    
C31   H59   S    
C46   C51   A    
C87   C105  A    
O41   P2    D    
C62   F11   S    
O40   P16   D    
C40   C113  S    
C91   C109  A    
O22   P1    S    
C33   H61   S    
C95   C108  A    
C69   C76   A    
C98   C102  A    
C1    F27   S    
C121  H45   S    
C119  O78   S    
C75   H25   S    
C35   C46   A    
Ba1   O5    S    
C35   C81   S    
C91   P16   S    
O38   P3    S    
C135  F45   S    
C89   C94   A    
