data_mof_unit_pretest_1735.cif
_audit_creation_date              2012-12-10T19:15:32-0500
_audit_creation_method            fapswitch 2.2
_symmetry_space_group_name_H-M    P1
_symmetry_Int_Tables_number       1
_space_group_crystal_system       triclinic
_cell_length_a                    24.422749
_cell_length_b                    24.430297
_cell_length_c                    43.071792
_cell_angle_alpha                 89.991725
_cell_angle_beta                  89.986546
_cell_angle_gamma                 90.005374
_cell_volume                      25698.9994669

loop_
_atom_site_label
_atom_site_type_symbol
_atom_type_description
_atom_site_fract_x
_atom_site_fract_y
_atom_site_fract_z
_atom_type_partial_charge
C1    C     C_R   0.273604 0.231081 0.250073 -0.189496
C2    C     C_R   0.728291 0.228557 0.250184 -0.184518
C3    C     C_R   0.006728 0.488756 0.967318 -0.190084
C4    C     C_R   0.986833 0.496260 0.532391 -0.189721
C5    C     C_R   0.989034 0.493566 0.467389 -0.189522
C6    C     C_R   0.503382 0.987165 0.532286 -0.284672
C7    C     C_R   0.506728 0.988758 0.467318 -0.190140
C8    C     C_R   0.039889 0.522478 0.386164 0.273290
C9    C     C_R   0.031543 0.533084 0.613667 0.277303
C10   C     C_R   0.477278 0.039582 0.386191 0.274200
C11   C     C_R   0.467217 0.032382 0.613874 0.385764
C12   C     C_R   0.951345 0.474766 0.382796 0.405318
C13   C     C_R   0.773744 0.731235 0.750206 -0.189397
C14   C     C_R   0.956558 0.466251 0.616921 0.403048
C15   C     C_R   0.525569 0.951389 0.382709 0.407909
C16   C     C_R   0.533084 0.956755 0.616733 0.402275
C17   C     C_R   0.531583 0.966960 0.886329 0.273784
C18   C     C_R   0.540036 0.977847 0.113817 0.271377
C19   C     C_R   0.977298 0.539593 0.886191 0.274087
C20   C     C_R   0.967226 0.532390 0.113874 0.385604
C21   C     C_R   0.456545 0.033718 0.883092 0.406288
C22   C     C_R   0.451126 0.024853 0.117238 0.408270
C23   C     C_R   0.025548 0.451379 0.882709 0.407872
C24   C     C_R   0.231347 0.274069 0.250204 -0.230496
C25   C     C_R   0.033075 0.456748 0.116733 0.402193
C26   C     C_R   0.036410 0.520481 0.418886 0.509357
C27   C     C_R   0.026242 0.533318 0.581013 0.505397
C28   C     C_R   0.479372 0.036036 0.418901 0.505732
C29   C     C_R   0.466401 0.027856 0.581494 0.505009
C30   C     C_R   0.949319 0.471143 0.415114 0.344551
C31   C     C_R   0.953692 0.464352 0.584576 0.344623
C32   C     C_R   0.529405 0.949376 0.415012 0.349297
C33   C     C_R   0.534555 0.954082 0.584365 0.389683
C34   C     C_R   0.526284 0.966729 0.918986 0.505472
C35   C     C_R   0.727273 0.230487 0.749789 -0.093537
C36   C     C_R   0.536539 0.979877 0.081097 0.508598
C37   C     C_R   0.979394 0.536048 0.918902 0.505552
C38   C     C_R   0.966411 0.527866 0.081494 0.504769
C39   C     C_R   0.453654 0.035595 0.915438 0.343641
C40   C     C_R   0.449062 0.028504 0.084921 0.346886
C41   C     C_R   0.029384 0.449363 0.915012 0.349299
C42   C     C_R   0.034545 0.454073 0.084365 0.389762
C43   C     C_R   0.991768 0.494385 0.433177 -0.100736
C44   C     C_R   0.988283 0.498384 0.566608 -0.098887
C45   C     C_R   0.505874 0.991585 0.433123 -0.103050
C46   C     C_R   0.270416 0.772547 0.249932 -0.185388
C47   C     C_R   0.500676 0.989158 0.566492 -0.171806
C48   C     C_R   0.488282 0.001614 0.933399 -0.099027
C49   C     C_R   0.491687 0.005628 0.066833 -0.102453
C50   C     C_R   0.005875 0.491583 0.933122 -0.103246
C51   C     C_R   0.000676 0.489159 0.066492 -0.172068
C52   C     C_R   0.500025 0.000016 0.334009 0.814999
C53   C     C_R   0.500015 0.999814 0.665922 0.827757
C54   C     C_R   0.000027 0.499967 0.334012 0.809069
C55   C     C_R   0.999747 0.499986 0.665914 0.823014
C56   C     C_R   0.000025 0.500017 0.834009 0.814817
C57   C     C_R   0.230993 0.273482 0.750033 -0.189908
C58   C     C_R   0.000015 0.499814 0.165922 0.827842
C59   C     C_R   0.499758 0.000015 0.834086 0.817938
C60   C     C_R   0.500035 0.000030 0.165989 0.814548
C61   C     C_R   0.605048 0.105058 0.250006 0.823314
C62   C     C_R   0.394806 0.894804 0.749999 0.983128
C63   C     C_R   0.895159 0.605386 0.249779 0.903751
C64   C     C_R   0.104877 0.394653 0.750177 0.901325
C65   C     C_R   0.394884 0.894971 0.249986 0.809404
C66   C     C_R   0.605337 0.104930 0.750134 0.901249
C67   C     C_R   0.105386 0.395154 0.250208 0.898012
C68   C     C_R   0.774121 0.731394 0.249719 -0.230970
C69   C     C_R   0.894667 0.604896 0.749847 0.900832
C70   C     C_R   0.605390 0.895161 0.750215 0.896472
C71   C     C_R   0.394658 0.104881 0.249836 0.900537
C72   C     C_R   0.894878 0.394981 0.749977 0.808108
C73   C     C_R   0.105346 0.604912 0.250146 0.900638
C74   C     C_R   0.395152 0.105374 0.749790 0.902808
C75   C     C_R   0.604888 0.894670 0.250165 0.900393
C76   C     C_R   0.105051 0.605047 0.749998 0.822138
C77   C     C_R   0.894797 0.394827 0.250012 0.984728
C78   C     C_R   0.997002 0.499572 0.368052 -0.361704
C79   C     C_R   0.293358 0.209697 0.278607 0.368522
C80   C     C_R   0.996118 0.499780 0.631771 -0.366125
C81   C     C_R   0.500422 0.996898 0.368031 -0.365912
C82   C     C_R   0.500151 0.996494 0.631793 -0.425337
C83   C     C_R   0.496132 0.000225 0.868232 -0.363429
C84   C     C_R   0.496984 0.000405 0.131954 -0.365025
C85   C     C_R   0.000421 0.496898 0.868031 -0.366063
C86   C     C_R   0.000151 0.496494 0.131793 -0.425791
C87   C     C_R   0.958357 0.534119 0.482713 0.406086
C88   C     C_R   0.017128 0.455430 0.517061 0.404342
C89   C     C_R   0.466695 0.957326 0.482601 0.412077
C90   C     C_R   0.745923 0.830242 0.751385 0.397959
C91   C     C_R   0.543802 0.018084 0.516995 0.402466
C92   C     C_R   0.018075 0.453705 0.484452 0.402137
C93   C     C_R   0.956867 0.535443 0.515332 0.400425
C94   C     C_R   0.545875 0.018706 0.484405 0.406159
C95   C     C_R   0.465065 0.956109 0.515214 0.362545
C96   C     C_R   0.516865 0.044736 0.982945 0.403661
C97   C     C_R   0.458475 0.965740 0.017299 0.405830
C98   C     C_R   0.966680 0.457342 0.982601 0.412663
C99   C     C_R   0.043818 0.518063 0.016995 0.402634
C100  C     C_R   0.457015 0.964405 0.984680 0.402021
C101  C     C_R   0.795785 0.287035 0.278536 0.381498
C102  C     C_R   0.517770 0.046478 0.015555 0.401863
C103  C     C_R   0.045891 0.518684 0.984404 0.406223
C104  C     C_R   0.965050 0.456126 0.015214 0.362989
C105  C     C_3   0.877663 0.569267 0.464307 -0.165867
C106  C     C_3   0.027881 0.368170 0.535585 -0.164401
C107  C     C_3   0.433092 0.875855 0.464369 -0.156887
C108  C     C_3   0.630330 0.030367 0.536209 -0.158148
C109  C     C_3   0.022109 0.374088 0.456441 -0.250841
C110  C     C_3   0.881632 0.561881 0.543363 -0.241016
C111  C     C_3   0.625605 0.023815 0.456538 -0.246826
C112  C     C_R   0.731453 0.774187 0.750367 -0.230651
C113  C     C_R   0.173507 0.743719 0.753506 0.394964
C114  C     C_3   0.439005 0.880805 0.543295 -0.215817
C115  C     C_3   0.527254 0.132101 0.964492 -0.160160
C116  C     C_3   0.377939 0.930105 0.035666 -0.168834
C117  C     C_3   0.933036 0.375888 0.964370 -0.159774
C118  C     C_3   0.130354 0.530306 0.036204 -0.159306
C119  C     C_3   0.381931 0.937632 0.956639 -0.250155
C120  C     C_3   0.521315 0.126093 0.043586 -0.248648
C121  C     C_3   0.125623 0.523753 0.956537 -0.247521
C122  C     C_3   0.938957 0.380834 0.043296 -0.217823
C123  C     C_R   0.710289 0.793142 0.278530 0.471799
C124  C     C_R   0.257862 0.176108 0.750895 0.362389
C125  C     C_R   0.207077 0.710145 0.278582 0.486444
C126  C     C_R   0.825122 0.256797 0.752753 0.403967
C127  C     C_R   0.286540 0.796182 0.721614 0.381851
C128  C     C_R   0.743717 0.173663 0.246708 0.393983
C129  C     C_R   0.793249 0.710447 0.721539 0.471451
C130  C     C_R   0.176192 0.257918 0.249260 0.360941
C131  C     C_R   0.707970 0.208603 0.721284 0.384355
C132  C     C_R   0.770833 0.271208 0.250158 -0.033613
C133  C     C_R   0.255490 0.827662 0.246930 0.389988
C134  C     C_R   0.209524 0.293080 0.721487 0.368839
C135  C     C_R   0.830192 0.745868 0.248700 0.398592
C136  C     C_R   0.793470 0.709743 0.778720 0.368693
C137  C     C_R   0.245866 0.330111 0.251225 0.397821
C138  C     C_R   0.296213 0.786452 0.778346 0.381267
C139  C     C_R   0.673328 0.243828 0.253613 0.393811
C140  C     C_R   0.210218 0.293152 0.778668 0.471355
C141  C     C_R   0.757924 0.676266 0.250655 0.361906
C142  C     C_R   0.706774 0.210566 0.778438 0.485683
C143  C     C_R   0.228430 0.728380 0.749972 -0.184884
C144  C     C_R   0.325318 0.756691 0.252882 0.402167
C145  C     C_R   0.786597 0.296076 0.221738 0.381745
C146  C     C_R   0.243768 0.673474 0.746438 0.394167
C147  C     C_R   0.293104 0.210207 0.221423 0.471831
C148  C     C_R   0.676313 0.757988 0.749392 0.361874
C149  C     C_R   0.208068 0.708570 0.221421 0.384345
C150  C     C_R   0.755415 0.327865 0.746716 0.389273
C151  C     C_R   0.709754 0.793457 0.221347 0.369255
C152  C     C_R   0.330053 0.245781 0.748822 0.399550
C153  C     C_R   0.332973 0.167734 0.278170 0.399050
C154  C     C_R   0.731151 0.773671 0.249870 -0.190120
C155  C     C_R   0.704814 0.869914 0.752030 0.374124
C156  C     C_R   0.836499 0.327897 0.278299 0.344976
C157  C     C_R   0.132639 0.703107 0.754444 0.303075
C158  C     C_R   0.667496 0.830941 0.278711 0.358799
C159  C     C_R   0.298028 0.134511 0.749250 0.293170
C160  C     C_R   0.168950 0.667634 0.278748 0.354936
C161  C     C_R   0.866419 0.296988 0.753747 0.301726
C162  C     C_R   0.327420 0.836874 0.721811 0.346908
C163  C     C_R   0.703142 0.132761 0.245710 0.300581
C164  C     C_R   0.831004 0.667624 0.721338 0.362016
C165  C     C_R   0.274002 0.231251 0.749922 -0.231266
C166  C     C_R   0.134571 0.298067 0.250849 0.289495
C167  C     C_R   0.667799 0.167137 0.721752 0.394130
C168  C     C_R   0.296476 0.868172 0.245906 0.301451
C169  C     C_R   0.167589 0.332724 0.721894 0.400012
C170  C     C_R   0.869880 0.704778 0.248009 0.373103
C171  C     C_R   0.833037 0.667734 0.778244 0.397448
C172  C     C_R   0.204794 0.369817 0.251928 0.373022
C173  C     C_R   0.336878 0.827359 0.778164 0.347232
C174  C     C_R   0.632504 0.203163 0.254486 0.300523
C175  C     C_R   0.167470 0.331005 0.778804 0.358211
C176  C     C_R   0.227498 0.730238 0.249952 -0.093957
C177  C     C_R   0.798057 0.634628 0.249079 0.291569
C178  C     C_R   0.668741 0.167977 0.778655 0.355365
C179  C     C_R   0.366563 0.796941 0.253819 0.300044
C180  C     C_R   0.827559 0.336685 0.221882 0.347611
C181  C     C_R   0.203140 0.632623 0.745513 0.302052
C182  C     C_R   0.330912 0.167426 0.221263 0.358529
C183  C     C_R   0.634655 0.798103 0.750926 0.292304
C184  C     C_R   0.167805 0.667197 0.221842 0.395159
C185  C     C_R   0.796461 0.368317 0.745749 0.304679
C186  C     C_R   0.667779 0.833059 0.221804 0.398825
C187  C     C_R   0.770253 0.272730 0.749742 -0.185535
C188  C     C_R   0.369777 0.204733 0.748066 0.375393
C189  C     C_R   0.351782 0.146942 0.249627 -0.352838
C190  C     C_R   0.649024 0.853911 0.751114 -0.307024
C191  C     C_R   0.852142 0.352305 0.250063 -0.270230
C192  C     C_R   0.147454 0.647435 0.749987 -0.312388
C193  C     C_R   0.646986 0.851827 0.250358 -0.353009
C194  C     C_R   0.353834 0.148941 0.748955 -0.309671
C195  C     C_R   0.148360 0.646903 0.250379 -0.349139
C196  C     C_R   0.852097 0.352900 0.749793 -0.304880
C197  C     C_R   0.352214 0.852196 0.749991 -0.269555
C198  C     C_R   0.271031 0.770964 0.749977 -0.033922
C199  C     C_R   0.647406 0.147506 0.250057 -0.314448
C200  C     C_R   0.851833 0.647010 0.749680 -0.350005
C201  C     C_R   0.148987 0.353863 0.251062 -0.309064
C202  C     C_R   0.648295 0.146995 0.750313 -0.347779
C203  C     C_R   0.352153 0.852831 0.249863 -0.308311
C204  C     C_R   0.146917 0.351741 0.750423 -0.353332
C205  C     C_R   0.853882 0.649000 0.248888 -0.312821
C206  C     C_R   0.488934 0.006457 0.032621 -0.189194
C207  C     C_R   0.486806 0.003733 0.967618 -0.189047
C208  C     C_R   0.003382 0.487164 0.032286 -0.284649
H1    H     H_    0.088136 0.537677 0.350639 0.345288
H2    H     H_    0.588236 0.962633 0.149356 0.360500
H3    H     H_    0.621333 0.304416 0.258122 0.403678
H4    H     H_    0.261422 0.251420 0.804769 0.347066
H5    H     H_    0.698553 0.629505 0.264803 0.359067
H6    H     H_    0.747048 0.263045 0.804431 0.342576
H7    H     H_    0.376836 0.695515 0.256534 0.404873
H8    H     H_    0.735260 0.253289 0.195996 0.359456
H9    H     H_    0.304431 0.621596 0.741792 0.403467
H10   H     H_    0.251375 0.261440 0.195342 0.347010
H11   H     H_    0.629588 0.698635 0.735213 0.359030
H12   H     H_    0.256007 0.754331 0.195257 0.361473
H13   H     H_    0.961801 0.587858 0.850731 0.360491
H14   H     H_    0.695208 0.380471 0.742941 0.405080
H15   H     H_    0.758439 0.748625 0.195114 0.365911
H16   H     H_    0.316849 0.325070 0.749205 0.342620
H17   H     H_    0.339250 0.165048 0.323631 0.404507
H18   H     H_    0.691684 0.945694 0.764147 0.322660
H19   H     H_    0.846500 0.326033 0.323571 0.408745
H20   H     H_    0.058141 0.688311 0.768937 0.346627
H21   H     H_    0.608202 0.858354 0.304761 0.332478
H22   H     H_    0.248335 0.075874 0.737695 0.362161
H23   H     H_    0.141071 0.608780 0.304935 0.328160
H24   H     H_    0.950170 0.582937 0.147667 0.335307
H25   H     H_    0.941209 0.310667 0.768052 0.342916
H26   H     H_    0.324833 0.847484 0.676594 0.401111
H27   H     H_    0.688525 0.058283 0.231189 0.347196
H28   H     H_    0.858339 0.608372 0.695253 0.325888
H29   H     H_    0.075925 0.248414 0.262477 0.359887
H30   H     H_    0.662128 0.163898 0.676283 0.399085
H31   H     H_    0.311489 0.942544 0.231406 0.342345
H32   H     H_    0.164682 0.338628 0.676423 0.399291
H33   H     H_    0.945676 0.691699 0.235854 0.329403
H34   H     H_    0.839300 0.664905 0.823703 0.405283
H35   H     H_    0.411470 0.047291 0.846547 0.332758
H36   H     H_    0.191765 0.445593 0.264087 0.322679
H37   H     H_    0.347445 0.824721 0.823382 0.400011
H38   H     H_    0.557976 0.188298 0.268894 0.347151
H39   H     H_    0.108229 0.358541 0.804841 0.332450
H40   H     H_    0.748370 0.576046 0.237429 0.362689
H41   H     H_    0.641033 0.109201 0.804937 0.328026
H42   H     H_    0.441365 0.810722 0.268063 0.343407
H43   H     H_    0.825375 0.346753 0.176620 0.400353
H44   H     H_    0.188328 0.558162 0.731024 0.347118
H45   H     H_    0.358351 0.108131 0.195240 0.332527
H46   H     H_    0.406461 0.031315 0.154867 0.317354
H47   H     H_    0.576025 0.748424 0.762541 0.361699
H48   H     H_    0.161961 0.664277 0.176373 0.398454
H49   H     H_    0.811649 0.442665 0.731268 0.342061
H50   H     H_    0.665087 0.839396 0.176345 0.405675
H51   H     H_    0.445546 0.191715 0.735827 0.328811
H52   H     H_    0.032080 0.406626 0.845150 0.317478
H53   H     H_    0.046980 0.411612 0.153245 0.333820
H54   H     H_    0.104716 0.561252 0.425112 0.401581
H55   H     H_    0.082435 0.589661 0.575084 0.397750
H56   H     H_    0.438002 0.103937 0.425226 0.399028
H57   H     H_    0.082728 0.549472 0.647277 0.353953
H58   H     H_    0.434084 0.056565 0.542984 0.364817
H59   H     H_    0.910215 0.439014 0.450501 0.307408
H60   H     H_    0.912199 0.436020 0.548998 0.307222
H61   H     H_    0.562333 0.910727 0.450298 0.309072
H62   H     H_    0.562892 0.912628 0.548676 0.314878
H63   H     H_    0.582547 0.910469 0.924905 0.398255
H64   H     H_    0.605173 0.939684 0.074827 0.399582
H65   H     H_    0.938060 0.603970 0.925227 0.399504
H66   H     H_    0.934110 0.556591 0.042983 0.365053
H67   H     H_    0.412015 0.063753 0.951013 0.307553
H68   H     H_    0.461783 0.087851 0.350733 0.360523
H69   H     H_    0.409738 0.060428 0.049569 0.307571
H70   H     H_    0.062294 0.410697 0.950297 0.309318
H71   H     H_    0.062864 0.412606 0.048677 0.315131
H72   H     H_    0.858061 0.594343 0.482658 0.190341
H73   H     H_    0.863777 0.525921 0.466274 0.129033
H74   H     H_    0.862881 0.584859 0.441620 0.202280
H75   H     H_    0.046031 0.342209 0.517151 0.190580
H76   H     H_    0.982338 0.367272 0.533854 0.127956
H77   H     H_    0.038941 0.349559 0.558222 0.204969
H78   H     H_    0.407752 0.856030 0.482533 0.189789
H79   H     H_    0.450157 0.082931 0.647665 0.335247
H80   H     H_    0.476593 0.862666 0.466805 0.129111
H81   H     H_    0.418435 0.860627 0.441578 0.200947
H82   H     H_    0.656330 0.047053 0.517347 0.185605
H83   H     H_    0.631491 0.984756 0.535777 0.135361
H84   H     H_    0.648700 0.043518 0.558545 0.202040
H85   H     H_    0.012599 0.383541 0.431862 0.187726
H86   H     H_    0.983713 0.364210 0.469326 0.120787
H87   H     H_    0.047682 0.336571 0.456465 0.206550
H88   H     H_    0.887978 0.550214 0.567964 0.187373
H89   H     H_    0.861323 0.527790 0.530531 0.119196
H90   H     H_    0.906680 0.467922 0.345198 0.336542
H91   H     H_    0.852859 0.597005 0.543272 0.207292
H92   H     H_    0.616325 0.013720 0.432014 0.188180
H93   H     H_    0.636170 0.985834 0.469627 0.122609
H94   H     H_    0.662666 0.050061 0.456421 0.205504
H95   H     H_    0.450122 0.887327 0.567959 0.186054
H96   H     H_    0.473554 0.860835 0.530679 0.122392
H97   H     H_    0.404180 0.851664 0.543018 0.200191
H98   H     H_    0.545452 0.158101 0.982891 0.189519
H99   H     H_    0.481720 0.132842 0.966342 0.128060
H100  H     H_    0.538091 0.150779 0.941835 0.207253
H101  H     H_    0.911464 0.452672 0.653471 0.323814
H102  H     H_    0.358549 0.904827 0.017336 0.190622
H103  H     H_    0.363782 0.973352 0.033633 0.130269
H104  H     H_    0.363192 0.914509 0.058364 0.201109
H105  H     H_    0.907688 0.356077 0.982534 0.188997
H106  H     H_    0.976531 0.362677 0.966805 0.130339
H107  H     H_    0.918370 0.360667 0.941579 0.200442
H108  H     H_    0.156361 0.546994 0.017346 0.185644
H109  H     H_    0.131498 0.484695 0.035764 0.135859
H110  H     H_    0.148730 0.543437 0.058543 0.201826
H111  H     H_    0.388271 0.949382 0.932048 0.186686
H112  H     H_    0.532116 0.906635 0.345152 0.317625
H113  H     H_    0.361437 0.971597 0.969486 0.122013
H114  H     H_    0.353324 0.902369 0.956697 0.205149
H115  H     H_    0.511821 0.116540 0.068157 0.189273
H116  H     H_    0.482883 0.135767 0.030697 0.122332
H117  H     H_    0.546671 0.163761 0.043590 0.205872
H118  H     H_    0.116338 0.513662 0.932014 0.188309
H119  H     H_    0.136169 0.485767 0.969627 0.123163
H120  H     H_    0.162696 0.549980 0.956420 0.205403
H121  H     H_    0.950081 0.387354 0.067960 0.186342
H122  H     H_    0.973496 0.360848 0.030679 0.123501
H123  H     H_    0.546995 0.911618 0.653243 0.333655
H124  H     H_    0.904119 0.351710 0.043021 0.198889
H125  H     H_    0.248441 0.258338 0.304818 0.362188
H126  H     H_    0.825251 0.817115 0.751184 0.342958
H127  H     H_    0.752729 0.236093 0.304396 0.359805
H128  H     H_    0.121616 0.804368 0.758143 0.403867
H129  H     H_    0.761558 0.751410 0.304587 0.344303
H130  H     H_    0.198606 0.129297 0.765141 0.359618
H131  H     H_    0.247626 0.762308 0.304644 0.343278
H132  H     H_    0.876541 0.195547 0.756466 0.404787
H133  H     H_    0.235359 0.753322 0.695812 0.361845
H134  H     H_    0.582756 0.950590 0.852698 0.348247
H135  H     H_    0.804470 0.121853 0.242207 0.403332
H136  H     H_    0.751646 0.761855 0.695503 0.346792
H137  H     H_    0.129389 0.198621 0.235091 0.359776
H138  H     H_    0.755577 0.254624 0.695073 0.364376
H139  H     H_    0.195193 0.880185 0.243233 0.405155
H140  H     H_    0.258050 0.247977 0.695302 0.365227
H141  H     H_    0.817058 0.825169 0.249008 0.342684
H142  H     H_    0.748707 0.758454 0.804971 0.364323
H143  H     H_    0.325183 0.316926 0.250879 0.342666
H144  H     H_    0.253403 0.735168 0.804127 0.359209
O1    O     O_3   0.500000 0.000000 0.250000 -0.530938
O2    O     O_R   0.454480 0.000000 0.680700 -0.615651
O3    O     O_3   0.921439 0.430554 0.029796 -0.541404
O4    O     O_3   0.275435 0.228552 0.307215 -0.726273
O5    O     O_3   0.799620 0.848357 0.752233 -0.645541
O6    O     O_3   0.781651 0.263997 0.306850 -0.726253
O7    O     O_3   0.161678 0.798834 0.756837 -0.705207
O8    O     O_3   0.729307 0.775401 0.307107 -0.647536
O9    O     O_3   0.202731 0.164522 0.754015 -0.704290
O10   O     O_3   0.224287 0.729579 0.307170 -0.643026
O11   O     O_3   0.836506 0.201489 0.755522 -0.701424
O12   O     O_3   0.263195 0.782307 0.693346 -0.726350
O13   O     O_R   0.000000 0.545520 0.319300 -0.615663
O14   O     O_3   0.798882 0.161898 0.243479 -0.706721
O15   O     O_3   0.775567 0.729559 0.692970 -0.650578
O16   O     O_3   0.164615 0.202791 0.246213 -0.705166
O17   O     O_3   0.727008 0.226341 0.692675 -0.723778
O18   O     O_3   0.200386 0.840059 0.244191 -0.699729
O19   O     O_3   0.228283 0.274989 0.692892 -0.724530
O20   O     O_3   0.848306 0.799553 0.247886 -0.644756
O21   O     O_3   0.775550 0.728525 0.807343 -0.722478
O22   O     O_3   0.299581 0.348180 0.252033 -0.646111
O23   O     O_3   0.282319 0.763070 0.806608 -0.730849
O24   O     O_R   0.000000 0.454480 0.680700 -0.604475
O25   O     O_3   0.661409 0.298932 0.256895 -0.704543
O26   O     O_3   0.229288 0.275575 0.807267 -0.643801
O27   O     O_3   0.702766 0.664730 0.253688 -0.703925
O28   O     O_3   0.723855 0.230222 0.807003 -0.648392
O29   O     O_3   0.336790 0.701400 0.255636 -0.701395
O30   O     O_3   0.763455 0.281908 0.193464 -0.730247
O31   O     O_3   0.298899 0.661646 0.743097 -0.705898
O32   O     O_3   0.275389 0.229206 0.192837 -0.644172
O33   O     O_3   0.664788 0.702847 0.746355 -0.705054
O34   O     O_3   0.227036 0.726467 0.192828 -0.727532
O35   O     O_R   0.954480 0.500000 0.819300 -0.609619
O36   O     O_3   0.700340 0.340338 0.743907 -0.699958
O37   O     O_3   0.728604 0.775571 0.192730 -0.720045
O38   O     O_3   0.348110 0.299484 0.747976 -0.644814
O39   O     O_3   0.355248 0.146754 0.305264 -0.700940
O40   O     O_3   0.721159 0.923950 0.754347 -0.643557
O41   O     O_3   0.861109 0.346026 0.305399 -0.692465
O42   O     O_3   0.079249 0.719215 0.760180 -0.724825
O43   O     O_3   0.646478 0.845881 0.307297 -0.628235
O44   O     O_3   0.284161 0.079691 0.748239 -0.715254
O45   O     O_3   0.153355 0.647137 0.307343 -0.630322
O46   O     O_R   0.045520 0.500000 0.180700 -0.601880
O47   O     O_3   0.919736 0.280232 0.759066 -0.724666
O48   O     O_3   0.345201 0.861757 0.694711 -0.706936
O49   O     O_3   0.719349 0.079403 0.240021 -0.726233
O50   O     O_3   0.845961 0.646676 0.692743 -0.650595
O51   O     O_3   0.079737 0.284190 0.251881 -0.716624
O52   O     O_3   0.645864 0.145841 0.694655 -0.703963
O53   O     O_3   0.280725 0.921780 0.240590 -0.724917
O54   O     O_3   0.146528 0.354829 0.694778 -0.706461
O55   O     O_3   0.923930 0.721131 0.245688 -0.639596
O56   O     O_3   0.855279 0.646644 0.805319 -0.700465
O57   O     O_R   0.500000 0.954480 0.819300 -0.611394
O58   O     O_3   0.221192 0.423836 0.254251 -0.643699
O59   O     O_3   0.361721 0.845122 0.805272 -0.707707
O60   O     O_3   0.579064 0.219207 0.260127 -0.726008
O61   O     O_3   0.146531 0.346146 0.807373 -0.627173
O62   O     O_3   0.784138 0.579823 0.248041 -0.714829
O63   O     O_3   0.653104 0.147638 0.807276 -0.643595
O64   O     O_3   0.419922 0.780263 0.259080 -0.724950
O65   O     O_3   0.845611 0.361214 0.194736 -0.707883
O66   O     O_3   0.219245 0.579251 0.739775 -0.726074
O67   O     O_3   0.345883 0.146396 0.192687 -0.627824
O68   O     O_R   0.500000 0.045520 0.180700 -0.620241
O69   O     O_3   0.579831 0.784182 0.751926 -0.715305
O70   O     O_3   0.145731 0.646125 0.194724 -0.704434
O71   O     O_3   0.780811 0.421946 0.740406 -0.725147
O72   O     O_3   0.646786 0.855361 0.194721 -0.700025
O73   O     O_3   0.423801 0.221139 0.745669 -0.639280
O74   O     O_R   0.045520 0.500000 0.819300 -0.620199
O75   O     O_R   0.954480 0.500000 0.180700 -0.615669
O76   O     O_R   0.500000 0.045520 0.819300 -0.614951
O77   O     O_3   0.500000 0.000000 0.750000 -0.547310
O78   O     O_R   0.500000 0.954480 0.180700 -0.609737
O79   O     O_R   0.609440 0.064000 0.268180 -0.614409
O80   O     O_R   0.390560 0.936000 0.731820 -0.589669
O81   O     O_R   0.936000 0.609440 0.268180 -0.634562
O82   O     O_R   0.064000 0.390560 0.731820 -0.577260
O83   O     O_R   0.390560 0.936000 0.268180 -0.619538
O84   O     O_R   0.609440 0.064000 0.731820 -0.582215
O85   O     O_R   0.064000 0.390560 0.268180 -0.589873
O86   O     O_R   0.936000 0.609440 0.731820 -0.633733
O87   O     O_R   0.609440 0.936000 0.731820 -0.638672
O88   O     O_3   0.000000 0.500000 0.250000 -0.545818
O89   O     O_R   0.390560 0.064000 0.268180 -0.578293
O90   O     O_R   0.936000 0.390560 0.731820 -0.617784
O91   O     O_R   0.064000 0.609440 0.268180 -0.633468
O92   O     O_R   0.390560 0.064000 0.731820 -0.585600
O93   O     O_R   0.609440 0.936000 0.268180 -0.634374
O94   O     O_R   0.064000 0.609440 0.731820 -0.611143
O95   O     O_R   0.936000 0.390560 0.268180 -0.590873
O96   O     O_R   0.109440 0.564000 0.768180 -0.615415
O97   O     O_R   0.890560 0.436000 0.231820 -0.589618
O98   O     O_R   0.436000 0.109440 0.768180 -0.632022
O99   O     O_3   0.000000 0.500000 0.750000 -0.532540
O100  O     O_R   0.564000 0.890560 0.231820 -0.578277
O101  O     O_R   0.890560 0.436000 0.768180 -0.621019
O102  O     O_R   0.109440 0.564000 0.231820 -0.582298
O103  O     O_R   0.564000 0.890560 0.768180 -0.586760
O104  O     O_R   0.436000 0.109440 0.231820 -0.634486
O105  O     O_R   0.109440 0.436000 0.231820 -0.637769
O106  O     O_R   0.890560 0.564000 0.768180 -0.578797
O107  O     O_R   0.436000 0.890560 0.231820 -0.620714
O108  O     O_R   0.564000 0.109440 0.768180 -0.632856
O109  O     O_R   0.890560 0.564000 0.231820 -0.584278
O110  O     O_R   0.454480 0.000000 0.319300 -0.609614
O111  O     O_R   0.109440 0.436000 0.768180 -0.634548
O112  O     O_R   0.564000 0.109440 0.231820 -0.614396
O113  O     O_R   0.436000 0.890560 0.768180 -0.589528
O114  O     O_3   0.085889 0.546242 0.373015 -0.717074
O115  O     O_3   0.072311 0.564788 0.626861 -0.721379
O116  O     O_3   0.453189 0.085443 0.373102 -0.720960
O117  O     O_3   0.435632 0.073349 0.626939 -0.646239
O118  O     O_3   0.907496 0.453104 0.366552 -0.645673
O119  O     O_3   0.918859 0.435213 0.633176 -0.652462
O120  O     O_3   0.547385 0.907703 0.366400 -0.646217
O121  O     O_R   0.545520 0.000000 0.680700 -0.601872
O122  O     O_3   0.563989 0.918684 0.632781 -0.650152
O123  O     O_3   0.572376 0.935292 0.873127 -0.723295
O124  O     O_3   0.586205 0.954388 0.126935 -0.720370
O125  O     O_3   0.953227 0.585465 0.873103 -0.720565
O126  O     O_3   0.935649 0.573364 0.126939 -0.645478
O127  O     O_3   0.418835 0.064736 0.866848 -0.647502
O128  O     O_3   0.407113 0.046131 0.133511 -0.646471
O129  O     O_3   0.047344 0.407683 0.866399 -0.645745
O130  O     O_3   0.063971 0.418669 0.132782 -0.649490
O131  O     O_3   0.076304 0.543041 0.437814 -0.668275
O132  O     O_R   0.000000 0.454480 0.319300 -0.618976
O133  O     O_3   0.058977 0.565665 0.562229 -0.669362
O134  O     O_3   0.456520 0.075681 0.437885 -0.681269
O135  O     O_3   0.432715 0.063748 0.565537 -0.635823
O136  O     O_3   0.904742 0.444460 0.427977 -0.687578
O137  O     O_3   0.914642 0.430161 0.571656 -0.689034
O138  O     O_3   0.556536 0.905045 0.427819 -0.682415
O139  O     O_3   0.568421 0.914799 0.571360 -0.692155
O140  O     O_3   0.559054 0.934431 0.937764 -0.668915
O141  O     O_3   0.576600 0.957660 0.062144 -0.669050
O142  O     O_3   0.956563 0.575703 0.937885 -0.680701
O143  O     O_R   0.000000 0.545520 0.680700 -0.616538
O144  O     O_3   0.932735 0.563768 0.065537 -0.634751
O145  O     O_3   0.414543 0.069712 0.928365 -0.687319
O146  O     O_3   0.404279 0.054851 0.072085 -0.681629
O147  O     O_3   0.056494 0.405018 0.927818 -0.681481
O148  O     O_3   0.068399 0.414780 0.071361 -0.691234
O149  O     O_3   0.935061 0.575923 0.465461 -0.537480
O150  O     O_3   0.050651 0.421252 0.534301 -0.538619
O151  O     O_3   0.425473 0.933130 0.465293 -0.543113
O152  O     O_3   0.577070 0.052547 0.534202 -0.541668
O153  O     O_3   0.052823 0.417067 0.469815 -0.529496
O154  O     O_R   0.545520 0.000000 0.319300 -0.620084
O155  O     O_3   0.931574 0.579131 0.529978 -0.529075
O156  O     O_3   0.582069 0.053938 0.469774 -0.533155
O157  O     O_3   0.421465 0.930518 0.529796 -0.541036
O158  O     O_3   0.550211 0.079097 0.965697 -0.538893
O159  O     O_3   0.435381 0.923817 0.034557 -0.538871
O160  O     O_3   0.925446 0.433167 0.965293 -0.543160
O161  O     O_3   0.077103 0.552508 0.034202 -0.542060
O162  O     O_3   0.431924 0.920601 0.970035 -0.529700
O163  O     O_3   0.552294 0.083323 0.030191 -0.531181
O164  O     O_3   0.082102 0.553897 0.969774 -0.533718
Zn1   Zn    Zn3+2 0.500000 0.064990 0.224050 1.011391
Zn2   Zn    Zn3+2 0.000000 0.435010 0.275950 1.041591
Zn3   Zn    Zn3+2 0.435010 0.000000 0.724050 1.055316
Zn4   Zn    Zn3+2 0.564990 0.000000 0.275950 1.011622
Zn5   Zn    Zn3+2 0.000000 0.435010 0.724050 1.027552
Zn6   Zn    Zn3+2 0.000000 0.564990 0.275950 1.012324
Zn7   Zn    Zn3+2 0.564990 0.000000 0.724050 1.031150
Zn8   Zn    Zn3+2 0.435010 0.000000 0.275950 1.022477
Zn9   Zn    Zn3+2 0.500000 0.935010 0.775950 1.047138
Zn10  Zn    Zn3+2 0.935010 0.500000 0.224050 1.056486
Zn11  Zn    Zn3+2 0.064990 0.500000 0.775950 1.011239
Zn12  Zn    Zn3+2 0.500000 0.935010 0.224050 1.021842
Zn13  Zn    Zn3+2 0.500000 0.064990 0.775950 1.015816
Zn14  Zn    Zn3+2 0.064990 0.500000 0.224050 1.031459
Zn15  Zn    Zn3+2 0.935010 0.500000 0.775950 1.021116
Zn16  Zn    Zn3+2 0.000000 0.564990 0.724050 1.015454

loop_
_geom_bond_atom_site_label_1
_geom_bond_atom_site_label_2
_ccdc_geom_bond_type
C159  C194  A    
C99   C103  A    
C74   C194  S    
C96   C102  A    
C8    C26   A    
C32   C45   A    
C58   O46   A    
C186  C193  A    
C115  H100  S    
C161  C196  A    
C73   O102  A    
C150  C185  A    
C152  C165  A    
O82   Zn5   S    
C15   C32   A    
C105  O149  S    
C11   O117  S    
C126  C187  A    
H5    O27   S    
C13   C112  S    
O101  Zn15  S    
C108  H83   S    
C59   O76   A    
H53   O130  S    
H138  O17   S    
C42   O148  S    
C143  C198  S    
H10   O32   S    
C19   C37   A    
C56   O74   A    
O111  Zn11  S    
C21   C83   A    
O121  Zn7   S    
C134  C169  A    
C26   C43   A    
C105  H73   S    
C120  O163  S    
C26   O131  S    
O1    Zn1   S    
H65   O142  S    
C5    C43   S    
H101  O119  S    
H22   O44   S    
C37   O142  S    
H20   O42   S    
C124  O9    S    
C122  H121  S    
O88   Zn14  S    
C158  C193  A    
C119  O162  S    
C170  C205  A    
C175  O61   S    
C125  O10   S    
H128  O7    S    
C111  H93   S    
C88   O150  S    
C57   C140  A    
C53   C82   S    
C39   O145  S    
H25   O47   S    
O35   Zn15  S    
C70   O103  A    
C178  O63   S    
C103  O164  S    
C147  O32   S    
C65   C203  S    
C136  C171  A    
C119  H114  S    
C34   O140  S    
C136  O21   S    
C118  O161  S    
C92   O153  S    
C7    C45   S    
C31   O137  S    
C41   O147  S    
C52   O110  A    
C33   C47   A    
C149  O34   S    
C115  H98   S    
C34   C48   A    
C17   C34   A    
C99   O161  S    
C127  C198  A    
C25   O130  S    
C102  O163  S    
C70   C190  S    
O86   Zn16  S    
H41   O63   S    
C3    C103  A    
H42   O64   S    
O109  Zn10  S    
H19   O41   S    
O24   Zn5   S    
C146  C181  A    
C159  O44   S    
H112  O120  S    
O13   Zn6   S    
C19   C85   A    
C72   C196  S    
O1    Zn12  S    
C184  C195  A    
H33   O55   S    
C23   C41   A    
H34   O56   S    
C69   O86   A    
C97   O159  S    
C149  C176  A    
O81   Zn6   S    
C91   C94   A    
C55   C80   S    
C3    C98   A    
C120  H116  S    
C109  H85   S    
C37   C50   A    
H58   O135  S    
C73   O91   A    
C106  H76   S    
H134  O123  S    
H6    O28   S    
O99   Zn5   S    
H140  O19   S    
H46   O128  S    
C101  C132  A    
C112  C148  A    
C18   O124  S    
C49   C206  S    
C29   O135  S    
C111  H92   S    
C151  O37   S    
C65   O83   A    
C113  C157  A    
C66   O84   A    
C9    C80   A    
H61   O138  S    
C123  C154  A    
C167  O52   S    
C151  C186  A    
H59   O136  S    
C173  O59   S    
C106  H77   S    
C64   O82   A    
C14   C31   A    
C62   O80   A    
C61   C199  S    
O76   Zn13  S    
C125  C160  A    
C153  C189  A    
H48   O70   S    
C118  H110  S    
C54   O132  A    
C174  C199  A    
H45   O67   S    
C29   C47   A    
C76   C192  S    
C132  C145  A    
C175  C204  A    
H44   O66   S    
C181  C192  A    
C121  H118  S    
C40   C49   A    
O87   Zn7   S    
C48   C207  S    
C135  C170  A    
H35   O127  S    
C114  O157  S    
C169  O54   S    
O80   Zn3   S    
H56   O134  S    
C27   C44   A    
C15   O120  S    
C149  C184  A    
H16   O38   S    
H127  O6    S    
O96   Zn11  S    
C97   C206  A    
C74   O92   A    
C55   O24   A    
C120  H117  S    
C163  C199  A    
O68   Zn1   S    
O97   Zn10  S    
C130  O16   S    
C160  O45   S    
C115  O158  S    
C9    O115  S    
C58   C86   S    
C164  O50   S    
H70   O147  S    
C3    C50   S    
C11   C82   A    
C141  O27   S    
C6    C47   S    
C121  O164  S    
C173  C197  A    
O95   Zn2   S    
C70   O87   A    
C68   C141  A    
C63   O109  A    
C133  C168  A    
C122  H124  S    
C46   C144  A    
C38   C51   A    
C109  H87   S    
H123  O122  S    
C110  H88   S    
O112  Zn1   S    
C93   O155  S    
C20   C86   A    
C116  O159  S    
C171  C200  A    
C185  O71   S    
O79   Zn4   S    
C79   C153  A    
C60   O78   A    
C144  O29   S    
C79   O4    S    
H12   O34   S    
C61   O79   A    
H54   O131  S    
C98   O160  S    
C59   O57   A    
H9    O31   S    
C67   O105  A    
H52   O129  S    
C137  O22   S    
C102  C206  A    
C109  O153  S    
C107  O151  S    
C179  C203  A    
O108  Zn13  S    
C113  O7    S    
C127  C162  A    
C117  O160  S    
C1    C147  A    
C142  O28   S    
H133  O12   S    
C116  H104  S    
O77   Zn7   S    
C97   C100  A    
H2    O124  S    
C117  H107  S    
C184  O70   S    
C77   O97   A    
H13   O125  S    
C27   O133  S    
C68   C135  A    
C115  H99   S    
C62   C197  S    
C180  C191  A    
C135  O20   S    
H64   O141  S    
C121  H120  S    
C4    C88   A    
C24   C137  A    
C95   O157  S    
C17   O123  S    
H47   O69   S    
C18   C84   A    
C169  C204  A    
C126  O11   S    
C108  H84   S    
C142  C178  A    
H57   O115  S    
C148  C183  A    
C155  O40   S    
C87   C93   A    
C114  H95   S    
H68   O116  S    
C64   C204  S    
C52   C81   S    
H27   O49   S    
C36   C49   A    
C35   C142  A    
C124  C165  A    
C66   C202  S    
C116  H103  S    
H18   O40   S    
O106  Zn15  S    
H15   O37   S    
C104  O3    S    
C6    C95   A    
C163  O49   S    
O99   Zn16  S    
C105  H72   S    
C13   C129  A    
O75   Zn10  S    
C125  C176  A    
H129  O8    S    
C54   O13   A    
C2    C128  A    
C143  C146  A    
C90   O5    S    
C182  O67   S    
C180  O65   S    
C152  C188  A    
C122  H122  S    
H135  O14   S    
C106  O150  S    
H40   O62   S    
C141  C177  A    
C2    C139  A    
H31   O53   S    
C10   O116  S    
C59   C83   S    
H142  O21   S    
O110  Zn8   S    
C57   C165  S    
H49   O71   S    
C30   O136  S    
C28   O134  S    
C140  O26   S    
H125  O4    S    
C36   O141  S    
C137  C172  A    
C118  H108  S    
H136  O15   S    
C62   O113  A    
H14   O36   S    
O85   Zn2   S    
C119  H113  S    
C94   O156  S    
H63   O140  S    
C69   C200  S    
C2    C132  S    
C133  O18   S    
C126  C161  A    
C63   O81   A    
O103  Zn9   S    
O113  Zn9   S    
C58   O75   A    
O94   Zn16  S    
O143  Zn16  S    
H126  O5    S    
C67   C201  S    
H62   O139  S    
C100  C207  A    
O132  Zn2   S    
C14   O119  S    
H60   O137  S    
C177  O62   S    
H32   O54   S    
C145  O30   S    
C76   O94   A    
H17   O39   S    
C61   O112  A    
C77   C191  S    
C152  O38   S    
C20   O126  S    
H51   O73   S    
C96   C207  A    
O78   Zn12  S    
C158  O43   S    
C4    C44   S    
C101  C156  A    
C55   O143  A    
C52   O154  A    
C40   O146  S    
C156  O41   S    
C113  C143  A    
C166  C201  A    
C89   C95   A    
C74   O98   A    
C155  C190  A    
C174  O60   S    
C130  C166  A    
H137  O16   S    
C12   O118  S    
C72   O90   A    
C110  H91   S    
C107  H78   S    
C138  C173  A    
C105  H74   S    
C32   O138  S    
C71   C189  S    
C138  C198  A    
C139  O25   S    
C160  C195  A    
O77   Zn13  S    
O90   Zn5   S    
C76   O96   A    
C73   C195  S    
C153  O39   S    
C57   C134  A    
C185  C196  A    
C183  C190  A    
C35   C131  A    
C41   C50   A    
O84   Zn7   S    
C9    C27   A    
C131  O17   S    
C10   C28   A    
C7    C94   A    
O98   Zn13  S    
C12   C30   A    
C171  O56   S    
C25   C42   A    
H8    O30   S    
H131  O10   S    
C16   O122  S    
O102  Zn14  S    
C111  H94   S    
C10   C81   A    
C68   C154  S    
O91   Zn6   S    
H139  O18   S    
C148  O33   S    
C114  H97   S    
C150  O36   S    
C75   O100  A    
H21   O43   S    
C157  C192  A    
O88   Zn10  S    
C69   O106  A    
C46   C133  A    
C56   C85   S    
C131  C167  A    
C140  C175  A    
C8    O114  S    
C188  O73   S    
C145  C180  A    
C23   O129  S    
C177  C205  A    
O100  Zn12  S    
C104  C208  A    
C53   O121  A    
O77   Zn3   S    
H67   O145  S    
C128  O14   S    
H7    O29   S    
C129  C164  A    
C35   C187  S    
C16   C82   A    
C63   C205  S    
C117  H105  S    
C111  O156  S    
C18   C36   A    
C161  O47   S    
C123  O8    S    
C164  C200  A    
C39   C48   A    
C54   C78   S    
C116  H102  S    
H37   O59   S    
O93   Zn4   S    
C110  H89   S    
H38   O60   S    
C157  O42   S    
C186  O72   S    
H144  O23   S    
H36   O58   S    
C65   O107  A    
C90   C112  A    
O99   Zn11  S    
H1    O114  S    
C127  O12   S    
C15   C81   A    
C129  O15   S    
H26   O48   S    
O92   Zn3   S    
H29   O51   S    
C38   O144  S    
H30   O52   S    
C122  O3    S    
H23   O45   S    
C99   C208  A    
H28   O50   S    
H24   O126  S    
C98   C104  A    
C134  O19   S    
H130  O9    S    
C120  H115  S    
C109  H86   S    
C6    C91   A    
C7    C89   A    
C124  C159  A    
H132  O11   S    
C106  H75   S    
C151  C154  A    
C91   O152  S    
C21   O127  S    
O1    Zn4   S    
C88   C92   A    
C19   O125  S    
C182  C189  A    
C14   C80   A    
C53   O2    A    
O46   Zn14  S    
C167  C202  A    
C42   C51   A    
H39   O61   S    
O83   Zn8   S    
C96   O158  S    
C8    C78   A    
C170  O55   S    
C108  H82   S    
O2    Zn3   S    
C60   O68   A    
H66   O144  S    
H79   O117  S    
C117  H106  S    
C118  H109  S    
C28   C45   A    
C56   O35   A    
C31   C44   A    
C183  O69   S    
H4    O26   S    
C150  C187  A    
C51   C208  S    
C121  H119  S    
C138  O23   S    
C128  C163  A    
C4    C93   A    
C12   C78   A    
C17   C83   A    
H141  O20   S    
C22   C84   A    
C156  C191  A    
C101  O6    S    
H11   O33   S    
C24   C130  A    
C16   C33   A    
C20   C38   A    
H143  O22   S    
O1    Zn8   S    
C21   C39   A    
C144  C179  A    
C22   C40   A    
C114  H96   S    
C71   O104  A    
O154  Zn4   S    
C1    C24   S    
C30   C43   A    
C75   C193  S    
C75   O93   A    
C178  C202  A    
O99   Zn15  S    
C110  O155  S    
C13   C136  A    
C46   C176  S    
C166  O51   S    
H50   O72   S    
C172  O58   S    
C5    C87   A    
C162  C197  A    
C147  C182  A    
H55   O133  S    
C108  O152  S    
H90   O118  S    
C67   O85   A    
C72   O101  A    
O88   Zn6   S    
O57   Zn9   S    
C139  C174  A    
O88   Zn2   S    
C123  C158  A    
C146  O31   S    
O105  Zn14  S    
C33   O139  S    
C168  C203  A    
C66   O108  A    
C107  H80   S    
H71   O148  S    
H3    O25   S    
O77   Zn9   S    
C60   C84   S    
C162  O48   S    
O104  Zn1   S    
C71   O89   A    
C1    C79   A    
C25   C86   A    
C119  H111  S    
C87   O149  S    
C172  C201  A    
H43   O65   S    
C64   O111  A    
C100  O162  S    
C181  O66   S    
C5    C92   A    
O107  Zn12  S    
C188  C194  A    
C77   O95   A    
C107  H81   S    
C179  O64   S    
C11   C29   A    
C168  O53   S    
C23   C85   A    
O74   Zn11  S    
C90   C155  A    
C22   O128  S    
C89   O151  S    
O89   Zn8   S    
H69   O146  S    
