data_mof_unit_pretest_39.cif
_audit_creation_date              2012-12-10T21:28:54-0500
_audit_creation_method            fapswitch 2.2
_symmetry_space_group_name_H-M    P1
_symmetry_Int_Tables_number       1
_space_group_crystal_system       triclinic
_cell_length_a                    10.650636
_cell_length_b                    16.124615
_cell_length_c                    16.795304
_cell_angle_alpha                 87.196098
_cell_angle_beta                  90.602949
_cell_angle_gamma                 92.668073
_cell_volume                      2877.70745803

loop_
_atom_site_label
_atom_site_type_symbol
_atom_type_description
_atom_site_fract_x
_atom_site_fract_y
_atom_site_fract_z
_atom_type_partial_charge
C1    C     C_R   0.496714 0.488608 0.652731 0.962270
C2    C     C_R   0.929257 0.454985 0.431923 0.053558
C3    C     C_R   0.871679 0.501901 0.488982 -0.069975
C4    C     C_R   0.940544 0.550630 0.541488 -0.221672
C5    C     C_R   0.068476 0.550420 0.541255 -0.208295
C6    C     C_R   0.127907 0.500904 0.488990 -0.092666
C7    C     C_R   0.484095 0.481092 0.738236 -0.198896
C8    C     C_R   0.408429 0.535868 0.776382 0.452031
C9    C     C_R   0.401267 0.530284 0.858981 -0.375136
C10   C     C_R   0.473867 0.473573 0.903450 0.165672
C11   C     C_R   0.543234 0.416045 0.864817 0.483495
C12   C     C_R   0.739653 0.500401 0.496795 0.872453
C13   C     C_R   0.549380 0.420625 0.781986 -0.403395
C14   C     C_R   0.390695 0.469713 0.140543 0.459095
C15   C     C_R   0.411164 0.460236 0.222020 -0.316035
C16   C     C_R   0.452874 0.537046 0.097560 0.083381
C17   C     C_R   0.482970 0.520564 0.261536 -0.166990
C18   C     C_R   0.532549 0.591732 0.219877 -0.329180
C19   C     C_R   0.515928 0.600850 0.137598 0.455990
C20   C     C_R   0.433556 0.761428 0.464027 -0.148898
C21   C     C_R   0.431874 0.848599 0.467199 0.398168
C22   C     C_R   0.520918 0.890845 0.516382 0.219126
C23   C     C_R   0.498604 0.511546 0.347068 0.902063
C24   C     C_R   0.603123 0.842510 0.562810 -0.379600
C25   C     C_R   0.598910 0.755732 0.558857 -0.020237
C26   C     C_R   0.548898 0.149215 0.540743 -0.290440
C27   C     C_R   0.551378 0.236198 0.543954 -0.009058
C28   C     C_R   0.476875 0.109681 0.481232 0.321652
C29   C     C_R   0.414803 0.246462 0.432227 -0.009772
C30   C     C_R   0.409768 0.159834 0.426814 -0.298792
C31   C     C_R   0.260280 0.500282 0.495903 0.891862
C32   C     C_R   0.859506 0.411653 0.373563 -0.326616
C33   C     C_R   0.918478 0.359390 0.321929 0.549442
C34   C     C_R   0.049247 0.358210 0.323772 -0.213066
C35   C     C_R   0.119831 0.406334 0.376198 -0.291585
C36   C     C_R   0.060550 0.453373 0.432635 0.107711
H1    H     H_    0.894897 0.586977 0.584497 0.154402
H2    H     H_    0.607539 0.378543 0.752107 0.186979
H3    H     H_    0.586859 0.639020 0.250662 0.183138
H4    H     H_    0.339412 0.570324 0.888428 0.170623
H5    H     H_    0.607045 0.266412 0.589360 0.133997
H6    H     H_    0.602777 0.113766 0.584273 0.155074
H7    H     H_    0.670829 0.872194 0.602071 0.168912
H8    H     H_    0.662570 0.719275 0.595158 0.138484
H9    H     H_    0.363069 0.284513 0.389756 0.126872
H10   H     H_    0.760001 0.419541 0.366817 0.151566
H11   H     H_    0.353683 0.131842 0.380215 0.155729
H12   H     H_    0.367933 0.728980 0.425484 0.154731
H13   H     H_    0.097216 0.320470 0.283257 0.154222
H14   H     H_    0.220672 0.406277 0.371100 0.168306
H15   H     H_    0.121248 0.586854 0.583957 0.184820
H16   H     H_    0.368708 0.406543 0.254507 0.172062
N1    N     N_2   0.477022 0.472268 0.987195 -0.093002
N2    N     N_2   0.455174 0.540681 0.014007 -0.167171
N3    N     N_R   0.515300 0.716920 0.509720 -0.108520
N4    N     N_2   0.530047 0.979535 0.523653 -0.186833
N5    N     N_2   0.468374 0.021295 0.473578 -0.110419
N6    N     N_R   0.484690 0.283070 0.490290 -0.090879
O1    O     O_R   0.494530 0.422540 0.612660 -0.622518
O2    O     O_R   0.504350 0.561840 0.618900 -0.598548
O3    O     O_R   0.678320 0.430330 0.496880 -0.629501
O4    O     O_R   0.688140 0.569640 0.503120 -0.621899
O5    O     O_R   0.495650 0.438160 0.381100 -0.652069
O6    O     O_R   0.505470 0.577460 0.387340 -0.614044
O7    O     O_R   0.311860 0.430360 0.496880 -0.618864
O8    O     O_R   0.321680 0.569670 0.503120 -0.622067
Zn1   Zn    Zn3+2 0.493440 0.406980 0.495830 0.931083
Zn2   Zn    Zn3+2 0.506560 0.593020 0.504170 0.945695
O9    O     O_3   0.574239 0.667028 0.094797 -0.623639
C37   C     C_3   0.505473 0.739244 0.102219 0.086507
H17   H     H_    0.571414 0.793857 0.090801 0.172398
H18   H     H_    0.467959 0.745015 0.163415 0.128065
C38   C     C_3   0.398870 0.742859 0.040158 -0.365108
H19   H     H_    0.437787 0.736402 0.979723 0.233234
H20   H     H_    0.328793 0.690747 0.052620 0.206936
C39   C     C_3   0.332557 0.824614 0.041563 -0.948566
H21   H     H_    0.291394 0.831740 0.101208 0.270385
H22   H     H_    0.255719 0.825090 0.996364 0.265155
H23   H     H_    0.399777 0.877901 0.027360 0.263801
O10   O     O_3   0.331965 0.588317 0.732118 -0.604162
C40   C     C_3   0.373825 0.671764 0.741310 0.147229
H24   H     H_    0.476213 0.681167 0.728620 0.141332
H25   H     H_    0.355213 0.691076 0.802616 0.126166
C41   C     C_3   0.302720 0.727569 0.682638 -0.837953
H26   H     H_    0.200808 0.723217 0.696435 0.244362
H27   H     H_    0.338226 0.793098 0.686673 0.201878
H28   H     H_    0.315957 0.708149 0.620909 0.268858
O11   O     O_3   0.346537 0.891347 0.420417 -0.599124
C42   C     C_3   0.228901 0.885149 0.458777 0.090582
H29   H     H_    0.236802 0.906935 0.520742 0.140929
H30   H     H_    0.189435 0.819896 0.460527 0.133596
C43   C     C_3   0.137826 0.939676 0.412588 -0.790102
H31   H     H_    0.126479 0.919075 0.350676 0.255632
H32   H     H_    0.044730 0.935120 0.442043 0.204319
H33   H     H_    0.173919 0.005489 0.410804 0.253849
O12   O     O_3   0.854674 0.313249 0.264873 -0.626183
C44   C     C_3   0.733050 0.284586 0.289780 0.100332
H34   H     H_    0.665533 0.334616 0.279111 0.162935
H35   H     H_    0.731798 0.262738 0.353850 0.147864
C45   C     C_3   0.689278 0.211681 0.240826 -0.793309
H36   H     H_    0.754117 0.160048 0.250269 0.255194
H37   H     H_    0.593266 0.189318 0.259356 0.210768
H38   H     H_    0.687246 0.231227 0.176550 0.256503
O13   O     O_3   0.319076 0.408842 0.103048 -0.632059
C46   C     C_3   0.207713 0.442050 0.070351 0.076982
H39   H     H_    0.183613 0.408831 0.015423 0.172159
H40   H     H_    0.217278 0.509438 0.051922 0.121505
C47   C     C_3   0.099606 0.427098 0.129275 -0.382149
H41   H     H_    0.086162 0.359318 0.143674 0.247711
H42   H     H_    0.123423 0.459102 0.184932 0.221983
C48   C     C_3   0.977063 0.459649 0.095009 -0.854507
H43   H     H_    0.987563 0.527658 0.081064 0.254252
H44   H     H_    0.900951 0.447765 0.139377 0.288349
H45   H     H_    0.949979 0.427573 0.039922 0.270207
O14   O     O_3   0.614604 0.360271 0.908231 -0.593678
C49   C     C_3   0.541004 0.286062 0.922242 0.104027
H46   H     H_    0.515215 0.257192 0.865014 0.132115
H47   H     H_    0.453803 0.297670 0.955332 0.159693
C50   C     C_3   0.616514 0.224956 0.972629 -0.791817
H48   H     H_    0.643349 0.252140 0.030195 0.262256
H49   H     H_    0.559235 0.166469 0.984732 0.201134
H50   H     H_    0.702984 0.210553 0.940624 0.253149

loop_
_geom_bond_atom_site_label_1
_geom_bond_atom_site_label_2
_ccdc_geom_bond_type
C31   O8    A    
O8    Zn2   S    
C38   H19   S    
C48   H43   S    
C39   H23   S    
C40   C41   S    
C40   H24   S    
C7    C8    A    
N1    N2    D    
N4    N5    D    
C46   H40   S    
C26   C27   A    
C17   C23   S    
O6    Zn2   S    
C41   H27   S    
C18   C19   A    
C1    O1    A    
C5    C6    A    
O14   C49   S    
C47   H41   S    
C2    C32   A    
C34   C35   A    
C10   N1    S    
C27   H5    S    
C45   H36   S    
C3    C12   S    
O1    Zn1   S    
C41   H26   S    
C35   C36   A    
C6    C36   A    
C8    C9    A    
O7    Zn1   S    
C41   H28   S    
C37   H17   S    
C42   H30   S    
C11   O14   S    
C9    C10   A    
C23   O5    A    
C6    C31   S    
C21   O11   S    
C21   C22   A    
C38   H20   S    
C35   H14   S    
C20   N3    A    
C25   H8    S    
C43   H32   S    
O13   C46   S    
C44   H35   S    
C44   H34   S    
C4    H1    S    
C39   H21   S    
C50   H49   S    
C46   C47   S    
O5    Zn1   S    
C30   H11   S    
C24   C25   A    
C1    O2    A    
N3    Zn2   S    
C4    C5    A    
C22   N4    S    
C28   N5    S    
C43   H33   S    
C29   H9    S    
C45   H38   S    
C18   H3    S    
C29   C30   A    
C12   O4    A    
O3    Zn1   S    
C14   O13   S    
O12   C44   S    
C37   C38   S    
C45   H37   S    
C17   C18   A    
C48   H44   S    
C15   H16   S    
C20   C21   A    
C42   C43   S    
C13   H2    S    
C20   H12   S    
C49   H47   S    
C23   O6    A    
C38   C39   S    
C14   C16   A    
C19   O9    S    
C3    C4    A    
C33   O12   S    
C44   C45   S    
C29   N6    A    
C26   H6    S    
C50   H50   S    
C2    C36   A    
C31   O7    A    
C34   H13   S    
C1    C7    S    
C32   H10   S    
C25   N3    A    
C39   H22   S    
O10   C40   S    
C27   N6    A    
C40   H25   S    
C50   H48   S    
C47   C48   S    
C15   C17   A    
C46   H39   S    
C26   C28   A    
C49   C50   S    
O4    Zn2   S    
C32   C33   A    
C28   C30   A    
C2    C3    A    
C12   O3    A    
C11   C13   A    
C47   H42   S    
C16   C19   A    
C43   H31   S    
C33   C34   A    
C49   H46   S    
C48   H45   S    
C22   C24   A    
C9    H4    S    
O9    C37   S    
C16   N2    S    
C10   C11   A    
N6    Zn1   S    
C7    C13   A    
O11   C42   S    
O2    Zn2   S    
C8    O10   S    
C24   H7    S    
C14   C15   A    
C5    H15   S    
C37   H18   S    
C42   H29   S    
