data_mof_unit_pretest_335.cif
_audit_creation_date              2012-10-26T19:27:22-0400
_audit_creation_method            fapswitch 2.2
_symmetry_space_group_name_H-M    P1
_symmetry_Int_Tables_number       1
_space_group_crystal_system       triclinic
_cell_length_a                    13.763209
_cell_length_b                    15.022678
_cell_length_c                    17.400074
_cell_angle_alpha                 88.351978
_cell_angle_beta                  83.047376
_cell_angle_gamma                 90.623152
_cell_volume                      3569.33790718

loop_
_atom_site_label
_atom_site_type_symbol
_atom_type_description
_atom_site_fract_x
_atom_site_fract_y
_atom_site_fract_z
_atom_type_partial_charge
C1    C     C_R   0.499403 0.671638 0.499817 0.535369
C2    C     C_R   0.559606 0.905677 0.547646 -0.000089
C3    C     C_R   0.513699 0.048362 0.494317 -0.032890
C4    C     C_R   0.511852 0.954957 0.493494 -0.031228
C5    C     C_R   0.568244 0.092533 0.546252 -0.009938
C6    C     C_R   0.460734 0.911138 0.439437 -0.010933
C7    C     C_R   0.415991 0.053527 0.385870 0.281094
C8    C     C_R   0.621133 0.949704 0.594009 0.276788
C9    C     C_R   0.430646 0.961965 0.376859 0.027218
C10   C     C_R   0.636782 0.042184 0.583428 0.026643
C11   C     C_R   0.215837 0.549876 0.445684 -0.020368
C12   C     C_R   0.499506 0.328977 0.502927 0.544030
C13   C     C_R   0.784364 0.447506 0.552476 -0.013022
C14   C     C_R   0.197859 0.441421 0.547878 0.397684
C15   C     C_R   0.802039 0.555584 0.448944 0.407333
C16   C     C_R   0.484699 0.499864 0.650534 0.525292
C17   C     C_R   0.515217 0.498730 0.349465 0.531745
C18   C     C_R   0.094116 0.447134 0.553777 -0.032278
C19   C     C_R   0.906381 0.546433 0.441453 -0.039881
C20   C     C_R   0.051930 0.497789 0.498035 -0.005752
C21   C     C_R   0.948309 0.497724 0.498816 -0.002942
C22   C     C_R   0.113684 0.546585 0.440401 -0.016083
C23   C     C_R   0.551441 0.184347 0.558517 0.009224
C24   C     C_R   0.886865 0.447958 0.556043 -0.011994
C25   C     C_R   0.032636 0.400674 0.612432 -0.139221
C26   C     C_R   0.969467 0.583331 0.378281 -0.147490
C27   C     C_R   0.930112 0.399268 0.613947 0.007967
C28   C     C_R   0.071454 0.588160 0.378595 0.009821
C29   C     C_R   0.472940 0.502948 0.736114 0.012310
C30   C     C_R   0.526374 0.490634 0.264146 0.015080
C31   C     C_R   0.554986 0.529981 0.770994 -0.153528
C32   C     C_R   0.443971 0.460937 0.230998 -0.145765
C33   C     C_R   0.551388 0.531848 0.850932 -0.123500
C34   C     C_R   0.440243 0.819029 0.450975 -0.000346
C35   C     C_R   0.446592 0.454664 0.151382 -0.117518
C36   C     C_R   0.465205 0.507140 0.898124 0.026358
C37   C     C_R   0.532384 0.477011 0.102814 0.026886
C38   C     C_R   0.381873 0.484016 0.864803 -0.100269
C39   C     C_R   0.616361 0.501697 0.134567 -0.098789
C40   C     C_R   0.384277 0.480071 0.784350 -0.002992
C41   C     C_R   0.614871 0.510032 0.214582 0.000156
C42   C     C_2   0.460119 0.503653 0.982725 -0.140015
C43   C     C_2   0.536314 0.477620 0.018324 -0.139186
C44   C     C_3   0.220652 0.290188 0.564084 0.001965
C45   C     C_R   0.500588 0.232437 0.505059 -0.002049
C46   C     C_3   0.218129 0.222749 0.631903 -0.272386
C47   C     C_3   0.220193 0.127079 0.604628 -0.486057
C48   C     C_3   0.803129 0.702698 0.395768 -0.027183
C49   C     C_3   0.730434 0.776229 0.415425 -0.242034
C50   C     C_3   0.772493 0.867953 0.388616 -0.489646
C51   C     C_3   0.870122 0.344824 0.677937 -0.281874
C52   C     C_3   0.820956 0.404366 0.740470 -0.441530
C53   C     C_3   0.132032 0.636304 0.311068 -0.282587
C54   C     C_3   0.182436 0.570542 0.254569 -0.441615
C55   C     C_3   0.707970 0.542863 0.242359 -0.258090
C56   C     C_R   0.496442 0.769200 0.499944 -0.021572
C57   C     C_3   0.770269 0.465040 0.265098 -0.394877
C58   C     C_3   0.292411 0.446693 0.754684 -0.255631
C59   C     C_3   0.226866 0.523644 0.735547 -0.394966
C60   C     C_3   0.574484 0.228143 0.632782 -0.279332
C61   C     C_3   0.482293 0.256695 0.683249 -0.442175
C62   C     C_3   0.346564 0.779904 0.425745 -0.263102
C63   C     C_3   0.265300 0.771984 0.494092 -0.416409
C64   C     C_3   0.271059 0.118711 0.365570 -0.001283
C65   C     C_3   0.201399 0.040878 0.354876 -0.268716
C66   C     C_3   0.095766 0.062727 0.384862 -0.487239
C67   C     C_R   0.457160 0.189411 0.448033 -0.160526
C68   C     C_3   0.617534 0.880785 0.713454 0.000369
C69   C     C_3   0.624685 0.954854 0.771345 -0.269022
C70   C     C_3   0.569127 0.929347 0.850299 -0.484522
C71   C     C_3   0.430180 0.923596 0.296807 -0.255953
C72   C     C_3   0.509789 0.966893 0.238232 -0.415812
C73   C     C_3   0.734773 0.081894 0.598751 -0.253139
C74   C     C_3   0.820345 0.040780 0.548052 -0.419288
C75   C     C_R   0.552173 0.812926 0.549439 -0.166235
C76   C     C_R   0.459977 0.097233 0.443691 -0.003159
Cu1   Cu    Cu3+1 0.402580 0.500010 0.500000 0.948971
Cu2   Cu    Cu3+1 0.597420 0.499990 0.500000 0.971548
H1    H     H_    0.622843 0.549972 0.736358 0.124466
H2    H     H_    0.682855 0.517515 0.096236 0.094315
H3    H     H_    0.381562 0.431942 0.128022 0.104925
H4    H     H_    0.615967 0.553232 0.875633 0.102715
H5    H     H_    0.421509 0.228817 0.406691 0.145263
H6    H     H_    0.591590 0.773515 0.588319 0.145491
H7    H     H_    0.278660 0.271778 0.517813 0.163768
H8    H     H_    0.150249 0.283924 0.538984 0.102672
H9    H     H_    0.281714 0.234255 0.663813 0.167076
H10   H     H_    0.150765 0.231907 0.672764 0.141158
H11   H     H_    0.157743 0.114122 0.571458 0.136990
H12   H     H_    0.376674 0.442047 0.266805 0.123362
H13   H     H_    0.214544 0.080292 0.655586 0.144708
H14   H     H_    0.290022 0.114631 0.567716 0.155443
H15   H     H_    0.832664 0.712659 0.333809 0.124818
H16   H     H_    0.862667 0.712093 0.433016 0.123726
H17   H     H_    0.662658 0.763905 0.388319 0.180875
H18   H     H_    0.714545 0.775235 0.479110 0.188387
H19   H     H_    0.789402 0.871585 0.324543 0.138162
H20   H     H_    0.840198 0.881902 0.415322 0.141663
H21   H     H_    0.718000 0.919737 0.406328 0.160769
H22   H     H_    0.877314 0.441669 0.767656 0.148466
H23   H     H_    0.264611 0.588901 0.404569 0.135078
H24   H     H_    0.771725 0.452632 0.715981 0.150228
H25   H     H_    0.776873 0.362652 0.785904 0.133349
H26   H     H_    0.814851 0.302857 0.653904 0.119876
H27   H     H_    0.917469 0.297496 0.706056 0.131513
H28   H     H_    0.229929 0.525207 0.284156 0.149981
H29   H     H_    0.126826 0.530164 0.229285 0.147430
H30   H     H_    0.228342 0.607489 0.206953 0.133544
H31   H     H_    0.084921 0.679553 0.278674 0.130582
H32   H     H_    0.186541 0.681861 0.331907 0.122252
H33   H     H_    0.730442 0.422570 0.312065 0.185970
H34   H     H_    0.735500 0.407336 0.592706 0.128760
H35   H     H_    0.790854 0.423310 0.214155 0.129895
H36   H     H_    0.838352 0.490726 0.285091 0.138135
H37   H     H_    0.752433 0.583090 0.195888 0.109472
H38   H     H_    0.690627 0.589626 0.289435 0.212755
H39   H     H_    0.265157 0.569891 0.690732 0.179729
H40   H     H_    0.160096 0.497014 0.713931 0.144527
H41   H     H_    0.204162 0.561504 0.788484 0.127132
H42   H     H_    0.311221 0.403676 0.705129 0.210361
H43   H     H_    0.249610 0.402429 0.799071 0.111962
H44   H     H_    0.440817 0.306040 0.652444 0.168450
H45   H     H_    0.064718 0.365060 0.657801 0.128721
H46   H     H_    0.435064 0.197485 0.701102 0.139474
H47   H     H_    0.502904 0.287870 0.736198 0.136142
H48   H     H_    0.610444 0.182129 0.670824 0.127255
H49   H     H_    0.624455 0.286129 0.618700 0.152679
H50   H     H_    0.199040 0.740903 0.475042 0.126091
H51   H     H_    0.287382 0.731568 0.543169 0.181397
H52   H     H_    0.245841 0.839380 0.515187 0.137440
H53   H     H_    0.314806 0.822442 0.382745 0.116036
H54   H     H_    0.361113 0.715721 0.397178 0.151421
H55   H     H_    0.246493 0.178669 0.334846 0.148721
H56   H     H_    0.939944 0.608374 0.327410 0.106198
H57   H     H_    0.265861 0.135352 0.427932 0.108024
H58   H     H_    0.205889 0.025885 0.292388 0.162998
H59   H     H_    0.222990 0.980724 0.386990 0.151726
H60   H     H_    0.089102 0.076591 0.447610 0.139620
H61   H     H_    0.047268 0.005154 0.376459 0.141016
H62   H     H_    0.071243 0.121681 0.352767 0.145506
H63   H     H_    0.646359 0.818535 0.737611 0.149803
H64   H     H_    0.539207 0.866625 0.706837 0.118008
H65   H     H_    0.593306 0.017067 0.749367 0.151391
H66   H     H_    0.702831 0.967668 0.778122 0.164710
H67   H     H_    0.605278 0.461354 0.984771 0.114062
H68   H     H_    0.490409 0.917516 0.845081 0.145896
H69   H     H_    0.575461 0.984307 0.890810 0.143449
H70   H     H_    0.600185 0.868207 0.874538 0.145379
H71   H     H_    0.495412 0.038585 0.228380 0.198446
H72   H     H_    0.582549 0.959741 0.259152 0.141031
H73   H     H_    0.511503 0.933522 0.181966 0.121294
H74   H     H_    0.446175 0.851352 0.297334 0.125678
H75   H     H_    0.357580 0.932779 0.276270 0.148458
H76   H     H_    0.827630 0.969063 0.562903 0.195843
H77   H     H_    0.809803 0.048520 0.485916 0.142136
H78   H     H_    0.391097 0.519923 0.016182 0.113083
H79   H     H_    0.889636 0.075333 0.557083 0.119440
H80   H     H_    0.739756 0.154251 0.584156 0.127135
H81   H     H_    0.744932 0.072232 0.660723 0.145552
H82   H     H_    0.315220 0.465942 0.902121 0.095637
N1    N     N_R   0.256180 0.500070 0.500030 -0.231575
N2    N     N_R   0.743820 0.499930 0.499970 -0.226319
O1    O     O_R   0.417720 0.629750 0.499980 -0.516127
O2    O     O_3   0.755359 0.617790 0.405558 -0.555480
O3    O     O_3   0.367964 0.100889 0.332594 -0.587999
O4    O     O_3   0.675843 0.901824 0.642303 -0.592761
O5    O     O_R   0.582280 0.370250 0.500020 -0.512580
O6    O     O_R   0.582260 0.629730 0.499990 -0.459945
O7    O     O_R   0.417740 0.370270 0.500010 -0.482061
O8    O     O_R   0.408190 0.500030 0.613590 -0.480360
O9    O     O_R   0.591810 0.499970 0.386410 -0.471639
O10   O     O_R   0.572730 0.500000 0.613600 -0.523654
O11   O     O_R   0.427270 0.500000 0.386400 -0.527181
O12   O     O_3   0.240959 0.376691 0.590115 -0.569243

loop_
_geom_bond_atom_site_label_1
_geom_bond_atom_site_label_2
_ccdc_geom_bond_type
C53   H32   S    
Cu1   O1    S    
C38   C40   A    
C52   H25   S    
C34   C56   A    
C23   C45   A    
C47   H14   S    
C14   C18   A    
C15   N2    A    
C36   C42   S    
C24   C27   A    
C11   N1    A    
Cu2   O6    S    
C70   H69   S    
C12   O5    A    
C35   H3    S    
C13   N2    A    
C39   C41   A    
C53   C54   S    
C69   H66   S    
C15   C19   A    
C52   H24   S    
Cu2   O5    S    
C62   C63   S    
C48   H16   S    
C54   H29   S    
C61   H46   S    
C26   H56   S    
C35   C37   A    
C1    C56   S    
C44   O12   S    
C13   H34   S    
C72   H71   S    
C10   C73   S    
C75   H6    S    
C55   H38   S    
C71   H75   S    
C34   C62   S    
C33   C36   A    
C74   H76   S    
C73   C74   S    
C63   H52   S    
C19   C26   A    
C41   C55   S    
C46   C47   S    
C32   H12   S    
C66   H61   S    
C17   O11   A    
C68   C69   S    
C50   H19   S    
C5    C23   A    
C45   C67   A    
C59   H41   S    
C31   C33   A    
C30   C41   A    
C68   H64   S    
C70   H68   S    
C33   H4    S    
C7    C76   A    
C63   H50   S    
C65   H59   S    
C7    O3    S    
C64   H57   S    
C59   H39   S    
C56   C75   A    
C22   C28   A    
C17   C30   S    
C47   H11   S    
C14   O12   S    
C18   C25   A    
C6    C9    A    
C44   H8    S    
C58   H42   S    
C27   C51   S    
C46   H10   S    
Cu1   N1    S    
C23   C60   S    
C37   C39   A    
C50   H20   S    
C40   C58   S    
C48   H15   S    
C54   H28   S    
C51   C52   S    
C32   C35   A    
C62   H54   S    
C15   O2    S    
C4    C6    A    
Cu1   O8    S    
C57   H35   S    
C44   C46   S    
C1    O6    A    
C16   C29   S    
Cu1   Cu2   S    
C73   H80   S    
C52   H22   S    
C69   H65   S    
C6    C34   A    
C13   C24   A    
C61   H44   S    
C37   C43   S    
C42   H78   S    
C64   O3    S    
C43   H67   S    
C16   O10   A    
C71   H74   S    
C66   H60   S    
C51   H27   S    
C72   H73   S    
Cu2   O10   S    
C50   H21   S    
C68   H63   S    
C11   H23   S    
C67   H5    S    
C49   H17   S    
C31   H1    S    
C3    C76   A    
C25   H45   S    
C57   H36   S    
C8    O4    S    
C8    C10   A    
C48   C49   S    
C20   C22   A    
C65   C66   S    
C59   H40   S    
C72   H72   S    
C55   C57   S    
C58   C59   S    
C70   H70   S    
C42   C43   D    
C3    C4    A    
C46   H9    S    
C53   H31   S    
C7    C9    A    
C64   H55   S    
C58   H43   S    
Cu1   O11   S    
C74   H79   S    
C19   C21   A    
C47   H13   S    
C62   H53   S    
C60   H49   S    
C2    C8    A    
C9    C71   S    
C12   C45   S    
C3    C5    A    
C28   C53   S    
C17   O9    A    
Cu2   N2    S    
C12   O7    A    
C48   O2    S    
C25   C27   A    
C73   H81   S    
C11   C22   A    
C26   C28   A    
C54   H30   S    
C39   H2    S    
C14   N1    A    
C60   H48   S    
C51   H26   S    
C38   H82   S    
C5    C10   A    
C29   C31   A    
C64   C65   S    
C30   C32   A    
C57   H33   S    
C55   H37   S    
C2    C4    A    
C29   C40   A    
C36   C38   A    
Cu2   O9    S    
C74   H77   S    
C18   C20   A    
C63   H51   S    
C49   H18   S    
C69   C70   S    
C65   H58   S    
C16   O8    A    
C71   C72   S    
C66   H62   S    
C20   C21   A    
C1    O1    A    
Cu1   O7    S    
C49   C50   S    
C21   C24   A    
C60   C61   S    
C61   H47   S    
C67   C76   A    
C2    C75   A    
C44   H7    S    
C68   O4    S    
