data_mof_unit_pretest_1801.cif
_audit_creation_date              2012-12-11T15:51:25-0500
_audit_creation_method            fapswitch 2.2
_symmetry_space_group_name_H-M    P1
_symmetry_Int_Tables_number       1
_space_group_crystal_system       triclinic
_cell_length_a                    6.945309
_cell_length_b                    17.371228
_cell_length_c                    18.753431
_cell_angle_alpha                 106.21985
_cell_angle_beta                  89.814002
_cell_angle_gamma                 90.543748
_cell_volume                      2172.41863299

loop_
_atom_site_label
_atom_site_type_symbol
_atom_type_description
_atom_site_fract_x
_atom_site_fract_y
_atom_site_fract_z
_atom_type_partial_charge
O1    O     O_R   0.494360 0.415660 0.413760 -0.521541
O2    O     O_R   0.818840 0.432910 0.557230 -0.526796
O3    O     O_R   0.994290 0.584340 0.586240 -0.503016
C1    C     C_R   0.649886 0.415953 0.580638 0.734476
O4    O     O_R   0.823740 0.406430 0.412520 -0.497910
O5    O     O_R   0.999220 0.557660 0.440500 -0.532239
C2    C     C_R   0.654262 0.384203 0.383712 0.775188
O6    O     O_R   0.489430 0.442340 0.559500 -0.532195
O7    O     O_3   0.662490 0.549650 0.509350 -0.348915
V1    V     V_3+5 0.935340 0.490790 0.498270 1.616992
O8    O     O_R   0.329240 0.567090 0.442770 -0.522629
C3    C     C_R   0.161056 0.584110 0.419415 0.744349
O9    O     O_R   0.324340 0.593570 0.587480 -0.516486
C4    C     C_R   0.155616 0.617551 0.614963 0.771255
V2    V     V_3+5 0.435970 0.509210 0.501730 1.590260
O10   O     O_3   0.158950 0.450350 0.490650 -0.351933
C5    C     C_R   0.295587 0.745082 0.703487 0.242141
C6    C     C_R   0.282692 0.807700 0.769260 -0.172093
H1    H     H_    0.398800 0.851388 0.783292 0.162967
C7    C     C_R   0.120634 0.815956 0.815583 -0.192543
C8    C     C_R   0.970343 0.759727 0.795134 -0.206457
H2    H     H_    0.843789 0.764447 0.829948 0.161604
C9    C     C_R   0.983103 0.695559 0.730603 0.633811
C10   C     C_R   0.145743 0.686849 0.683443 -0.240088
C11   C     C_1   0.111732 0.863875 0.132619 -0.202454
C12   C     C_1   0.119186 0.821297 0.176173 0.012394
C13   C     C_1   0.128496 0.771074 0.228055 0.013399
C14   C     C_1   0.136442 0.728790 0.271854 0.016405
C15   C     C_1   0.145741 0.678588 0.323752 0.024106
C16   C     C_1   0.153173 0.636047 0.367334 -0.169582
C17   C     C_1   0.641346 0.364034 0.632680 -0.185333
C18   C     C_1   0.637141 0.321454 0.676252 0.017432
C19   C     C_1   0.633705 0.271215 0.728138 0.014226
C20   C     C_1   0.631135 0.228893 0.771948 0.013426
C21   C     C_1   0.627700 0.178653 0.823832 0.014127
C22   C     C_1   0.623498 0.136064 0.867397 -0.199192
C23   C     C_R   0.791968 0.260066 0.295144 0.629687
C24   C     C_R   0.782403 0.196077 0.230353 -0.215522
H3    H     H_    0.900025 0.153908 0.217699 0.156739
C25   C     C_R   0.621563 0.185284 0.183392 -0.193958
C26   C     C_R   0.471630 0.240781 0.201766 -0.162765
H4    H     H_    0.347827 0.234348 0.165521 0.168120
C27   C     C_R   0.481068 0.306338 0.265353 0.247493
C28   C     C_R   0.641603 0.316409 0.314111 -0.241871
O11   O     O_R   0.775430 0.057750 0.940570 -0.521412
O12   O     O_R   0.440960 0.093590 0.087490 -0.539507
O13   O     O_R   0.265640 0.942320 0.059480 -0.522436
C29   C     C_R   0.610212 0.116619 0.115351 0.743301
O14   O     O_R   0.446010 0.067110 0.942790 -0.527205
O15   O     O_R   0.270710 0.915650 0.913740 -0.537613
C30   C     C_R   0.614965 0.084115 0.919414 0.720482
O16   O     O_R   0.770350 0.084410 0.086310 -0.537663
O17   O     O_3   0.602410 0.950400 0.990690 -0.362039
V3    V     V_3+5 0.329510 0.009200 0.001730 1.430750
O18   O     O_R   0.940670 0.906340 0.912450 -0.539378
C31   C     C_R   0.109600 0.883528 0.884515 0.742978
O19   O     O_R   0.935630 0.932820 0.057160 -0.526482
C32   C     C_R   0.103811 0.915875 0.080582 0.717522
V4    V     V_3+5 0.828890 0.990680 0.998180 1.430683
O20   O     O_3   0.105860 0.049600 0.009310 -0.361410
Br1   Br    Br    0.517507 0.747348 0.642440 -0.500284
F1    F     F_    0.836777 0.641040 0.715434 -0.664561
F2    F     F_    0.947585 0.265486 0.339957 -0.656522
Br2   Br    Br    0.273496 0.381563 0.277964 -0.514285

loop_
_geom_bond_atom_site_label_1
_geom_bond_atom_site_label_2
_ccdc_geom_bond_type
O5    V1    S    
O2    C1    A    
O8    C3    A    
C25   C26   A    
C23   C24   A    
O1    V2    S    
O16   V4    S    
O18   V4    S    
C26   H4    S    
C21   C22   T    
C7    C31   S    
C1    O6    A    
C22   C30   S    
C18   C19   S    
O12   V3    S    
C23   C28   A    
O9    V2    S    
C19   C20   T    
O17   V4    S    
V4    O20   S    
O15   V3    S    
O3    V1    S    
V3    O20   S    
O17   V3    S    
O13   C32   A    
C24   C25   A    
C26   C27   A    
O19   C32   A    
C15   C16   T    
O3    C4    A    
O8    V2    S    
O13   V3    S    
O1    C2    A    
O5    C3    A    
C8    H2    S    
C14   C15   S    
C23   F2    S    
C27   Br2   S    
C5    C6    A    
O6    V2    S    
C6    C7    A    
C8    C9    A    
C27   C28   A    
O7    V2    S    
C24   H3    S    
C20   C21   S    
C17   C18   T    
O12   C29   A    
O18   C31   A    
O19   V4    S    
C5    C10   A    
C11   C32   S    
O11   C30   A    
C9    C10   A    
O14   V3    S    
C1    C17   S    
O4    V1    S    
C29   O16   A    
C7    C8    A    
C25   C29   S    
C6    H1    S    
O7    V1    S    
C4    C10   S    
C13   C14   T    
O4    C2    A    
O11   V4    S    
C12   C13   S    
V1    O10   S    
O9    C4    A    
C5    Br1   S    
C11   C12   T    
C2    C28   S    
C3    C16   S    
C9    F1    S    
O15   C31   A    
V2    O10   S    
O14   C30   A    
O2    V1    S    
