data_mof_unit_pretest_1921.cif
_audit_creation_date              2012-12-10T18:17:30-0500
_audit_creation_method            fapswitch 2.2
_symmetry_space_group_name_H-M    P1
_symmetry_Int_Tables_number       1
_space_group_crystal_system       triclinic
_cell_length_a                    14.687687
_cell_length_b                    15.906644
_cell_length_c                    17.301951
_cell_angle_alpha                 89.875498
_cell_angle_beta                  85.36856
_cell_angle_gamma                 90.355752
_cell_volume                      4028.99473832

loop_
_atom_site_label
_atom_site_type_symbol
_atom_type_description
_atom_site_fract_x
_atom_site_fract_y
_atom_site_fract_z
_atom_type_partial_charge
C1    C     C_R   0.500245 0.660107 0.500294 0.856950
C2    C     C_R   0.426457 0.557623 0.772860 -0.199333
C3    C     C_R   0.480013 0.564614 0.144287 -0.216290
C4    C     C_R   0.473845 0.565446 0.225048 -0.008363
C5    C     C_R   0.577178 0.444024 0.222908 -0.065333
C6    C     C_R   0.585086 0.447900 0.141851 -0.078322
C7    C     C_R   0.534990 0.506127 0.102908 0.101029
C8    C     C_2   0.462760 0.509353 0.981162 -0.169710
C9    C     C_2   0.538935 0.503569 0.018299 -0.113540
C10   C     C_R   0.521051 0.503366 0.265072 -0.115372
C11   C     C_3   0.429080 0.950207 0.442112 0.688218
C12   C     C_R   0.487681 0.498037 0.650058 0.871653
C13   C     C_3   0.601074 0.950879 0.467790 0.643213
C14   C     C_3   0.601075 0.050655 0.470962 -0.252143
C15   C     C_1   0.499504 0.250480 0.498622 -0.103195
C16   C     C_3   0.502750 0.917169 0.495940 0.113462
C17   C     C_3   0.435198 0.049196 0.437567 0.096480
C18   C     C_3   0.502496 0.082916 0.496033 0.032862
C19   C     C_3   0.470775 0.048053 0.577820 -0.497053
C20   C     C_3   0.479199 0.951249 0.579437 -0.552310
C21   C     C_1   0.500317 0.175124 0.497552 0.002555
C22   C     C_1   0.501773 0.824917 0.497959 0.178146
C23   C     C_R   0.499793 0.339901 0.499571 0.851626
C24   C     C_1   0.501040 0.749547 0.499276 -0.082844
C25   C     C_3   0.947175 0.421513 0.460732 -0.501271
C26   C     C_3   0.940288 0.504167 0.586189 -0.040615
C27   C     C_3   0.048450 0.502304 0.581868 -0.368793
C28   C     C_3   0.907945 0.503352 0.500480 -0.096439
C29   C     C_3   0.054404 0.417757 0.458892 0.379491
C30   C     C_3   0.092341 0.501069 0.496384 -0.105838
C31   C     C_3   0.059844 0.584162 0.454467 -0.170122
C32   C     C_3   0.949478 0.581211 0.451278 0.309341
C33   C     C_1   0.195581 0.499302 0.497682 0.125214
C34   C     C_R   0.512327 0.500558 0.349797 0.820425
C35   C     C_1   0.804528 0.502073 0.501308 0.267078
C36   C     C_R   0.478848 0.495211 0.734432 -0.119922
C37   C     C_R   0.522525 0.433133 0.776473 -0.124200
C38   C     C_R   0.513016 0.435945 0.858380 0.377220
C39   C     C_R   0.466006 0.503462 0.896226 0.039678
C40   C     C_R   0.420575 0.563681 0.853529 -0.051402
Cu1   Cu    Cu3+1 0.410070 0.500090 0.500100 1.036155
Cu2   Cu    Cu3+1 0.589930 0.499910 0.499900 1.072676
H1    H     H_    0.626823 0.402715 0.108487 0.189238
H2    H     H_    0.620854 0.076352 0.412040 0.204370
H3    H     H_    0.414810 0.922810 0.606211 0.214067
H4    H     H_    0.532994 0.933401 0.618008 0.248192
H5    H     H_    0.398449 0.065883 0.593310 0.202665
H6    H     H_    0.365955 0.075741 0.453409 0.120286
H7    H     H_    0.511355 0.076079 0.622916 0.218003
H8    H     H_    0.916646 0.365571 0.491899 0.246343
H9    H     H_    0.073249 0.447098 0.613483 0.179062
H10   H     H_    0.076747 0.555613 0.613769 0.223338
H11   H     H_    0.922252 0.414175 0.402232 0.129332
H12   H     H_    0.604377 0.491713 0.986369 0.193222
H13   H     H_    0.443744 0.611402 0.113198 0.128768
H14   H     H_    0.393281 0.604156 0.739026 0.192564
H15   H     H_    0.397161 0.519432 0.013387 0.141316
N1    N     N_1   0.275150 0.498610 0.498410 -0.137201
N2    N     N_1   0.724850 0.501380 0.501620 -0.129797
O1    O     O_R   0.424030 0.620640 0.500090 -0.557846
O2    O     O_R   0.575910 0.620490 0.499920 -0.559511
O3    O     O_R   0.415250 0.500090 0.613690 -0.588716
O4    O     O_R   0.567140 0.499950 0.613520 -0.551201
O5    O     O_R   0.424090 0.379510 0.500080 -0.578286
O6    O     O_R   0.575970 0.379360 0.499910 -0.548790
O7    O     O_R   0.432860 0.500050 0.386480 -0.545501
O8    O     O_R   0.584750 0.499910 0.386310 -0.583733
C41   C     C_2   0.578748 0.366305 0.736371 0.399672
H16   H     H_    0.639358 0.343432 0.761390 0.114591
O9    O     O_2   0.556715 0.334434 0.676492 -0.544127
O10   O     O_3   0.463779 0.075441 0.361533 -0.709480
H17   H     H_    0.442070 0.133891 0.355485 0.343543
O11   O     O_3   0.445620 0.915014 0.367681 -0.647793
H18   H     H_    0.392774 0.929126 0.337791 0.381989
O12   O     O_3   0.663474 0.917893 0.517741 -0.725680
H19   H     H_    0.726000 0.926953 0.492603 0.370991
O13   O     O_3   0.627126 0.921066 0.392190 -0.666188
H20   H     H_    0.603213 0.958828 0.353106 0.370354
C42   C     C_2   0.670791 0.085828 0.522708 0.436319
H21   H     H_    0.667969 0.068748 0.583594 0.111662
O14   O     O_2   0.731134 0.133365 0.496295 -0.503463
C43   C     C_2   0.419457 0.634127 0.263821 0.413276
H22   H     H_    0.366984 0.664878 0.233413 0.085229
O15   O     O_2   0.435103 0.660164 0.327705 -0.516650
O16   O     O_3   0.340858 0.923289 0.471527 -0.725968
H23   H     H_    0.318859 0.959386 0.515687 0.307409
O17   O     O_3   0.075243 0.346617 0.503222 -0.704438
H24   H     H_    0.142437 0.343219 0.505278 0.355740
C44   C     C_2   0.904623 0.580619 0.631838 0.593902
H25   H     H_    0.845957 0.614827 0.614452 0.113454
O18   O     O_2   0.936371 0.600646 0.692341 -0.512776
C45   C     C_2   0.902160 0.427230 0.631255 0.355967
H26   H     H_    0.943831 0.371754 0.636785 0.133114
O19   O     O_2   0.822806 0.424731 0.658653 -0.543170
C46   C     C_2   0.920205 0.573145 0.368194 0.445112
H27   H     H_    0.953983 0.529539 0.327526 0.036940
O20   O     O_2   0.857964 0.615352 0.346232 -0.472316
C47   C     C_2   0.624058 0.374920 0.261908 0.410583
H28   H     H_    0.607296 0.360623 0.322679 0.065785
O21   O     O_2   0.681714 0.331983 0.226100 -0.507872
O22   O     O_3   0.908961 0.655309 0.482402 -0.680456
H29   H     H_    0.931434 0.703369 0.449151 0.386391
C48   C     C_2   0.109425 0.594135 0.373673 0.174370
H30   H     H_    0.164646 0.552767 0.353673 0.133578
O23   O     O_2   0.092392 0.653197 0.331986 -0.493160
C49   C     C_2   0.094806 0.403685 0.376174 0.356369
H31   H     H_    0.055839 0.417143 0.327055 0.057446
O24   O     O_2   0.173138 0.378979 0.363322 -0.530029
C50   C     C_2   0.094247 0.660844 0.498183 0.480815
H32   H     H_    0.163072 0.684647 0.483546 0.096845
O25   O     O_2   0.049450 0.693981 0.552182 -0.491827
C51   C     C_2   0.369673 0.634978 0.891835 0.413190
H33   H     H_    0.370545 0.645688 0.953593 0.064135
O26   O     O_2   0.326099 0.683466 0.854518 -0.510388
O27   O     O_3   0.546171 0.372933 0.903602 -0.727246
H34   H     H_    0.551846 0.320063 0.873681 0.323012

loop_
_geom_bond_atom_site_label_1
_geom_bond_atom_site_label_2
_ccdc_geom_bond_type
O17   H24   S    
C33   N1    T    
C18   C21   S    
Cu1   Cu2   S    
C14   C18   S    
C19   C20   S    
C17   H6    S    
C34   O7    A    
C51   O26   D    
C40   C51   S    
O13   H20   S    
C26   C44   S    
C26   C27   S    
C37   C38   A    
C36   C37   A    
C25   H11   S    
Cu1   N1    S    
C3    C7    A    
C50   O25   D    
C30   C31   S    
C19   H5    S    
C49   H31   S    
C26   C45   S    
O27   H34   S    
C37   C41   S    
C35   N2    T    
C18   C19   S    
O11   H18   S    
C25   H8    S    
C43   O15   D    
C3    H13   S    
C13   O12   S    
C28   C35   S    
C41   H16   S    
Cu2   O6    S    
C8    C39   S    
C12   C36   S    
C20   H3    S    
C15   C23   S    
C13   C14   S    
C27   C30   S    
Cu1   O3    S    
C51   H33   S    
C27   H9    S    
C25   C29   S    
C38   C39   A    
C13   O13   S    
O22   H29   S    
C28   C32   S    
C10   C34   S    
C11   O11   S    
C1    O1    A    
C39   C40   A    
C42   O14   D    
C12   O4    A    
C8    C9    D    
O16   H23   S    
C43   H22   S    
C25   C28   S    
C31   C48   S    
Cu2   N2    S    
O12   H19   S    
C29   C30   S    
C8    H15   S    
C12   O3    A    
C11   C16   S    
C19   H7    S    
C31   C32   S    
C15   C21   T    
C16   C20   S    
C45   O19   D    
C17   C18   S    
C31   C50   S    
C48   O23   D    
C14   C42   S    
Cu2   O2    S    
C6    C7    A    
C23   O5    A    
C17   O10   S    
C47   O21   D    
C6    H1    S    
Cu2   O8    S    
C22   C24   T    
C29   C49   S    
C44   O18   D    
C4    C10   A    
C3    C4    A    
C48   H30   S    
C27   H10   S    
C14   H2    S    
C2    C36   A    
C7    C9    S    
C11   C17   S    
C16   C22   S    
C30   C33   S    
Cu1   O1    S    
C1    O2    A    
C34   O8    A    
C46   O20   D    
Cu1   O7    S    
C26   C28   S    
C23   O6    A    
C5    C10   A    
C2    H14   S    
C50   H32   S    
C38   O27   S    
C5    C6    A    
C49   O24   D    
C11   O16   S    
C45   H26   S    
C29   O17   S    
C42   H21   S    
C2    C40   A    
O10   H17   S    
C32   C46   S    
C4    C43   S    
C5    C47   S    
C1    C24   S    
C41   O9    D    
C47   H28   S    
C13   C16   S    
C46   H27   S    
C32   O22   S    
C9    H12   S    
Cu1   O5    S    
C44   H25   S    
Cu2   O4    S    
C20   H4    S    
