data_mof_unit_pretest_213.cif
_audit_creation_date              2012-12-11T17:25:11-0500
_audit_creation_method            fapswitch 2.2
_symmetry_space_group_name_H-M    P1
_symmetry_Int_Tables_number       1
_space_group_crystal_system       triclinic
_cell_length_a                    6.955122
_cell_length_b                    20.541807
_cell_length_c                    24.484001
_cell_angle_alpha                 90.102232
_cell_angle_beta                  90.411636
_cell_angle_gamma                 89.453751
_cell_volume                      3497.79377142

loop_
_atom_site_label
_atom_site_type_symbol
_atom_type_description
_atom_site_fract_x
_atom_site_fract_y
_atom_site_fract_z
_atom_type_partial_charge
O1    O     O_R   0.507280 0.423750 0.460310 -0.536053
O2    O     O_R   0.171030 0.555650 0.437630 -0.536624
O3    O     O_R   0.004080 0.576250 0.539690 -0.536397
C1    C     C_R   0.339089 0.575673 0.421789 0.724031
O4    O     O_R   0.177330 0.422980 0.453960 -0.537917
O5    O     O_R   0.010420 0.442640 0.556140 -0.534843
C2    C     C_R   0.346260 0.399075 0.443330 0.694787
O6    O     O_R   0.500930 0.557360 0.443860 -0.535044
O7    O     O_3   0.340310 0.506600 0.533500 -0.366618
V1    V     V_3+5 0.064140 0.498780 0.493780 1.424998
O8    O     O_R   0.680890 0.444350 0.562370 -0.536991
C3    C     C_R   0.850541 0.424411 0.578150 0.724604
O9    O     O_R   0.674590 0.577020 0.546040 -0.537156
C4    C     C_R   0.842472 0.600887 0.556852 0.691722
V2    V     V_3+5 0.564550 0.501220 0.506220 1.426094
O10   O     O_3   0.838250 0.493400 0.466500 -0.366504
C5    C     C_R   0.975694 0.838112 0.911127 -0.052871
C6    C     C_R   0.844347 0.661401 0.589478 -0.047932
C7    C     C_R   0.048274 0.723011 0.905398 -0.164383
C8    C     C_R   0.037872 0.780314 0.935678 -0.162573
C9    C     C_R   0.920671 0.837884 0.855702 -0.231611
C10   C     C_R   0.919375 0.779166 0.824548 0.086567
C11   C     C_R   0.993927 0.722236 0.850072 0.146903
C12   C     C_R   0.858045 0.775606 0.768272 -0.049459
C13   C     C_R   0.901655 0.718078 0.736848 0.021734
C14   C     C_R   0.981224 0.663695 0.764314 -0.160720
C15   C     C_R   0.020375 0.665293 0.819951 -0.199061
C16   C     C_R   0.752617 0.826700 0.742076 0.324928
C17   C     C_R   0.728883 0.826584 0.685645 -0.188305
C18   C     C_R   0.781243 0.772788 0.654128 0.055594
C19   C     C_R   0.861350 0.716468 0.679187 0.083720
C20   C     C_R   0.741101 0.773660 0.597873 -0.140001
C21   C     C_R   0.770665 0.718361 0.566060 -0.158480
C22   C     C_R   0.892958 0.660658 0.645406 -0.194609
H1    H     H_    0.079227 0.621928 0.839239 0.123315
H2    H     H_    0.946316 0.615119 0.661459 0.091586
H3    H     H_    0.730171 0.719360 0.523245 0.105088
H4    H     H_    0.654522 0.867447 0.666700 0.147600
H5    H     H_    0.102785 0.679293 0.925081 0.115360
H6    H     H_    0.082977 0.779928 0.978132 0.108195
H7    H     H_    0.890062 0.884523 0.837237 0.155277
H8    H     H_    0.014386 0.618501 0.744015 0.121171
H9    H     H_    0.679386 0.816651 0.578734 0.113474
C23   C     C_R   0.766588 0.298457 0.750824 -0.240741
H10   H     H_    0.657959 0.336572 0.752154 0.133183
C24   C     C_R   0.891964 0.294664 0.706242 0.076283
C25   C     C_R   0.034106 0.245742 0.705582 -0.157734
H11   H     H_    0.132468 0.242023 0.671588 0.129847
C26   C     C_R   0.051288 0.201350 0.748929 -0.255623
H12   H     H_    0.162757 0.164199 0.747616 0.140650
C27   C     C_R   0.926584 0.205041 0.793685 0.037572
C28   C     C_R   0.780894 0.253275 0.794168 0.477175
C29   C     C_1   0.875391 0.340906 0.661349 -0.030321
C30   C     C_1   0.946783 0.158879 0.838595 0.005212
C31   C     C_1   0.960940 0.120661 0.876314 -0.177891
C32   C     C_1   0.862861 0.379200 0.623626 -0.195968
H13   H     H_    0.698996 0.702429 0.296353 0.112460
C33   C     C_R   0.596703 0.767469 0.233348 -0.155505
H14   H     H_    0.740560 0.780320 0.220896 0.110907
C34   C     C_R   0.436061 0.795026 0.206665 0.135979
C35   C     C_R   0.251300 0.777262 0.223784 -0.155489
H15   H     H_    0.125227 0.797808 0.203817 0.112383
C36   C     C_R   0.227520 0.732772 0.266825 -0.155479
H16   H     H_    0.083663 0.719917 0.279274 0.110942
C37   C     C_R   0.388162 0.705213 0.293506 0.135979
C38   C     C_R   0.572923 0.722979 0.276389 -0.155451
C39   C     C_1   0.459789 0.841024 0.161750 -0.059595
C40   C     C_1   0.364436 0.659194 0.338407 -0.059378
C41   C     C_1   0.349064 0.620975 0.376147 -0.192608
C42   C     C_1   0.475168 0.879211 0.123987 -0.192123
C43   C     C_R   0.472412 0.161631 0.088956 -0.046000
C44   C     C_R   0.352554 0.338488 0.411058 -0.042735
C45   C     C_R   0.532759 0.277096 0.094628 -0.157238
C46   C     C_R   0.524278 0.219934 0.064190 -0.163732
C47   C     C_R   0.429535 0.160719 0.144994 -0.214078
C48   C     C_R   0.440520 0.218342 0.177402 0.087219
C49   C     C_R   0.492854 0.276803 0.150743 0.136583
C50   C     C_R   0.404209 0.220009 0.235129 0.058070
C51   C     C_R   0.420952 0.280119 0.264881 0.057701
C52   C     C_R   0.472845 0.336524 0.235883 -0.186302
C53   C     C_R   0.507486 0.334715 0.180152 -0.199076
C54   C     C_R   0.352348 0.163601 0.264127 -0.186658
C55   C     C_R   0.317692 0.165407 0.319853 -0.200601
C56   C     C_R   0.332271 0.223320 0.349260 0.139067
C57   C     C_R   0.384602 0.281786 0.322607 0.086733
C58   C     C_R   0.292285 0.223020 0.405367 -0.160849
C59   C     C_R   0.300673 0.280178 0.435806 -0.167499
C60   C     C_R   0.395510 0.339411 0.355021 -0.214578
H17   H     H_    0.547526 0.379386 0.159821 0.124888
H18   H     H_    0.431999 0.385985 0.338054 0.094295
H19   H     H_    0.265215 0.279045 0.478817 0.106828
H20   H     H_    0.277666 0.120733 0.340183 0.124002
H21   H     H_    0.573450 0.321683 0.074313 0.119503
H22   H     H_    0.559615 0.221062 0.021169 0.120431
H23   H     H_    0.393004 0.114150 0.161962 0.094217
H24   H     H_    0.488723 0.383344 0.255087 0.123997
H25   H     H_    0.336508 0.116777 0.244928 0.123882
H26   H     H_    0.251576 0.178430 0.425675 0.114282
O11   O     O_R   0.323320 0.942780 0.056240 -0.535951
O12   O     O_R   0.647300 0.077050 0.046060 -0.537848
O13   O     O_R   0.813840 0.057330 0.943840 -0.531136
C61   C     C_R   0.478472 0.101038 0.056696 0.696592
O14   O     O_R   0.653250 0.944380 0.062400 -0.537542
O15   O     O_R   0.819830 0.923720 0.960300 -0.535859
C62   C     C_R   0.485164 0.924449 0.078302 0.721260
O16   O     O_R   0.317330 0.076390 0.039790 -0.536607
O17   O     O_3   0.483830 0.993470 0.966560 -0.364817
V3    V     V_3+5 0.760140 0.001210 0.006210 1.435838
O18   O     O_R   0.149290 0.922840 0.953850 -0.537901
C63   C     C_R   0.981092 0.899086 0.943039 0.696387
O19   O     O_R   0.143340 0.055500 0.937510 -0.538682
C64   C     C_R   0.973673 0.075505 0.921796 0.727112
V4    V     V_3+5 0.259690 0.998600 0.993650 1.434245
O20   O     O_3   0.986130 0.006520 0.033440 -0.368257
O21   O     O_3   0.661104 0.258844 0.838817 -0.552377
C65   C     C_3   0.477175 0.236242 0.823974 -0.243087
H27   H     H_    0.483667 0.185250 0.808482 0.131908
H28   H     H_    0.407349 0.268738 0.793268 0.143306
H29   H     H_    0.385187 0.236457 0.860806 0.172210
O22   O     O_3   0.652878 0.874206 0.770090 -0.648965
H30   H     H_    0.598023 0.853556 0.803007 0.290558

loop_
_geom_bond_atom_site_label_1
_geom_bond_atom_site_label_2
_ccdc_geom_bond_type
C13   C19   A    
O15   C63   A    
C36   C37   A    
C59   H19   S    
C31   C64   S    
C45   C46   A    
C4    C6    S    
C7    C11   A    
C7    C8    A    
C45   H21   S    
H13   C38   S    
C1    O6    A    
C5    C63   S    
C26   H12   S    
C47   H23   S    
C25   C26   A    
O22   H30   S    
O13   C64   A    
C55   H20   S    
C14   C15   A    
C20   H9    S    
C16   C17   A    
C48   C50   A    
O5    C3    A    
C18   C19   A    
C8    H6    S    
C29   C32   T    
C33   C34   A    
O21   C65   S    
C5    C8    A    
C65   H27   S    
V3    O20   S    
C35   C36   A    
C46   H22   S    
O17   V4    S    
C30   C31   T    
O8    V2    S    
C56   C57   A    
C33   C38   A    
C25   H11   S    
C34   C39   S    
C40   C41   T    
C26   C27   A    
C17   H4    S    
O17   V3    S    
O14   V3    S    
O1    V2    S    
C11   C15   A    
C52   H24   S    
O7    V1    S    
O18   V4    S    
C53   H17   S    
C23   C28   A    
O13   V3    S    
O1    C2    A    
O9    C4    A    
C1    C41   S    
C44   C60   A    
C23   C24   A    
O11   C62   A    
O12   V3    S    
O16   V4    S    
C27   C28   A    
C18   C20   A    
C12   C13   A    
O19   V4    S    
C16   O22   S    
C2    C44   S    
O4    C2    A    
C50   C51   A    
C15   H1    S    
C13   C14   A    
C21   H3    S    
C51   C52   A    
C34   C35   A    
O2    C1    A    
C47   C48   A    
O5    V1    S    
C17   C18   A    
C50   C54   A    
C55   C56   A    
C49   C53   A    
C37   C40   S    
O12   C61   A    
C19   C22   A    
O14   C62   A    
C48   C49   A    
C6    C22   A    
C3    C32   S    
O3    C4    A    
C7    H5    S    
C9    H7    S    
C43   C61   S    
C60   H18   S    
C37   C38   A    
O6    V2    S    
O9    V2    S    
C54   H25   S    
C10   C12   A    
O2    V1    S    
O15   V3    S    
C44   C59   A    
C23   H10   S    
C14   H8    S    
C28   O21   S    
V4    O20   S    
C57   C60   A    
C24   C25   A    
O19   C64   A    
C58   C59   A    
C12   C16   A    
C56   C58   A    
C52   C53   A    
C42   C62   S    
O11   V4    S    
C43   C46   A    
O8    C3    A    
C65   H29   S    
C39   C42   T    
C20   C21   A    
C27   C30   S    
C33   H14   S    
O4    V1    S    
O3    V1    S    
V1    O10   S    
O18   C63   A    
C43   C47   A    
C24   C29   S    
C51   C57   A    
C65   H28   S    
C61   O16   A    
C22   H2    S    
O7    V2    S    
C35   H15   S    
C58   H26   S    
C6    C21   A    
C5    C9    A    
C36   H16   S    
C54   C55   A    
C45   C49   A    
C10   C11   A    
C9    C10   A    
V2    O10   S    
