data_mof_unit_pretest_1443.cif
_audit_creation_date              2013-03-05T16:06:48-0500
_audit_creation_method            fapswitch 2.2
_symmetry_space_group_name_H-M    P1
_symmetry_Int_Tables_number       1
_space_group_crystal_system       triclinic
_cell_length_a                    6.968872
_cell_length_b                    14.792657
_cell_length_c                    16.034003
_cell_angle_alpha                 90.352134
_cell_angle_beta                  89.516379
_cell_angle_gamma                 90.304144
_cell_volume                      1652.80250235

loop_
_atom_site_label
_atom_site_type_symbol
_atom_site_description
_atom_site_fract_x
_atom_site_fract_y
_atom_site_fract_z
_atom_type_partial_charge
O1    O     O_R   0.505830 0.583360 0.413880 -0.594900
O2    O     O_R   0.175830 0.595460 0.585520 -0.577313
O3    O     O_R   0.005520 0.416640 0.586120 -0.597123
C1    C     C_R   0.344531 0.614861 0.616330 0.959996
O4    O     O_R   0.176120 0.594390 0.414490 -0.611394
O5    O     O_R   0.005810 0.415570 0.413870 -0.614766
C2    C     C_R   0.345386 0.615012 0.384951 0.945162
O6    O     O_R   0.505540 0.584430 0.586130 -0.600364
O7    O     O_3   0.339200 0.441330 0.500000 -0.281867
V1    V     V_3+5 0.064350 0.510880 0.500000 1.146059
O8    O     O_R   0.676100 0.404540 0.414480 -0.573491
C3    C     C_R   0.844742 0.386263 0.383252 0.948867
O9    O     O_R   0.675810 0.405610 0.585510 -0.595097
C4    C     C_R   0.844262 0.384155 0.614028 0.991108
V2    V     V_3+5 0.564340 0.489120 0.500000 1.159731
O10   O     O_3   0.839360 0.558670 0.500000 -0.283660
C5    C     C_2   0.731056 0.206619 0.785132 -0.262866
C6    C     C_2   0.883479 0.198339 0.835920 0.297926
H1    H     H_    0.612934 0.159624 0.791527 0.115944
C7    C     C_2   0.709268 0.279252 0.721572 -0.023467
C8    C     C_2   0.860073 0.315397 0.680294 -0.397593
H2    H     H_    0.564558 0.297845 0.704171 0.114760
H3    H     H_    0.003923 0.292459 0.694190 0.180364
C9    C     C_R   0.719207 0.199134 0.231919 -0.087372
C10   C     C_R   0.878968 0.188746 0.179922 -0.191076
C11   C     C_R   0.030096 0.251469 0.193666 -0.137253
H4    H     H_    0.154795 0.251285 0.153191 0.114495
C12   C     C_R   0.018064 0.317549 0.258479 -0.190162
H5    H     H_    0.133310 0.366041 0.265625 0.130379
C13   C     C_R   0.855397 0.322706 0.311849 -0.201989
C14   C     C_R   0.706169 0.264109 0.292546 0.035333
C15   C     C_3   0.501283 0.245773 0.312986 0.272835
C16   C     C_3   0.516693 0.168730 0.246858 0.317525
H6    H     H_    0.414081 0.304685 0.294499 -0.002127
H7    H     H_    0.427999 0.180991 0.191112 0.052233
C17   C     C_R   0.504751 0.683647 0.743437 0.054382
C18   C     C_R   0.353955 0.682706 0.685473 -0.371152
C19   C     C_R   0.215216 0.752641 0.692715 0.585190
C20   C     C_R   0.222493 0.815230 0.760208 -0.266719
H8    H     H_    0.111819 0.865562 0.766946 0.161262
C21   C     C_R   0.382648 0.819614 0.813083 -0.264865
C22   C     C_R   0.528714 0.757818 0.796312 0.013444
C23   C     C_3   0.736525 0.769557 0.771567 0.413474
C24   C     C_3   0.716030 0.678253 0.727936 -0.411527
H9    H     H_    0.840069 0.770259 0.823883 0.072280
H10   H     H_    0.781834 0.621904 0.763100 0.142009
H11   H     H_    0.754650 0.678376 0.660532 0.255762
C25   C     C_R   0.516525 0.734953 0.301991 0.160212
C26   C     C_R   0.354588 0.680699 0.315080 -0.259940
C27   C     C_R   0.211028 0.681866 0.253767 -0.275448
H12   H     H_    0.094872 0.633310 0.258613 0.180739
C28   C     C_R   0.227487 0.736654 0.181356 0.356699
C29   C     C_R   0.377549 0.802589 0.177033 -0.391477
C30   C     C_R   0.527233 0.794754 0.234332 0.113279
C31   C     C_3   0.722899 0.761042 0.211746 -0.373982
C32   C     C_3   0.714083 0.700300 0.286634 -0.448240
H13   H     H_    0.837194 0.813010 0.215099 0.191175
H14   H     H_    0.719886 0.723533 0.151595 0.241992
H15   H     H_    0.814601 0.720566 0.336913 0.190055
H16   H     H_    0.717368 0.627219 0.269908 0.204555
O11   O     O_R   0.229930 0.912420 0.917160 -0.569452
O12   O     O_R   0.559420 0.902500 0.088780 -0.601704
O13   O     O_R   0.729660 0.081330 0.089380 -0.582520
C33   C     C_R   0.389113 0.876024 0.113295 1.069820
O14   O     O_R   0.559650 0.901420 0.917750 -0.621132
O15   O     O_R   0.729880 0.080250 0.917130 -0.618513
C34   C     C_R   0.391708 0.883287 0.885789 0.980974
O16   O     O_R   0.229700 0.913500 0.089410 -0.561192
O17   O     O_3   0.396250 0.055540 0.003280 -0.295167
V3    V     V_3+5 0.671130 0.986010 0.003260 1.166732
O18   O     O_R   0.059600 0.091310 0.917720 -0.614130
C35   C     C_R   0.891391 0.118763 0.894190 0.782458
O19   O     O_R   0.059370 0.092380 0.088750 -0.602647
C36   C     C_R   0.889780 0.117207 0.114779 0.921260
V4    V     V_3+5 0.171120 0.007820 0.003230 1.177730
O20   O     O_3   0.896130 0.938240 0.003240 -0.242972
O21   O     O_3   0.489504 0.078950 0.276602 -0.645091
C37   C     C_3   0.627792 0.048569 0.334348 0.260950
H17   H     H_    0.549783 0.006642 0.380556 0.140188
H18   H     H_    0.700963 0.102457 0.370659 0.128834
C38   C     C_3   0.779986 0.991261 0.290644 -0.323291
H19   H     H_    0.714658 0.952672 0.238891 0.231141
H20   H     H_    0.894012 0.035174 0.264457 0.189441
C39   C     C_3   0.874328 0.928456 0.352227 -1.069106
H21   H     H_    0.931692 0.970150 0.403683 0.283158
H22   H     H_    0.993784 0.891492 0.321403 0.283869
H23   H     H_    0.768662 0.879396 0.377920 0.275378
O22   O     O_3   0.075120 0.762962 0.632877 -0.631317
C40   C     C_3   0.157931 0.790968 0.556163 0.260817
H24   H     H_    0.082787 0.754884 0.504859 0.130496
H25   H     H_    0.313245 0.774396 0.548854 0.037835
C41   C     C_3   0.130650 0.892012 0.544291 -0.295632
H26   H     H_    0.978793 0.905084 0.528463 0.199718
H27   H     H_    0.160264 0.928534 0.603271 0.207043
C42   C     C_3   0.265493 0.926189 0.475636 -1.064394
H28   H     H_    0.416691 0.921291 0.495788 0.264896
H29   H     H_    0.234346 0.997515 0.461230 0.286196
H30   H     H_    0.249212 0.885150 0.417927 0.278936
O23   O     O_3   0.778331 0.831943 0.706591 -0.625109
C43   C     C_3   0.729732 0.922601 0.722255 0.215780
H31   H     H_    0.860079 0.965051 0.713076 0.084662
H32   H     H_    0.680295 0.935982 0.786235 0.099928
C44   C     C_3   0.581805 0.949745 0.657346 -0.252443
H33   H     H_    0.653962 0.955955 0.595556 0.187499
H34   H     H_    0.472446 0.895664 0.652119 0.212726
C45   C     C_3   0.482201 0.038095 0.678765 -1.102295
H35   H     H_    0.434071 0.038866 0.744963 0.260668
H36   H     H_    0.353257 0.045930 0.639911 0.280933
H37   H     H_    0.580455 0.095222 0.664788 0.284375
N1    N     N_R   0.112997 0.713235 0.109355 0.226339
O24   O     O_R   0.145442 0.750349 0.037271 -0.409987
O25   O     O_R   0.009132 0.639827 0.110422 -0.432371
O26   O     O_3   0.995699 0.276064 0.846742 -0.645660
C46   C     C_3   0.193109 0.260715 0.859045 0.206286
H38   H     H_    0.272176 0.308760 0.818130 0.116732
H39   H     H_    0.243535 0.192764 0.838969 0.090017
C47   C     C_3   0.243869 0.283560 0.949666 -0.282131
H40   H     H_    0.188000 0.351812 0.965670 0.218526
H41   H     H_    0.174603 0.234417 0.992432 0.206036
C48   C     C_3   0.459902 0.283383 0.963647 -0.945017
H42   H     H_    0.518992 0.215908 0.948884 0.283250
H43   H     H_    0.490377 0.299423 0.030004 0.254041
H44   H     H_    0.531631 0.334704 0.923653 0.274386
O27   O     O_3   0.477562 0.218410 0.396635 -0.648026
C49   C     C_3   0.280161 0.209863 0.414940 0.237741
H45   H     H_    0.215309 0.154674 0.376676 0.124977
H46   H     H_    0.204744 0.274200 0.403069 0.124091
C50   C     C_3   0.254666 0.188374 0.507235 -0.283883
H47   H     H_    0.345659 0.129717 0.522577 0.209447
H48   H     H_    0.303766 0.246968 0.545439 0.216239
C51   C     C_3   0.045186 0.167178 0.528631 -1.047107
H49   H     H_    0.953505 0.226331 0.514926 0.270727
H50   H     H_    0.031843 0.150710 0.595913 0.271110
H51   H     H_    0.992829 0.108394 0.491815 0.265907

loop_
_geom_bond_atom_site_label_1
_geom_bond_atom_site_label_2
_geom_bond_distance
_ccdc_geom_bond_type
C31   C32   1.504781 S    
C21   C22   1.395107 A    
C15   O27   1.411477 S    
C17   C22   1.392646 A    
C42   H28   1.107589 S    
C39   H23   1.109740 S    
C1    O6    1.299855 A    
C51   H51   1.109820 S    
C50   H47   1.107522 S    
C46   H38   1.111102 S    
C42   H30   1.109835 S    
C20   C21   1.408256 A    
C29   C30   1.401574 A    
O11   V4    2.009154 S    
O16   V4    2.015448 S    
C25   C30   1.405259 A    
C11   H4    1.080211 S    
C33   O16   1.305557 A    
C4    C8    1.480542 S    
C17   C18   1.408716 A    
C23   O23   1.423299 S    
C47   H41   1.108361 S    
O5    C3    1.300152 A    
C19   C20   1.420918 A    
C29   C33   1.497437 S    
C37   H18   1.108795 S    
C45   H35   1.110470 S    
V2    O10   2.170444 S    
C5    C7    1.494612 S    
O12   V3    2.001240 S    
C10   C36   1.484084 S    
O19   C36   1.303924 A    
N1    O24   1.300182 A    
C43   H31   1.110834 S    
O12   C33   1.305976 A    
C16   H7    1.107417 S    
O8    V2    2.005866 S    
O15   C35   1.309774 A    
O23   C43   1.405522 S    
C24   H10   1.112292 S    
O14   C34   1.307452 A    
C49   C50   1.524254 S    
C27   C28   1.423502 A    
O1    V2    2.013853 S    
C40   H25   1.116094 S    
O7    V1    2.179025 S    
C24   H11   1.111569 S    
O22   C40   1.417529 S    
O9    C4    1.304881 A    
O19   V4    2.005655 S    
C6    O26   1.397831 S    
C43   H32   1.096601 S    
C38   H20   1.105420 S    
C48   H43   1.110689 S    
C38   H19   1.104311 S    
C6    C35   1.508869 S    
C9    C10   1.393854 A    
C2    C26   1.488262 S    
C21   C34   1.495738 S    
C47   C48   1.523988 S    
C20   H8    1.079164 S    
O4    C2    1.302823 A    
C37   H17   1.106538 S    
C27   H12   1.081960 S    
C10   C11   1.417634 A    
O21   C37   1.418721 S    
C41   C42   1.528002 S    
C32   H16   1.112529 S    
C19   O22   1.384271 S    
C15   H6    1.108360 S    
O2    C1    1.308840 A    
V4    O20   2.170468 S    
C18   C19   1.423311 A    
O11   C34   1.304884 A    
C14   C15   1.486181 S    
O13   V3    2.010169 S    
C28   N1    1.448134 S    
C13   C14   1.386077 A    
C7    C8    1.347237 D    
C41   H27   1.106620 S    
C5    C6    1.350425 D    
C44   H34   1.105262 S    
C31   H13   1.105437 S    
C42   H29   1.104515 S    
C28   C29   1.427764 A    
C39   H21   1.103451 S    
C40   C41   1.521079 S    
C23   H9    1.111072 S    
O3    C4    1.297106 A    
C25   C26   1.396473 A    
C7    H2    1.085881 S    
O6    V2    2.008860 S    
O9    V2    2.014525 S    
C23   C24   1.523819 S    
V3    O20   1.723286 S    
C49   H45   1.114344 S    
C17   C24   1.493606 S    
C22   C23   1.507769 S    
C51   H49   1.110333 S    
O2    V1    2.008930 S    
C50   C51   1.528123 S    
C38   C39   1.516285 S    
C48   H42   1.105299 S    
O26   C46   1.411219 S    
C25   C32   1.489661 S    
C30   C31   1.495270 S    
C12   H5    1.080343 S    
C3    C13   1.478600 S    
O1    C2    1.304431 A    
C39   H22   1.109429 S    
C51   H50   1.110446 S    
C50   H48   1.112408 S    
O5    V1    2.010192 S    
C46   H39   1.111466 S    
O8    C3    1.302608 A    
C48   H44   1.110843 S    
O13   C36   1.300530 A    
C11   C12   1.424565 A    
C9    C16   1.496761 S    
C32   H15   1.111233 S    
C15   C16   1.555367 S    
C8    H3    1.085381 S    
O7    V2    1.717459 S    
C9    C14   1.365644 A    
O18   C35   1.302221 A    
O3    V1    2.006555 S    
V1    O10   1.723348 S    
C47   H40   1.111798 S    
O18   V4    2.014480 S    
C37   C38   1.524570 S    
C16   O21   1.425045 S    
O15   V3    2.006559 S    
C45   H36   1.104736 S    
C12   C13   1.416654 A    
C41   H26   1.108626 S    
C5    H1    1.079249 S    
O17   V4    1.716978 S    
C44   C45   1.519186 S    
C43   C44   1.527984 S    
O17   V3    2.179064 S    
N1    O25   1.301933 A    
C46   C47   1.533616 S    
O4    V1    2.001288 S    
C1    C18   1.492473 S    
C26   C27   1.408781 A    
C31   H14   1.110019 S    
C44   H33   1.111354 S    
C49   H46   1.107899 S    
C40   H24   1.111193 S    
O14   V3    2.008915 S    
O27   C49   1.409388 S    
C45   H37   1.107595 S    
