data_mof_unit_pretest_1795.cif
_audit_creation_date              2012-12-10T18:57:47-0500
_audit_creation_method            fapswitch 2.2
_symmetry_space_group_name_H-M    P1
_symmetry_Int_Tables_number       1
_space_group_crystal_system       triclinic
_cell_length_a                    37.002951
_cell_length_b                    30.258857
_cell_length_c                    21.465887
_cell_angle_alpha                 89.996803
_cell_angle_beta                  54.854284
_cell_angle_gamma                 89.999285
_cell_volume                      19652.9050737

loop_
_atom_site_label
_atom_site_type_symbol
_atom_type_description
_atom_site_fract_x
_atom_site_fract_y
_atom_site_fract_z
_atom_type_partial_charge
C1    C     C_R   0.913681 0.499977 0.586383 0.863228
C2    C     C_R   0.086319 0.499978 0.413618 0.863249
C3    C     C_R   0.413681 0.999977 0.586381 0.863119
C4    C     C_R   0.586319 0.999978 0.413619 0.863371
C5    C     C_3   0.983728 0.455404 0.228865 -0.414090
C6    C     C_3   0.016209 0.455384 0.771208 -0.414106
C7    C     C_3   0.483665 0.955421 0.228932 -0.414058
C8    C     C_3   0.515625 0.955238 0.771819 -0.414347
C9    C     C_R   0.796946 0.537865 0.722271 -0.180590
C10   C     C_R   0.203055 0.537872 0.277732 -0.180588
C11   C     C_R   0.296944 0.037872 0.722223 -0.180662
C12   C     C_R   0.703058 0.037880 0.277782 -0.180646
C13   C     C_R   0.842759 0.538022 0.675798 -0.198899
C14   C     C_R   0.157242 0.538027 0.324205 -0.198899
C15   C     C_R   0.342757 0.038030 0.675755 -0.198915
C16   C     C_R   0.657244 0.038036 0.324251 -0.198899
C17   C     C_R   0.865721 0.499964 0.634629 -0.031713
C18   C     C_R   0.134279 0.499967 0.365372 -0.031722
C19   C     C_R   0.365720 0.999964 0.634622 -0.031596
C20   C     C_R   0.634280 0.999967 0.365379 -0.031668
C21   C     C_R   0.842576 0.461840 0.639963 -0.200175
C22   C     C_R   0.157423 0.461842 0.360036 -0.200171
C23   C     C_R   0.342577 0.961831 0.639984 -0.200115
C24   C     C_R   0.657422 0.961832 0.360012 -0.200100
C25   C     C_R   0.796770 0.461895 0.685724 -0.180594
C26   C     C_R   0.203229 0.461898 0.314277 -0.180592
C27   C     C_R   0.296771 0.961885 0.685741 -0.180424
C28   C     C_R   0.703228 0.961888 0.314256 -0.180413
C29   C     C_R   0.773950 0.499864 0.727010 0.112994
C30   C     C_R   0.226050 0.499869 0.272992 0.112993
C31   C     C_R   0.273949 0.999861 0.726994 0.113156
C32   C     C_R   0.726051 0.999867 0.273008 0.113155
C33   C     C_R   0.702996 0.487393 0.743968 -0.180933
C34   C     C_R   0.297004 0.487393 0.256033 -0.180932
C35   C     C_R   0.202991 0.987342 0.743982 -0.180781
C36   C     C_R   0.797009 0.987342 0.256019 -0.180779
C37   C     C_R   0.657192 0.487661 0.789429 -0.193612
C38   C     C_R   0.342807 0.487659 0.210571 -0.193613
C39   C     C_R   0.157187 0.987609 0.789449 -0.194973
C40   C     C_R   0.842812 0.987606 0.210552 -0.194974
C41   C     C_R   0.634216 0.499935 0.866230 -0.029727
C42   C     C_R   0.365784 0.499937 0.133771 -0.029726
C43   C     C_R   0.134215 0.999929 0.866228 -0.029000
C44   C     C_R   0.865785 0.999931 0.133773 -0.028997
C45   C     C_R   0.998490 0.499938 0.380088 0.836194
C46   C     C_R   0.001504 0.499936 0.619918 0.836198
C47   C     C_R   0.498488 0.999938 0.380090 0.836290
C48   C     C_R   0.501445 0.999933 0.619980 0.836337
C49   C     C_R   0.657378 0.512177 0.897108 -0.193815
C50   C     C_R   0.342623 0.512186 0.102893 -0.193817
C51   C     C_R   0.157379 0.012216 0.897082 -0.192475
C52   C     C_R   0.842622 0.012226 0.102919 -0.192476
C53   C     C_R   0.703200 0.512407 0.851337 -0.180315
C54   C     C_R   0.296801 0.512418 0.148665 -0.180311
C55   C     C_R   0.203200 0.012446 0.851307 -0.180183
C56   C     C_R   0.796800 0.012457 0.148695 -0.180179
C57   C     C_R   0.726007 0.499884 0.774838 0.112158
C58   C     C_R   0.273994 0.499890 0.225164 0.112155
C59   C     C_R   0.226005 0.999879 0.774827 0.112364
C60   C     C_R   0.773995 0.999885 0.225175 0.112359
C61   C     C_R   0.000001 0.586229 0.000000 0.859181
C62   C     C_R   0.500000 0.086231 0.000000 0.858940
C63   C     C_R   0.000126 0.500937 0.121302 0.836755
C64   C     C_R   0.999874 0.500942 0.878698 0.836752
C65   C     C_R   0.500127 0.000930 0.121301 0.836732
C66   C     C_R   0.499875 0.001004 0.878700 0.836711
C67   C     C_R   0.999999 0.413662 1.000000 0.866951
C68   C     C_R   0.499999 0.913662 0.999999 0.867086
C69   C     C_R   0.500000 0.413722 0.000001 0.867473
C70   C     C_R   0.000000 0.913722 0.000001 0.867465
C71   C     C_R   0.586232 0.499982 0.913919 0.867652
C72   C     C_R   0.413768 0.499982 0.086080 0.867649
C73   C     C_R   0.086231 0.999980 0.913919 0.867570
C74   C     C_R   0.913769 0.999981 0.086081 0.867568
C75   C     C_R   0.500000 0.586246 0.999999 0.867764
C76   C     C_R   1.000000 0.086246 0.999999 0.867654
C77   C     C_R   0.037909 0.703067 0.943697 -0.180695
C78   C     C_R   0.962099 0.703065 0.056315 -0.180693
C79   C     C_R   0.461945 0.203074 0.019695 -0.180847
C80   C     C_R   0.538056 0.203074 0.980321 -0.180857
C81   C     C_3   0.966720 0.536100 0.318491 -0.395426
C82   C     C_3   0.033328 0.536052 0.681450 -0.395477
C83   C     C_3   0.466778 0.036146 0.318429 -0.395798
C84   C     C_3   0.533748 0.035641 0.680982 -0.396466
C85   C     C_R   0.038014 0.657255 0.943937 -0.199821
C86   C     C_R   0.961991 0.657253 0.056070 -0.199820
C87   C     C_R   0.461839 0.157261 0.020156 -0.199775
C88   C     C_R   0.538162 0.157260 0.979853 -0.199759
C89   C     C_R   0.000002 0.634196 0.000002 -0.030587
C90   C     C_R   0.500001 0.134201 0.000003 -0.030605
C91   C     C_R   0.000004 0.725981 0.000006 0.113180
C92   C     C_R   0.500001 0.225986 0.000009 0.113070
C93   C     C_R   0.512683 0.296847 0.041126 -0.180592
C94   C     C_R   0.487318 0.296848 0.958886 -0.180599
C95   C     C_R   0.987598 0.796847 0.066148 -0.180404
C96   C     C_R   0.012410 0.796850 0.933861 -0.180402
C97   C     C_R   0.512430 0.342661 0.041524 -0.193665
C98   C     C_R   0.487570 0.342662 0.958486 -0.193661
C99   C     C_R   0.987843 0.842660 0.066045 -0.193668
C100  C     C_R   0.012163 0.842663 0.933961 -0.193666
C101  C     C_R   0.500000 0.365733 0.000004 -0.029660
C102  C     C_R   0.000002 0.865733 0.000003 -0.028380
C103  C     C_R   0.500001 0.273935 0.000007 0.112175
C104  C     C_R   0.000005 0.773934 0.000005 0.112536
C105  C     C_R   0.962101 0.296850 0.056342 -0.180382
C106  C     C_R   0.037891 0.296853 0.943646 -0.180379
C107  C     C_R   0.462095 0.796850 0.056317 -0.180347
C108  C     C_R   0.537897 0.796852 0.943670 -0.180352
C109  C     C_R   0.961996 0.342657 0.056103 -0.199170
C110  C     C_R   0.037999 0.342660 0.943889 -0.199168
C111  C     C_R   0.461990 0.842657 0.056078 -0.199168
C112  C     C_R   0.538004 0.842659 0.943913 -0.199130
C113  C     C_R   0.999998 0.365709 0.999998 -0.032725
C114  C     C_R   0.499998 0.865708 0.999997 -0.032765
C115  C     C_3   0.968477 0.537396 0.245256 -0.402325
C116  C     C_3   0.031572 0.537356 0.754684 -0.402281
C117  C     C_3   0.468534 0.037433 0.245196 -0.400192
C118  C     C_3   0.532006 0.037014 0.754200 -0.399629
C119  C     C_R   0.999995 0.273945 0.999993 0.113068
C120  C     C_R   0.499995 0.773944 0.999993 0.113093
C121  C     C_R   0.512334 0.703101 0.933887 -0.180623
C122  C     C_R   0.487657 0.703098 0.066103 -0.180626
C123  C     C_R   0.012314 0.203102 0.933896 -0.180656
C124  C     C_R   0.987677 0.203099 0.066094 -0.180655
C125  C     C_R   0.512092 0.657293 0.933989 -0.193721
C126  C     C_R   0.487903 0.657291 0.066004 -0.193718
C127  C     C_R   0.012072 0.157294 0.933998 -0.193728
C128  C     C_R   0.987923 0.157292 0.065995 -0.193725
C129  C     C_R   0.499998 0.634225 0.999997 -0.029680
C130  C     C_R   0.999998 0.134226 0.999997 -0.029697
C131  C     C_R   0.499995 0.726006 0.999995 0.112305
C132  C     C_R   0.999995 0.226007 0.999995 0.112276
C133  C     C_3   0.045989 0.510147 0.241940 -0.415404
C134  C     C_3   0.954021 0.510210 0.758051 -0.415394
C135  C     C_3   0.546003 0.010070 0.241927 -0.415208
C136  C     C_3   0.454111 0.010842 0.757991 -0.415096
C137  C     C_3   0.983873 0.454410 0.300186 -0.377480
C138  C     C_3   0.016057 0.454387 0.699894 -0.377439
C139  C     C_3   0.483802 0.954433 0.300261 -0.377525
C140  C     C_3   0.515411 0.954209 0.700570 -0.376944
C141  C     C_3   0.998626 0.500037 0.311783 0.178027
C142  C     C_3   0.001369 0.500033 0.688222 0.178024
C143  C     C_3   0.498626 0.000035 0.311783 0.177856
C144  C     C_3   0.501317 0.000036 0.688278 0.177812
C145  C     C_3   0.000085 0.500942 0.189507 0.178278
C146  C     C_3   0.999915 0.500945 0.810493 0.178281
C147  C     C_3   0.500088 0.000934 0.189505 0.177508
C148  C     C_3   0.499907 0.001002 0.810504 0.177578
C149  C     C_3   0.047186 0.509618 0.169275 -0.373354
C150  C     C_3   0.952824 0.509682 0.830715 -0.373382
C151  C     C_3   0.547200 0.009543 0.169263 -0.374179
C152  C     C_3   0.452922 0.010320 0.830650 -0.374513
H1    H     H_    0.975950 0.569240 0.327687 0.184954
H2    H     H_    0.024147 0.569205 0.672194 0.184950
H3    H     H_    0.476062 0.069272 0.327564 0.185142
H4    H     H_    0.525013 0.068899 0.671231 0.185056
H5    H     H_    0.005464 0.428686 0.189015 0.157647
H6    H     H_    0.994438 0.428696 0.811103 0.157675
H7    H     H_    0.505366 0.928673 0.189124 0.157736
H8    H     H_    0.493541 0.928824 0.812074 0.158065
H9    H     H_    0.069553 0.485132 0.237128 0.161452
H10   H     H_    0.930420 0.485229 0.762904 0.161407
H11   H     H_    0.569526 0.985017 0.237153 0.161510
H12   H     H_    0.430176 0.986181 0.763176 0.161021
H13   H     H_    0.070408 0.483360 0.130453 0.180209
H14   H     H_    0.929568 0.483453 0.869575 0.180245
H15   H     H_    0.570384 0.983255 0.130473 0.180377
H16   H     H_    0.429347 0.984374 0.869818 0.180776
H17   H     H_    0.779413 0.567430 0.753812 0.131713
H18   H     H_    0.220588 0.567439 0.246192 0.131712
H19   H     H_    0.279410 0.067444 0.753737 0.131538
H20   H     H_    0.720592 0.067454 0.246272 0.131534
H21   H     H_    0.860165 0.567677 0.672563 0.151659
H22   H     H_    0.139837 0.567684 0.327441 0.151658
H23   H     H_    0.360160 0.067692 0.672498 0.151498
H24   H     H_    0.639841 0.067700 0.327511 0.151492
H25   H     H_    0.859827 0.432213 0.608320 0.151275
H26   H     H_    0.140172 0.432213 0.391678 0.151276
H27   H     H_    0.359828 0.932198 0.608368 0.151235
H28   H     H_    0.640170 0.932196 0.391624 0.151240
H29   H     H_    0.720511 0.477913 0.684638 0.130875
H30   H     H_    0.279488 0.477908 0.315363 0.130876
H31   H     H_    0.220504 0.977827 0.684668 0.130574
H32   H     H_    0.779495 0.977822 0.315333 0.130577
H33   H     H_    0.639815 0.477950 0.764734 0.153421
H34   H     H_    0.360185 0.477943 0.235265 0.153420
H35   H     H_    0.139806 0.977861 0.764776 0.152171
H36   H     H_    0.860193 0.977853 0.235224 0.152169
H37   H     H_    0.640132 0.521910 0.956258 0.153291
H38   H     H_    0.359869 0.521922 0.043743 0.153289
H39   H     H_    0.140134 0.021985 0.956216 0.153324
H40   H     H_    0.859867 0.021998 0.043785 0.153321
H41   H     H_    0.932365 0.529007 0.368246 0.156062
H42   H     H_    0.067672 0.528909 0.631709 0.156051
H43   H     H_    0.432414 0.029110 0.368198 0.156452
H44   H     H_    0.567994 0.028028 0.631348 0.156325
H45   H     H_    0.720883 0.521887 0.875598 0.131299
H46   H     H_    0.279118 0.521904 0.124405 0.131299
H47   H     H_    0.220885 0.021961 0.875549 0.131174
H48   H     H_    0.779116 0.021977 0.124453 0.131178
H49   H     H_    0.067429 0.720661 0.900210 0.131438
H50   H     H_    0.932580 0.720657 0.099802 0.131439
H51   H     H_    0.432314 0.220671 0.035381 0.131618
H52   H     H_    0.567687 0.220671 0.964635 0.131619
H53   H     H_    0.067592 0.639929 0.900036 0.151500
H54   H     H_    0.932412 0.639925 0.099969 0.151501
H55   H     H_    0.432140 0.139936 0.035572 0.151383
H56   H     H_    0.567862 0.139935 0.964435 0.151394
H57   H     H_    0.522303 0.279248 0.073398 0.130960
H58   H     H_    0.477699 0.279251 0.926615 0.130957
H59   H     H_    0.978199 0.779252 0.117395 0.130668
H60   H     H_    0.021809 0.779257 0.882615 0.130669
H61   H     H_    0.932592 0.279254 0.099857 0.131549
H62   H     H_    0.067399 0.279258 0.900130 0.131548
H63   H     H_    0.432581 0.779253 0.099812 0.131515
H64   H     H_    0.567410 0.779257 0.900174 0.131513
H65   H     H_    0.932428 0.359985 0.100033 0.151428
H66   H     H_    0.067568 0.359989 0.899961 0.151429
H67   H     H_    0.432417 0.859984 0.099989 0.151428
H68   H     H_    0.567578 0.859988 0.900004 0.151429
H69   H     H_    0.521681 0.720699 0.882672 0.131033
H70   H     H_    0.478310 0.720694 0.117317 0.131029
H71   H     H_    0.021645 0.220700 0.882689 0.131062
H72   H     H_    0.978346 0.220695 0.117301 0.131064
H73   H     H_    0.521684 0.639986 0.882421 0.153425
H74   H     H_    0.478311 0.639982 0.117572 0.153427
H75   H     H_    0.021649 0.139987 0.882438 0.153453
H76   H     H_    0.978347 0.139983 0.117556 0.153456
H77   H     H_    0.934489 0.532560 0.260343 0.183154
H78   H     H_    0.065553 0.532479 0.739604 0.183171
H79   H     H_    0.434541 0.032644 0.260290 0.184311
H80   H     H_    0.565929 0.031739 0.739172 0.184443
H81   H     H_    0.980105 0.570449 0.217873 0.155006
H82   H     H_    0.019987 0.570426 0.782013 0.155007
H83   H     H_    0.480212 0.070467 0.217760 0.155640
H84   H     H_    0.520821 0.070231 0.781086 0.155726
H85   H     H_    0.056890 0.543106 0.248333 0.173326
H86   H     H_    0.943168 0.543185 0.751607 0.173373
H87   H     H_    0.556957 0.043010 0.248272 0.172750
H88   H     H_    0.443693 0.043962 0.751136 0.173248
H89   H     H_    0.060001 0.541852 0.139256 0.167692
H90   H     H_    0.940053 0.541932 0.860688 0.167647
H91   H     H_    0.560059 0.041760 0.139203 0.165700
H92   H     H_    0.440550 0.042718 0.860253 0.165157
H93   H     H_    0.006786 0.427937 0.293406 0.183530
H94   H     H_    0.993103 0.427946 0.706722 0.183499
H95   H     H_    0.506670 0.927924 0.293532 0.183601
H96   H     H_    0.492095 0.928074 0.707801 0.183298
H97   H     H_    0.950203 0.446029 0.350868 0.161195
H98   H     H_    0.049713 0.445957 0.649223 0.161238
H99   H     H_    0.450119 0.946108 0.350952 0.161137
H100  H     H_    0.548943 0.945321 0.649998 0.161629
H101  H     H_    0.949651 0.448848 0.245412 0.176739
H102  H     H_    0.050278 0.448786 0.754666 0.176704
H103  H     H_    0.449581 0.948911 0.245482 0.176727
H104  H     H_    0.549622 0.948235 0.755320 0.176342
O1    O     O_R   0.934520 0.536930 0.565470 -0.625508
O2    O     O_R   0.065480 0.536930 0.434530 -0.625501
O3    O     O_R   0.434520 0.036930 0.565470 -0.625520
O4    O     O_R   0.565480 0.036930 0.434530 -0.625452
O5    O     O_R   0.565440 0.499980 0.882290 -0.625785
O6    O     O_R   0.434560 0.499980 0.117710 -0.625783
O7    O     O_R   0.065440 0.999980 0.882290 -0.627602
O8    O     O_R   0.934560 0.999980 0.117710 -0.627602
O9    O     O_R   0.565450 0.499990 0.986830 -0.625567
O10   O     O_R   0.434550 0.499990 0.013170 -0.625565
O11   O     O_R   0.065450 0.999990 0.986830 -0.623628
O12   O     O_R   0.934550 0.999990 0.013170 -0.623626
O13   O     O_R   0.500010 0.565460 0.947720 -0.625741
O14   O     O_R   0.499990 0.565460 0.052280 -0.625741
O15   O     O_R   0.000010 0.065460 0.947720 -0.625774
O16   O     O_R   0.999990 0.065460 0.052280 -0.625773
O17   O     O_R   0.934480 0.463010 0.565510 -0.625466
O18   O     O_R   0.065520 0.463010 0.434490 -0.625461
O19   O     O_R   0.434480 0.963010 0.565510 -0.625505
O20   O     O_R   0.565520 0.963010 0.434490 -0.625440
O21   O     O_R   0.999990 0.536930 0.407410 -0.629801
O22   O     O_R   0.000010 0.536930 0.592590 -0.629803
O23   O     O_R   0.499990 0.036930 0.407410 -0.629827
O24   O     O_R   0.500010 0.036930 0.592590 -0.629799
O25   O     O_R   0.999940 0.463010 0.407450 -0.630884
O26   O     O_R   0.000060 0.463010 0.592550 -0.630885
O27   O     O_R   0.499940 0.963010 0.407450 -0.630880
O28   O     O_R   0.500060 0.963010 0.592550 -0.630938
O29   O     O_R   0.963000 0.565420 0.036990 -0.626410
O30   O     O_R   0.037000 0.565420 0.963010 -0.626411
O31   O     O_R   0.463000 0.065420 0.036990 -0.626447
O32   O     O_R   0.537000 0.065420 0.963010 -0.626450
O33   O     O_R   0.963020 0.499940 0.129580 -0.631540
O34   O     O_R   0.036980 0.499940 0.870420 -0.631543
O35   O     O_R   0.463020 0.999940 0.129580 -0.629807
O36   O     O_R   0.536980 0.999940 0.870420 -0.629836
O37   O     O_R   0.036940 0.500000 0.055660 -0.629404
O38   O     O_R   0.963060 0.500000 0.944340 -0.629401
O39   O     O_R   0.536940 0.000000 0.055660 -0.631096
O40   O     O_R   0.463060 0.000000 0.944340 -0.631050
O41   O     O_R   0.963020 0.434470 0.036970 -0.624362
O42   O     O_R   0.036980 0.434470 0.963030 -0.624361
O43   O     O_R   0.463020 0.934470 0.036970 -0.624322
O44   O     O_R   0.536980 0.934470 0.963030 -0.624323
O45   O     O_R   0.499930 0.434510 0.947790 -0.625660
O46   O     O_R   0.500070 0.434510 0.052210 -0.625659
O47   O     O_R   0.999930 0.934510 0.947790 -0.625563
O48   O     O_R   0.000070 0.934510 0.052210 -0.625563
Zn1   Zn    Zn3+2 0.000000 0.549330 0.500000 0.926819
Zn2   Zn    Zn3+2 0.500000 0.049330 0.500000 0.926797
Zn3   Zn    Zn3+2 0.000000 0.450610 0.500000 0.927200
Zn4   Zn    Zn3+2 0.500000 0.950610 0.500000 0.927216
Zn5   Zn    Zn3+2 0.950610 0.499940 0.049380 0.926957
Zn6   Zn    Zn3+2 0.049390 0.499940 0.950620 0.926957
Zn7   Zn    Zn3+2 0.450610 0.999940 0.049380 0.926940
Zn8   Zn    Zn3+2 0.549390 0.999940 0.950620 0.926930
Zn9   Zn    Zn3+2 0.499970 0.499980 0.930220 0.938771
Zn10  Zn    Zn3+2 0.500030 0.499980 0.069780 0.938772
Zn11  Zn    Zn3+2 0.999970 0.999980 0.930220 0.938978
Zn12  Zn    Zn3+2 0.000030 0.999980 0.069780 0.938978
H105  H     H_    0.779108 0.432308 0.689520 0.131619
H106  H     H_    0.220891 0.432310 0.310479 0.131619
H107  H     H_    0.279110 0.932290 0.689563 0.131422
H108  H     H_    0.720888 0.932291 0.310431 0.131422
H109  H     H_    0.522287 0.359973 0.073668 0.153273
H110  H     H_    0.477714 0.359975 0.926341 0.153275
H111  H     H_    0.978196 0.859970 0.117641 0.152194
H112  H     H_    0.021808 0.859974 0.882364 0.152196

loop_
_geom_bond_atom_site_label_1
_geom_bond_atom_site_label_2
_ccdc_geom_bond_type
C11   H19   S    
C55   C59   A    
C70   O47   A    
C108  C120  A    
C9    H17   S    
C139  H95   S    
O17   Zn3   S    
C79   C87   A    
C48   O28   A    
C12   H20   S    
C25   H105  S    
C13   H21   S    
C27   H107  S    
C28   H108  S    
C14   H22   S    
C152  H92   S    
C6    C146  S    
C95   C99   A    
C7    H7    S    
C35   H31   S    
C47   C143  S    
C48   C144  S    
O9    Zn10  S    
C31   C59   S    
C9    C13   A    
C146  C150  S    
C11   C15   A    
O19   Zn4   S    
C37   H33   S    
C12   C16   A    
C3    C19   S    
C65   C147  S    
C66   C148  S    
C108  C112  A    
C21   H25   S    
C4    O4    A    
C134  H86   S    
C126  H74   S    
C88   H56   S    
C41   C49   A    
C136  C152  S    
C47   O23   A    
O48   Zn12  S    
C48   O24   A    
C25   C29   A    
C27   C31   A    
C28   C32   A    
C45   O25   A    
C126  C129  A    
C123  H71   S    
C8    H104  S    
C17   C21   A    
C80   C92   A    
C19   C23   A    
O36   Zn8   S    
C2    O18   A    
C65   O39   A    
C66   O40   A    
C16   C20   A    
C42   C72   S    
C44   C74   S    
O37   Zn6   S    
C45   O21   A    
C96   C104  A    
C67   O42   A    
C107  C120  A    
C136  H12   S    
C77   C91   A    
C116  H78   S    
C135  H11   S    
C5    C137  S    
C69   C101  S    
C8    C140  S    
C53   H45   S    
C83   C117  S    
C80   C88   A    
O8    Zn12  S    
C83   C143  S    
C84   H4    S    
O29   Zn5   S    
C49   C53   A    
C51   C55   A    
C83   H43   S    
C62   O32   A    
C151  H91   S    
C4    C20   S    
C125  C129  A    
C107  H63   S    
O20   Zn4   S    
C122  H70   S    
C34   C58   A    
C117  H83   S    
O42   Zn6   S    
C56   H48   S    
C26   C30   A    
C43   C73   S    
C122  C126  A    
C123  C132  A    
O6    Zn10  S    
C93   C103  A    
C112  C114  A    
C85   H53   S    
C68   O44   A    
C69   O45   A    
C151  H15   S    
C83   H3    S    
C84   C144  S    
C150  H14   S    
C76   O15   A    
C63   O37   A    
C81   H1    S    
C124  C132  A    
C64   O34   A    
C5    H101  S    
C139  C143  S    
C124  H72   S    
C24   H28   S    
C41   C71   S    
C44   C52   A    
C135  C143  S    
C26   H106  S    
C77   C85   A    
C111  H67   S    
O7    Zn11  S    
C6    H6    S    
C7    C147  S    
O33   Zn5   S    
C106  H62   S    
C55   H47   S    
C5    C145  S    
O35   Zn7   S    
O10   Zn9   S    
C149  H13   S    
C10   C14   A    
C38   H34   S    
C81   H41   S    
C147  C151  S    
O25   Zn3   S    
C121  C125  A    
O2    Zn1   S    
C137  H93   S    
C107  C111  A    
C123  C127  A    
O39   Zn8   S    
C128  H76   S    
O40   Zn7   S    
C112  H68   S    
C61   O30   A    
C47   O27   A    
C42   C50   A    
O22   Zn1   S    
C94   H58   S    
C46   O26   A    
C93   C97   A    
C122  C131  A    
C51   H39   S    
O27   Zn4   S    
C21   C25   A    
C140  H96   S    
C23   H27   S    
C24   C28   A    
C138  H98   S    
C77   H49   S    
C3    O3    A    
C3    O19   A    
C40   H36   S    
C75   O14   A    
C1    C17   S    
C13   C17   A    
C95   H59   S    
C116  C146  S    
O28   Zn4   S    
O38   Zn5   S    
C84   H44   S    
C96   C100  A    
C37   C41   A    
C109  H65   S    
O47   Zn11  S    
C99   H111  S    
C40   C44   A    
C84   C118  S    
C116  H82   S    
O1    Zn1   S    
C63   C145  S    
O46   Zn10  S    
C73   O7    A    
C74   O8    A    
C127  H75   S    
C96   H60   S    
C106  C119  A    
C120  C131  S    
C140  H100  S    
C82   C142  S    
O21   Zn1   S    
C46   C142  S    
C15   C19   A    
O30   Zn6   S    
O45   Zn9   S    
C50   C54   A    
C106  C110  A    
O13   Zn9   S    
C94   C98   A    
C64   C146  S    
C35   C59   A    
C105  C109  A    
C124  C128  A    
C16   H24   S    
C18   C22   A    
C67   O41   A    
C45   C141  S    
C8    C148  S    
C70   O48   A    
C125  H73   S    
C152  H16   S    
O18   Zn3   S    
C1    O1    A    
C148  C152  S    
C138  C142  S    
C85   C89   A    
C117  H79   S    
C33   C37   A    
C56   C60   A    
C35   C39   A    
C134  C142  S    
O41   Zn5   S    
C108  H64   S    
C29   C57   S    
C94   C103  A    
O34   Zn6   S    
C5    H5    S    
C100  H112  S    
C33   H29   S    
C32   C60   S    
O11   Zn12  S    
C8    H8    S    
C115  H81   S    
C137  C141  S    
C53   C57   A    
C7    H103  S    
C72   O6    A    
C140  C144  S    
C86   C89   A    
C128  C130  A    
C137  H97   S    
C70   C102  S    
C15   H23   S    
C10   H18   S    
C98   C101  A    
C115  C145  S    
C133  C141  S    
C117  C147  S    
C118  C148  S    
C82   C116  S    
C136  C144  S    
C43   C51   A    
C80   H52   S    
C135  C151  S    
C76   O16   A    
C46   O22   A    
C111  C114  A    
C50   H38   S    
C82   H42   S    
C133  H85   S    
C118  H84   S    
C150  H90   S    
C99   C102  A    
C22   C26   A    
C87   C90   A    
C121  H69   S    
C105  C119  A    
C145  C149  S    
C71   O5    A    
C2    C18   S    
C14   C18   A    
C91   C104  S    
C22   H26   S    
C86   H54   S    
C138  H94   S    
C38   C42   A    
O16   Zn12  S    
C49   H37   S    
C134  C150  S    
C30   C58   S    
C6    H102  S    
C52   H40   S    
C10   C30   A    
C62   O31   A    
C73   O11   A    
C92   C103  S    
O12   Zn11  S    
C74   O12   A    
C20   C24   A    
C118  H80   S    
C36   H32   S    
C61   O29   A    
C1    O17   A    
C109  C113  A    
C39   H35   S    
C78   C86   A    
C81   C141  S    
C11   C31   A    
C71   O9    A    
C12   C32   A    
C76   C130  S    
C121  C131  A    
C72   O10   A    
O3    Zn2   S    
C61   C89   S    
O24   Zn2   S    
O14   Zn10  S    
C68   O43   A    
C105  H61   S    
C69   O46   A    
C4    O20   A    
C36   C40   A    
C133  C149  S    
C97   H109  S    
O23   Zn2   S    
C39   C43   A    
C75   O13   A    
C134  H10   S    
O4    Zn2   S    
C6    C138  S    
C81   C115  S    
C100  C102  A    
C119  C132  S    
C110  C113  A    
C87   H55   S    
C79   C92   A    
O43   Zn7   S    
C2    O2    A    
C23   C27   A    
C93   H57   S    
O44   Zn8   S    
C95   C104  A    
C54   C58   A    
C33   C57   A    
C34   C38   A    
O15   Zn11  S    
C139  H99   S    
C78   H50   S    
C88   C90   A    
C36   C60   A    
C133  H9    S    
C9    C29   A    
C78   C91   A    
C54   H46   S    
O5    Zn9   S    
C79   H51   S    
C136  H88   S    
C67   C113  S    
C127  C130  A    
O26   Zn3   S    
C7    C139  S    
C65   O35   A    
C62   C90   S    
C135  H87   S    
C34   H30   S    
C110  H66   S    
C115  H77   S    
C66   O36   A    
C82   H2    S    
C75   C129  S    
C98   H110  S    
C149  H89   S    
C63   O33   A    
C64   O38   A    
O31   Zn7   S    
O32   Zn8   S    
C97   C101  A    
C52   C56   A    
C68   C114  S    
