data_mof_unit_pretest_1144.cif
_audit_creation_date              2012-12-10T20:41:55-0500
_audit_creation_method            fapswitch 2.2
_symmetry_space_group_name_H-M    P1
_symmetry_Int_Tables_number       1
_space_group_crystal_system       triclinic
_cell_length_a                    14.531384
_cell_length_b                    15.344582
_cell_length_c                    9.917673
_cell_angle_alpha                 89.215821
_cell_angle_beta                  88.542532
_cell_angle_gamma                 90.391391
_cell_volume                      2210.44352141

loop_
_atom_site_label
_atom_site_type_symbol
_atom_type_description
_atom_site_fract_x
_atom_site_fract_y
_atom_site_fract_z
_atom_type_partial_charge
C1    C     C_R   0.390311 0.871851 0.501177 0.892155
C2    C     C_R   0.924602 0.529844 0.071693 0.097255
C3    C     C_R   0.577704 0.983354 0.069419 -0.108232
C4    C     C_R   0.077867 0.484035 0.069366 -0.131563
C5    C     C_R   0.577777 0.982976 0.925776 -0.148850
C6    C     C_R   0.077918 0.483543 0.925732 -0.141310
C7    C     C_R   0.425857 0.029198 0.930321 0.147788
C8    C     C_R   0.925756 0.528986 0.930309 0.147429
C9    C     C_3   0.329718 0.999515 0.920504 -0.489937
C10   C     C_3   0.829661 0.499256 0.920292 -0.489132
C11   C     C_3   0.321760 0.006285 0.074152 0.356355
C12   C     C_R   0.390035 0.127838 0.499468 0.894084
C13   C     C_3   0.821605 0.506038 0.073945 0.358022
C14   C     C_R   0.626667 0.114339 0.498145 0.890464
C15   C     C_R   0.623435 0.881618 0.498651 0.870826
C16   C     C_R   0.126549 0.614627 0.497764 0.886138
C17   C     C_R   0.123503 0.381696 0.498647 0.875234
C18   C     C_R   0.326223 0.258873 0.610680 0.097073
C19   C     C_R   0.317838 0.746424 0.621655 0.099941
C20   C     C_R   0.826417 0.759033 0.610415 0.096837
C21   C     C_R   0.817842 0.246407 0.621688 0.099399
C22   C     C_R   0.349689 0.213856 0.494859 -0.227864
C23   C     C_R   0.889747 0.372071 0.501106 0.892432
C24   C     C_R   0.351715 0.784660 0.502624 -0.220576
C25   C     C_R   0.849634 0.713792 0.494723 -0.228715
C26   C     C_R   0.850498 0.285059 0.502219 -0.204582
C27   C     C_R   0.327873 0.252952 0.370658 0.147107
C28   C     C_R   0.343592 0.735660 0.383403 0.139531
C29   C     C_R   0.827563 0.752646 0.370440 0.150494
C30   C     C_R   0.842134 0.236024 0.382772 0.116484
C31   C     C_R   0.745465 0.801650 0.366849 0.183675
C32   C     C_R   0.769166 0.174452 0.378174 0.184168
C33   C     C_R   0.245859 0.302070 0.366963 0.182721
C34   C     C_R   0.890031 0.627825 0.499454 0.897662
C35   C     C_R   0.269778 0.675760 0.377060 0.181413
C36   C     C_R   0.707222 0.830948 0.492451 -0.247228
C37   C     C_R   0.713509 0.160470 0.496323 -0.198821
C38   C     C_R   0.207390 0.331173 0.492503 -0.244736
C39   C     C_R   0.213011 0.661585 0.494871 -0.222263
C40   C     C_R   0.758749 0.820500 0.608564 0.062837
C41   C     C_R   0.749515 0.185493 0.618407 0.044261
C42   C     C_R   0.258630 0.320434 0.608824 0.063732
C43   C     C_R   0.248808 0.686254 0.617367 0.056621
C44   C     C_3   0.731716 0.801262 0.752938 -0.481508
C45   C     C_3   0.305476 0.231183 0.751768 -0.002149
C46   C     C_3   0.707164 0.212248 0.749939 -0.449959
C47   C     C_3   0.231076 0.300745 0.752861 -0.482705
C48   C     C_3   0.206131 0.713263 0.748555 -0.450782
C49   C     C_3   0.397870 0.252351 0.255254 -0.832302
C50   C     C_3   0.412395 0.743780 0.266767 -0.818876
C51   C     C_3   0.897620 0.752269 0.255090 -0.838575
C52   C     C_3   0.912028 0.244084 0.267392 -0.871586
C53   C     C_3   0.176190 0.093288 0.060724 -0.830219
C54   C     C_3   0.211827 0.881734 0.108317 -0.855448
C55   C     C_3   0.675836 0.592697 0.060156 -0.830143
C56   C     C_3   0.284323 0.779504 0.754499 -0.027829
C57   C     C_3   0.711634 0.381543 0.108200 -0.854733
C58   C     C_3   0.724846 0.812098 0.116444 -0.801595
C59   C     C_3   0.793855 0.040886 0.259427 -0.769795
C60   C     C_3   0.225732 0.314494 0.116926 -0.800911
C61   C     C_3   0.292298 0.543652 0.251029 -0.785261
C62   C     C_3   0.387861 0.247833 0.841541 -0.854857
C63   C     C_3   0.353361 0.758973 0.864752 -0.863495
C64   C     C_3   0.888966 0.749207 0.840820 -0.858058
C65   C     C_3   0.854606 0.259484 0.864310 -0.876538
C66   C     C_3   0.806298 0.731862 0.751925 -0.000805
C67   C     C_3   0.784707 0.279246 0.754881 -0.021949
C68   C     C_R   0.424723 0.030041 0.071718 0.096421
H1    H     H_    0.746363 0.857366 0.818769 0.199914
H2    H     H_    0.259388 0.847522 0.748584 0.155802
H3    H     H_    0.777659 0.665216 0.758555 0.159713
H4    H     H_    0.759060 0.347031 0.749112 0.154530
H5    H     H_    0.639869 0.969361 0.121717 0.177760
H6    H     H_    0.140259 0.470791 0.121524 0.173266
H7    H     H_    0.640446 0.968251 0.870160 0.140424
H8    H     H_    0.140708 0.469240 0.870091 0.140436
H9    H     H_    0.286822 0.044344 0.862563 0.184178
H10   H     H_    0.328805 0.932508 0.884024 0.201443
H11   H     H_    0.786829 0.544060 0.862162 0.183563
H12   H     H_    0.709927 0.159502 0.827807 0.211757
H13   H     H_    0.828808 0.432259 0.883843 0.202077
H14   H     H_    0.467978 0.240459 0.293440 0.238761
H15   H     H_    0.382606 0.200529 0.182979 0.246969
H16   H     H_    0.401925 0.316899 0.203898 0.227342
H17   H     H_    0.475544 0.779079 0.294948 0.244093
H18   H     H_    0.435521 0.678328 0.234885 0.226971
H19   H     H_    0.381124 0.777102 0.180041 0.263608
H20   H     H_    0.967772 0.740769 0.293399 0.235974
H21   H     H_    0.882731 0.700252 0.182959 0.247009
H22   H     H_    0.901372 0.816774 0.203587 0.227761
H23   H     H_    0.245585 0.356625 0.819201 0.200250
H24   H     H_    0.975949 0.276971 0.298527 0.257186
H25   H     H_    0.933645 0.178803 0.232866 0.222847
H26   H     H_    0.882883 0.280134 0.181592 0.262602
H27   H     H_    0.265190 0.087513 0.223717 0.236956
H28   H     H_    0.183625 0.142145 0.977747 0.244326
H29   H     H_    0.146916 0.033166 0.018242 0.255241
H30   H     H_    0.126471 0.118578 0.137242 0.233684
H31   H     H_    0.295278 0.933282 0.245297 0.264906
H32   H     H_    0.152046 0.914308 0.157556 0.245294
H33   H     H_    0.212414 0.813471 0.146656 0.244780
H34   H     H_    0.207968 0.660394 0.826332 0.212957
H35   H     H_    0.202350 0.880300 0.997889 0.252850
H36   H     H_    0.764750 0.587194 0.223300 0.236845
H37   H     H_    0.683317 0.640714 0.976032 0.243160
H38   H     H_    0.646241 0.532331 0.019055 0.255782
H39   H     H_    0.626334 0.618929 0.136160 0.234352
H40   H     H_    0.795234 0.433018 0.245108 0.265218
H41   H     H_    0.651892 0.414030 0.157669 0.246567
H42   H     H_    0.712203 0.313327 0.146519 0.241329
H43   H     H_    0.702107 0.380115 0.997780 0.253168
H44   H     H_    0.635843 0.754244 0.260292 0.216937
H45   H     H_    0.660960 0.773659 0.764937 0.184923
H46   H     H_    0.760103 0.753061 0.082843 0.273324
H47   H     H_    0.771526 0.869257 0.109440 0.233122
H48   H     H_    0.667269 0.822528 0.046950 0.232782
H49   H     H_    0.767770 0.160969 0.170222 0.225841
H50   H     H_    0.790614 0.013096 0.157215 0.209890
H51   H     H_    0.755853 0.997682 0.332343 0.261676
H52   H     H_    0.867381 0.043707 0.287171 0.227034
H53   H     H_    0.137254 0.253896 0.258910 0.218379
H54   H     H_    0.261569 0.256099 0.081828 0.272065
H55   H     H_    0.271779 0.372255 0.111952 0.234052
H56   H     H_    0.638318 0.242335 0.738522 0.176744
H57   H     H_    0.168234 0.325049 0.047374 0.234254
H58   H     H_    0.193502 0.639277 0.210244 0.244269
H59   H     H_    0.362692 0.541407 0.292073 0.239430
H60   H     H_    0.296608 0.521912 0.144933 0.218288
H61   H     H_    0.246860 0.498759 0.311214 0.260400
H62   H     H_    0.374591 0.218608 0.942518 0.234701
H63   H     H_    0.450130 0.215876 0.798494 0.254271
H64   H     H_    0.402695 0.318583 0.851087 0.238107
H65   H     H_    0.414034 0.803131 0.854262 0.255514
H66   H     H_    0.320170 0.767558 0.965011 0.256619
H67   H     H_    0.160229 0.273259 0.764142 0.185119
H68   H     H_    0.377828 0.690590 0.858636 0.244649
H69   H     H_    0.875506 0.721928 0.942998 0.234899
H70   H     H_    0.950772 0.715908 0.798923 0.254126
H71   H     H_    0.904607 0.819983 0.847371 0.238147
H72   H     H_    0.915237 0.303553 0.852066 0.259374
H73   H     H_    0.822253 0.268890 0.964938 0.248820
H74   H     H_    0.879003 0.191054 0.858959 0.243246
H75   H     H_    0.137672 0.744004 0.736464 0.175917
H76   H     H_    0.276597 0.164599 0.757298 0.159644
N1    N     N_R   0.499140 0.000000 0.142800 -0.105951
N2    N     N_2   0.753546 0.126817 0.258613 -0.281113
N3    N     N_2   0.188689 0.300382 0.251745 -0.268072
N4    N     N_2   0.256324 0.631184 0.254283 -0.298508
N5    N     N_R   0.999140 0.500000 0.142800 -0.106204
N6    N     N_R   0.499160 0.000000 0.857150 -0.097573
N7    N     N_R   0.999160 0.500000 0.857150 -0.098140
N8    N     N_2   0.265133 0.078737 0.120844 -0.312569
N9    N     N_2   0.297143 0.924728 0.143294 -0.285112
N10   N     N_2   0.764810 0.578420 0.120419 -0.313138
N11   N     N_2   0.796977 0.424507 0.143092 -0.286301
N12   N     N_2   0.688066 0.799875 0.251831 -0.267637
O1    O     O_R   0.408400 0.908380 0.614690 -0.613576
O2    O     O_R   0.591610 0.908390 0.614650 -0.614767
O3    O     O_R   0.091610 0.591610 0.614650 -0.611971
O4    O     O_R   0.091610 0.408390 0.614650 -0.614065
O5    O     O_R   0.591590 0.091600 0.385310 -0.592087
O6    O     O_R   0.591590 0.908400 0.385310 -0.606203
O7    O     O_R   0.091590 0.591600 0.385310 -0.628891
O8    O     O_R   0.091590 0.408400 0.385310 -0.606456
O9    O     O_R   0.408400 0.091620 0.614690 -0.614779
O10   O     O_R   0.908400 0.408380 0.614690 -0.614437
O11   O     O_R   0.908400 0.591620 0.614690 -0.614851
O12   O     O_R   0.408370 0.908370 0.385350 -0.625739
O13   O     O_R   0.408370 0.091630 0.385350 -0.622370
O14   O     O_R   0.908370 0.408370 0.385350 -0.620961
O15   O     O_R   0.908370 0.591630 0.385350 -0.620870
O16   O     O_R   0.591610 0.091610 0.614650 -0.619580
Zn1   Zn    Zn3+2 0.500010 0.000000 0.653130 0.926721
Zn2   Zn    Zn3+2 0.000010 0.500000 0.653130 0.927681
Zn3   Zn    Zn3+2 0.499980 0.000000 0.346870 0.938100
Zn4   Zn    Zn3+2 0.999980 0.500000 0.346870 0.924530

loop_
_geom_bond_atom_site_label_1
_geom_bond_atom_site_label_2
_ccdc_geom_bond_type
C19   C56   S    
O12   Zn3   S    
C46   H12   S    
C21   C26   A    
C59   H52   S    
C55   N10   S    
C62   H62   S    
C54   H33   S    
C44   C66   S    
C6    H8    S    
C54   H32   S    
C54   N9    S    
C31   N12   S    
O14   Zn4   S    
C27   C33   A    
C4    N5    A    
C57   N11   S    
C55   H37   S    
C63   H65   S    
C49   H16   S    
C20   C66   S    
C60   H57   S    
C61   N4    S    
C38   C42   A    
C18   C42   A    
C51   H22   S    
O16   Zn1   S    
C20   C40   A    
C50   H18   S    
C32   N2    S    
C20   C25   A    
O9    Zn1   S    
C23   O10   A    
C12   C22   S    
C45   C62   S    
C48   C56   S    
C67   H4    S    
C23   C26   S    
C2    C13   S    
C17   O4    A    
C13   N11   S    
H40   N11   S    
C33   N3    S    
C50   H17   S    
C7    C68   A    
C65   H72   S    
C28   C50   S    
C57   H41   S    
N1    Zn3   S    
C28   C35   A    
C65   C67   S    
O3    Zn2   S    
C45   H76   S    
C41   C46   S    
H53   N3    S    
C52   H26   S    
C60   N3    S    
C43   C48   S    
C15   O6    A    
C4    H6    S    
C61   H61   S    
C25   C34   S    
C42   C47   S    
C2    N5    A    
N7    Zn2   S    
C21   C67   S    
C16   O3    A    
C58   H48   S    
C46   H56   S    
O4    Zn2   S    
O7    Zn4   S    
C19   C43   A    
C64   H69   S    
C45   C47   S    
C16   O7    A    
C25   C29   A    
O10   Zn2   S    
C55   H38   S    
C63   H66   S    
C62   H64   S    
C54   H35   S    
C36   C40   A    
C8    N7    A    
C35   N4    S    
C15   O2    A    
C4    C6    A    
C12   O9    A    
H58   N4    S    
C64   H70   S    
O6    Zn3   S    
C1    O12   A    
C53   H29   S    
C5    N6    A    
C48   H75   S    
C55   H39   S    
H49   N2    S    
C64   C66   S    
C49   H14   S    
C5    H7    S    
C60   H55   S    
C35   C39   A    
C17   O8    A    
C53   N8    S    
C7    N6    A    
C65   H73   S    
O2    Zn1   S    
C66   H3    S    
C48   H34   S    
O13   Zn3   S    
C56   C63   S    
C44   H1    S    
C61   H59   S    
C9    H9    S    
C32   C37   A    
C60   H54   S    
C9    C11   S    
C58   N12   S    
C50   H19   S    
O11   Zn2   S    
C21   C41   A    
C6    N7    A    
C14   O16   A    
C44   H45   S    
C3    N1    A    
C59   H50   S    
C56   H2    S    
C22   C27   A    
C58   H47   S    
C52   H24   S    
C34   O11   A    
C18   C45   S    
C15   C36   S    
C11   C68   S    
C29   C51   S    
C7    C9    S    
C30   C52   S    
C59   H51   S    
C47   H67   S    
C18   C22   A    
C47   H23   S    
C62   H63   S    
C2    C8    A    
C24   C28   A    
C3    C5    A    
C10   C13   S    
C51   H20   S    
C39   C43   A    
C10   H11   S    
C57   H42   S    
C26   C30   A    
C12   O13   A    
C53   H30   S    
O15   Zn4   S    
C10   H13   S    
C33   C38   A    
C52   H25   S    
N5    Zn4   S    
C63   H68   S    
C49   H15   S    
C14   O5    A    
C1    O1    A    
C19   C24   A    
C46   C67   S    
C29   C31   A    
C51   H21   S    
C14   C37   S    
C30   C32   A    
C65   H74   S    
C57   H43   S    
C23   O14   A    
O5    Zn3   S    
H31   N9    S    
O8    Zn4   S    
C61   H60   S    
C9    H10   S    
C68   N1    A    
C37   C41   A    
C3    H5    S    
C13   N10   S    
C11   N9    S    
C16   C39   S    
C59   N2    S    
C11   N8    S    
C40   C44   S    
N6    Zn1   S    
C17   C38   S    
C1    C24   S    
C8    C10   S    
H44   N12   S    
C58   H46   S    
C31   C36   A    
H27   N8    S    
H36   N10   S    
C34   O15   A    
C27   C49   S    
O1    Zn1   S    
C53   H28   S    
C64   H71   S    
