data_mof_unit_pretest_956.cif
_audit_creation_date              2013-03-05T15:48:28-0500
_audit_creation_method            fapswitch 2.2
_symmetry_space_group_name_H-M    P1
_symmetry_Int_Tables_number       1
_space_group_crystal_system       triclinic
_cell_length_a                    18.674708
_cell_length_b                    19.207128
_cell_length_c                    18.24118
_cell_angle_alpha                 108.841906
_cell_angle_beta                  107.649782
_cell_angle_gamma                 110.367377
_cell_volume                      5128.87981574

loop_
_atom_site_label
_atom_site_type_symbol
_atom_site_description
_atom_site_fract_x
_atom_site_fract_y
_atom_site_fract_z
_atom_type_partial_charge
O1    O     O_R   0.408690 0.356690 0.448570 -0.632927
O2    O     O_R   0.408090 0.460090 0.551440 -0.580427
C1    C     C_R   0.375836 0.381327 0.497642 0.854136
O3    O     O_R   0.592400 0.448300 0.540670 -0.630197
O4    O     O_R   0.591800 0.551700 0.643540 -0.623826
C2    C     C_R   0.623623 0.504278 0.621252 0.920399
Zn1   Zn    Zn3+2 0.500400 0.430960 0.431310 0.934521
Zn2   Zn    Zn3+2 0.499600 0.569040 0.568690 1.059471
O5    O     O_R   0.591910 0.539910 0.448560 -0.641491
O6    O     O_R   0.591310 0.643310 0.551430 -0.591595
O7    O     O_R   0.408200 0.448300 0.356460 -0.629960
O8    O     O_R   0.407600 0.551700 0.459330 -0.632770
C3    C     C_R   0.612250 0.618082 0.490063 0.843052
C4    C     C_R   0.377421 0.497615 0.379339 0.810502
C5    C     C_3   0.668625 0.414564 0.671391 -0.090963
H1    H     H_    0.675295 0.387771 0.612211 0.159973
C6    C     C_3   0.739411 0.413903 0.741389 0.040737
H2    H     H_    0.773900 0.390581 0.707942 0.079445
H3    H     H_    0.870645 0.509001 0.729180 0.112079
C7    C     C_3   0.781666 0.554646 0.694931 -0.177449
C8    C     C_3   0.704247 0.563348 0.787237 -0.209209
C9    C     C_3   0.692488 0.508559 0.692084 -0.076707
H4    H     H_    0.639169 0.532435 0.780484 0.230859
C10   C     C_3   0.810634 0.507974 0.815694 -0.334182
C11   C     C_3   0.850912 0.551386 0.764787 0.075165
C12   C     C_3   0.769661 0.557561 0.862641 0.456358
H5    H     H_    0.797965 0.621524 0.718827 0.186300
C13   C     C_R   0.344517 0.388610 0.654231 0.301747
C14   C     C_R   0.367016 0.377733 0.729704 0.083223
C15   C     C_R   0.352883 0.297920 0.719013 -0.167952
C16   C     C_R   0.305889 0.227307 0.635675 0.174818
C17   C     C_R   0.265325 0.236578 0.562404 0.074418
C18   C     C_R   0.302079 0.316524 0.569426 -0.092697
C19   C     C_R   0.187862 0.172156 0.484264 -0.080686
C20   C     C_R   0.169426 0.179303 0.405977 -0.076669
C21   C     C_R   0.232723 0.247838 0.408114 -0.005100
C22   C     C_R   0.300290 0.317646 0.491649 -0.144707
C23   C     C_R   0.091750 0.120717 0.325009 0.205698
C24   C     C_R   0.069023 0.146058 0.260913 0.163265
C25   C     C_R   0.133772 0.214797 0.264927 0.137120
C26   C     C_R   0.219634 0.247355 0.326524 -0.005883
H6    H     H_    0.382657 0.291410 0.775586 0.187947
C27   C     C_R   0.232545 0.507539 0.403994 0.098631
C28   C     C_R   0.201181 0.559623 0.437015 -0.235964
C29   C     C_R   0.145177 0.572029 0.379316 0.306496
C30   C     C_R   0.115560 0.522668 0.288999 0.105092
C31   C     C_R   0.175374 0.503149 0.263934 0.027038
C32   C     C_R   0.238420 0.498939 0.325938 0.028172
C33   C     C_R   0.180563 0.496793 0.185666 -0.105704
C34   C     C_R   0.253617 0.497533 0.175632 0.010054
C35   C     C_R   0.320570 0.503622 0.242829 0.038925
C36   C     C_R   0.308629 0.495116 0.312738 -0.074343
C37   C     C_R   0.266072 0.499048 0.103095 0.164723
C38   C     C_R   0.350671 0.546110 0.116856 0.198585
C39   C     C_R   0.419439 0.555443 0.186077 0.130569
C40   C     C_R   0.400873 0.524652 0.241572 -0.238760
H7    H     H_    0.210010 0.579571 0.503353 0.208285
H8    H     H_    0.453452 0.526150 0.288870 0.163604
H9    H     H_    0.759472 0.509459 0.347660 0.232617
C41   C     C_R   0.601459 0.772446 0.508405 0.035506
C42   C     C_R   0.618318 0.847223 0.574026 0.224164
C43   C     C_R   0.701617 0.916179 0.621294 0.192391
C44   C     C_R   0.764723 0.914704 0.593499 0.011282
C45   C     C_R   0.751999 0.834423 0.535396 0.001267
C46   C     C_R   0.671998 0.761922 0.503731 -0.007618
C47   C     C_R   0.816159 0.820418 0.514763 -0.057667
C48   C     C_R   0.807473 0.738049 0.484448 -0.064712
C49   C     C_R   0.724971 0.668695 0.446052 0.044928
C50   C     C_R   0.664382 0.680864 0.470702 -0.174189
C51   C     C_R   0.877638 0.721052 0.492893 0.168532
C52   C     C_R   0.859951 0.637542 0.443309 0.233913
C53   C     C_R   0.774428 0.573317 0.387210 -0.249557
C54   C     C_R   0.707503 0.588255 0.389145 -0.197747
H10   H     H_    0.642124 0.536085 0.346435 0.202574
O9    O     O_R   0.946100 0.356720 0.906240 -0.554250
O10   O     O_R   0.049540 0.460090 0.906170 -0.684196
C55   C     C_R   0.996463 0.380812 0.874152 0.836758
O11   O     O_R   0.853530 0.448360 0.905250 -0.524993
O12   O     O_R   0.956970 0.551730 0.905180 -0.563914
C56   C     C_R   0.877183 0.502038 0.878242 0.946868
Zn3   Zn    Zn3+2 0.928290 0.431030 0.997370 1.150153
Zn4   Zn    Zn3+2 0.066410 0.569060 0.997270 1.058879
O13   O     O_R   0.945170 0.540000 0.088470 -0.646060
O14   O     O_R   0.048600 0.643370 0.088400 -0.571778
O15   O     O_R   0.037740 0.448360 0.089460 -0.655591
O16   O     O_R   0.141170 0.551730 0.089390 -0.591432
C57   C     C_R   0.001213 0.618289 0.123228 0.952292
C58   C     C_R   0.117098 0.501747 0.120920 0.904778
O17   O     O_R   0.948510 0.908450 0.356890 -0.517947
O18   O     O_R   0.052500 0.908420 0.460860 -0.642781
C59   C     C_R   0.000863 0.880353 0.380129 0.900728
O19   O     O_R   0.039610 0.091640 0.448030 -0.559829
O20   O     O_R   0.143600 0.091610 0.551990 -0.649336
C60   C     C_R   0.120066 0.112966 0.492557 0.974674
Zn5   Zn    Zn3+2 0.930570 0.000030 0.430590 1.139417
Zn6   Zn    Zn3+2 0.069430 0.999990 0.569430 1.111290
O21   O     O_R   0.947500 0.091600 0.539170 -0.648566
O22   O     O_R   0.051490 0.091570 0.643140 -0.573747
O23   O     O_R   0.856400 0.908420 0.448030 -0.580063
O24   O     O_R   0.960390 0.908390 0.552000 -0.564028
C61   C     C_R   0.008178 0.126451 0.619800 0.896667
C62   C     C_R   0.880221 0.882166 0.504250 0.830019
H11   H     H_    0.967479 0.136664 0.927710 0.264950
C63   C     C_R   0.031947 0.406839 0.732784 0.107372
C64   C     C_R   0.992401 0.395985 0.647263 0.109628
C65   C     C_R   0.972749 0.321895 0.575800 0.085241
C66   C     C_R   0.006610 0.271352 0.595813 0.261541
C67   C     C_R   0.013872 0.266774 0.673614 -0.086753
C68   C     C_R   0.016322 0.331886 0.739760 -0.025403
C69   C     C_R   0.024042 0.202907 0.690211 -0.033879
C70   C     C_R   0.033833 0.205049 0.771180 -0.137969
C71   C     C_R   0.995194 0.243318 0.811620 -0.090265
C72   C     C_R   0.999641 0.317103 0.806304 -0.094050
C73   C     C_R   0.076092 0.168021 0.811342 0.198644
C74   C     C_R   0.052894 0.145405 0.870667 0.175756
C75   C     C_R   0.992302 0.162466 0.890383 -0.258455
C76   C     C_R   0.960682 0.208928 0.859320 0.239863
C77   C     C_R   0.161807 0.781928 0.244500 0.290044
C78   C     C_R   0.219944 0.867469 0.275245 0.097526
C79   C     C_R   0.223409 0.927018 0.346539 -0.169091
C80   C     C_R   0.164729 0.900823 0.377986 0.162455
C81   C     C_R   0.082938 0.826466 0.315934 0.072179
C82   C     C_R   0.083951 0.762411 0.252195 -0.051225
C83   C     C_R   0.002198 0.813510 0.314941 -0.080231
C84   C     C_R   0.927605 0.731331 0.262364 -0.042454
C85   C     C_R   0.939436 0.663634 0.221337 0.041410
C86   C     C_R   0.009838 0.680725 0.202214 -0.083508
C87   C     C_R   0.843714 0.711586 0.255411 0.235714
C88   C     C_R   0.785462 0.629084 0.232163 -0.289581
C89   C     C_R   0.804385 0.563884 0.207128 0.331897
C90   C     C_R   0.880671 0.581453 0.200931 -0.098947
H12   H     H_    0.281573 0.987835 0.386929 0.154908
H13   H     H_    0.723724 0.615318 0.230757 0.208400
H14   H     H_    0.894914 0.530741 0.184225 0.186701
N1    N     N_R   0.836337 0.642571 0.938982 0.208022
O25   O     O_R   0.811707 0.685320 0.987028 -0.312988
O26   O     O_R   0.917910 0.665367 0.974518 -0.328166
N2    N     N_R   0.930031 0.635277 0.820545 0.271070
O27   O     O_R   0.002826 0.642393 0.823237 -0.368162
O28   O     O_R   0.926210 0.704399 0.851698 -0.324936
N3    N     N_R   0.116101 0.242529 0.199887 0.229455
O29   O     O_R   0.179095 0.300977 0.201108 -0.414193
O30   O     O_R   0.037278 0.218718 0.146984 -0.329321
N4    N     N_R   0.349457 0.467234 0.662965 0.210547
O31   O     O_R   0.423585 0.537006 0.707856 -0.423683
O32   O     O_R   0.278648 0.471027 0.637092 -0.418163
C91   C     C_3   0.415228 0.450842 0.822070 -0.348218
C92   C     C_3   0.373546 0.432544 0.878503 -0.834696
H15   H     H_    0.304060 0.413111 0.846336 0.282393
H16   H     H_    0.380775 0.382637 0.892562 0.285337
H17   H     H_    0.406940 0.491081 0.941515 0.230802
H18   H     H_    0.482683 0.463339 0.852788 0.249864
H19   H     H_    0.418345 0.509896 0.823812 0.258863
C93   C     C_3   0.327590 0.156616 0.625897 -0.361039
C94   C     C_3   0.344145 0.128148 0.547219 -0.926782
H20   H     H_    0.282257 0.092393 0.486021 0.266024
H21   H     H_    0.388918 0.182779 0.545506 0.262788
H22   H     H_    0.374261 0.088026 0.551073 0.269136
H23   H     H_    0.388171 0.179155 0.684584 0.231253
H24   H     H_    0.277885 0.102780 0.623775 0.232957
N5    N     N_R   0.046321 0.032852 0.300907 0.214789
O33   O     O_R   0.962582 0.988179 0.254459 -0.257107
O34   O     O_R   0.090239 0.994453 0.313575 -0.465051
N6    N     N_R   0.985371 0.094452 0.185786 0.282392
O35   O     O_R   0.917710 0.092112 0.193618 -0.300954
O36   O     O_R   0.976417 0.048114 0.109959 -0.252333
C95   C     C_3   0.572600 0.347203 0.635979 -0.349301
C96   C     C_3   0.523156 0.374256 0.680500 -0.808863
H25   H     H_    0.459408 0.318689 0.650718 0.232982
H26   H     H_    0.554013 0.395114 0.751115 0.323325
H27   H     H_    0.512187 0.423390 0.668443 0.243379
H28   H     H_    0.534967 0.326477 0.565360 0.205986
H29   H     H_    0.568450 0.288119 0.635947 0.248451
C97   C     C_3   0.275338 0.230495 0.284251 -0.237046
C98   C     C_3   0.307202 0.172647 0.306030 -0.857285
H30   H     H_    0.349118 0.200936 0.377318 0.271238
H31   H     H_    0.250963 0.111072 0.283871 0.274516
H32   H     H_    0.344856 0.160882 0.271383 0.253130
H33   H     H_    0.237192 0.196891 0.211468 0.244499
H34   H     H_    0.328861 0.289661 0.298677 0.252208
C99   C     C_3   0.511636 0.593549 0.200655 -0.447144
C100  C     C_3   0.523296 0.528841 0.137752 -0.723056
H35   H     H_    0.527725 0.483018 0.161049 0.282036
H36   H     H_    0.468136 0.493119 0.070936 0.243804
H37   H     H_    0.583003 0.561342 0.134019 0.274987
H38   H     H_    0.530656 0.651930 0.194237 0.234080
H39   H     H_    0.557618 0.614268 0.268839 0.216330
C101  C     C_3   0.242024 0.451576 0.442955 -0.345461
C102  C     C_3   0.156414 0.394068 0.435826 -0.741449
H40   H     H_    0.132808 0.431523 0.471680 0.258777
H41   H     H_    0.106696 0.352513 0.366055 0.248280
H42   H     H_    0.165689 0.353592 0.465028 0.302343
H43   H     H_    0.261447 0.409825 0.407005 0.189608
H44   H     H_    0.291261 0.492249 0.512630 0.282925
N7    N     N_R   0.107483 0.621355 0.410224 0.226367
O37   O     O_R   0.128754 0.658212 0.493110 -0.329434
O38   O     O_R   0.061200 0.639260 0.358066 -0.407435
C103  C     C_3   0.017704 0.466109 0.235935 -0.412640
C104  C     C_3   0.989221 0.371666 0.196101 -0.641520
H45   H     H_    0.019237 0.353995 0.154572 0.297540
H46   H     H_    0.007399 0.354967 0.249120 0.243952
H47   H     H_    0.917885 0.334001 0.155137 0.267498
H48   H     H_    0.986234 0.476093 0.278289 0.250288
H49   H     H_    0.989827 0.483372 0.187252 0.242673
C105  C     C_3   0.196131 0.435264 0.010508 -0.432394
C106  C     C_3   0.220051 0.371014 0.966119 -0.802364
H50   H     H_    0.183175 0.343724 0.894418 0.272929
H51   H     H_    0.289457 0.399729 0.983218 0.262823
H52   H     H_    0.204382 0.320285 0.984993 0.285555
H53   H     H_    0.133835 0.398498 0.007902 0.206015
H54   H     H_    0.187087 0.469401 0.973541 0.224754
C107  C     C_3   0.364140 0.583576 0.057100 -0.495314
C108  C     C_3   0.346250 0.657439 0.075662 -0.768359
H55   H     H_    0.389197 0.706935 0.145403 0.273329
H56   H     H_    0.358646 0.685547 0.033303 0.251956
H57   H     H_    0.277757 0.635469 0.061346 0.277801
H58   H     H_    0.430397 0.606701 0.064690 0.232938
H59   H     H_    0.320751 0.535555 0.987223 0.218858
N8    N     N_R   0.705634 0.350742 0.769329 0.252670
O39   O     O_R   0.721275 0.287948 0.751348 -0.318299
O40   O     O_R   0.654991 0.351114 0.804778 -0.308924
C109  C     C_3   0.508743 0.708806 0.439231 -0.343285
C110  C     C_3   0.476287 0.739534 0.375420 -0.800585
H60   H     H_    0.479511 0.800604 0.410275 0.293211
H61   H     H_    0.515843 0.747666 0.340827 0.251571
H62   H     H_    0.407943 0.692285 0.326013 0.269308
H63   H     H_    0.503382 0.648497 0.400832 0.170228
H64   H     H_    0.465883 0.696377 0.469661 0.266424
N9    N     N_R   0.551543 0.851722 0.595199 0.237229
O41   O     O_R   0.520220 0.806654 0.629244 -0.348778
O42   O     O_R   0.516879 0.894907 0.573627 -0.332859
N10   N     N_R   0.722517 0.988342 0.697747 0.233952
O43   O     O_R   0.678946 0.028219 0.692578 -0.251823
O44   O     O_R   0.777734 0.007111 0.774457 -0.326346
C111  C     C_3   0.838714 0.000872 0.625922 -0.363321
C112  C     C_3   0.804820 0.045820 0.580318 -0.744285
H65   H     H_    0.789389 0.015664 0.510308 0.265022
H66   H     H_    0.745395 0.042997 0.582964 0.278033
H67   H     H_    0.852766 0.113763 0.613098 0.242930
H68   H     H_    0.866779 0.039480 0.697763 0.237253
H69   H     H_    0.893618 0.999228 0.617755 0.189117
N11   N     N_R   0.962891 0.781907 0.563851 0.254456
O45   O     O_R   0.029844 0.799560 0.550091 -0.330633
O46   O     O_R   0.973962 0.818595 0.643240 -0.299700
N12   N     N_R   0.927031 0.615411 0.454437 0.243697
O47   O     O_R   0.917917 0.553044 0.389233 -0.376510
O48   O     O_R   0.986817 0.644006 0.532816 -0.312336
C113  C     C_3   0.121869 0.484176 0.794003 -0.395794
C114  C     C_3   0.186952 0.477388 0.761534 -0.754287
H70   H     H_    0.191787 0.420682 0.758375 0.278957
H71   H     H_    0.167212 0.471629 0.695306 0.302130
H72   H     H_    0.251693 0.534383 0.807292 0.255696
H73   H     H_    0.120134 0.543199 0.801820 0.230692
H74   H     H_    0.149411 0.491088 0.859920 0.225320
C115  C     C_3   0.983434 0.467332 0.634553 -0.448082
C116  C     C_3   0.053456 0.517257 0.616235 -0.699573
H75   H     H_    0.064793 0.474792 0.568938 0.240191
H76   H     H_    0.033042 0.554380 0.588112 0.309308
H77   H     H_    0.115007 0.562597 0.677742 0.264695
H78   H     H_    0.919774 0.441602 0.579292 0.223113
H79   H     H_    0.985735 0.511559 0.693274 0.239457
C117  C     C_3   0.914601 0.295000 0.481535 -0.359869
C118  C     C_3   0.820133 0.258457 0.462464 -0.864644
H80   H     H_    0.798937 0.199797 0.468533 0.267038
H81   H     H_    0.810557 0.303958 0.508462 0.251565
H82   H     H_    0.778890 0.242543 0.394593 0.275510
H83   H     H_    0.933690 0.348537 0.467143 0.228383
H84   H     H_    0.917509 0.244138 0.434189 0.266315
N13   N     N_R   0.061194 0.254213 0.560111 0.203590
O49   O     O_R   0.049962 0.248069 0.483923 -0.439995
O50   O     O_R   0.135243 0.267863 0.613338 -0.430163
N14   N     N_R   0.153638 0.172028 0.807360 0.237436
O51   O     O_R   0.181587 0.122410 0.822832 -0.305103
O52   O     O_R   0.198455 0.227574 0.790006 -0.397858
N15   N     N_R   0.086204 0.101210 0.907838 0.261991
O53   O     O_R   0.115344 0.126943 0.991546 -0.313289
O54   O     O_R   0.068258 0.025511 0.856581 -0.263138
N16   N     N_R   0.880856 0.201741 0.857389 0.272128
O55   O     O_R   0.823187 0.195977 0.790468 -0.282169
O56   O     O_R   0.862213 0.193668 0.918440 -0.298819
N17   N     N_R   0.743935 0.478914 0.182489 0.229750
O57   O     O_R   0.666598 0.459367 0.173516 -0.410745
O58   O     O_R   0.765117 0.419884 0.167384 -0.353168
N18   N     N_R   0.193214 0.722444 0.235083 0.203882
O59   O     O_R   0.178481 0.675142 0.271957 -0.445489
O60   O     O_R   0.248424 0.725293 0.204989 -0.433847
C119  C     C_3   0.288732 0.893972 0.246795 -0.338633
C120  C     C_3   0.302821 0.972666 0.236071 -0.841359
H85   H     H_    0.240141 0.964605 0.194062 0.296478
H86   H     H_    0.335292 0.029704 0.300820 0.249658
H87   H     H_    0.345138 0.982850 0.204574 0.265560
H88   H     H_    0.350664 0.906079 0.295356 0.226680
H89   H     H_    0.268748 0.843168 0.181699 0.253549
C121  C     C_3   0.208262 0.921659 0.473667 -0.503612
C122  C     C_3   0.183299 0.843420 0.486648 -0.538231
H90   H     H_    0.112607 0.806596 0.461190 0.301429
H91   H     H_    0.204525 0.802081 0.451983 0.270052
H92   H     H_    0.215746 0.863120 0.557567 0.260588
H93   H     H_    0.279489 0.951754 0.499945 0.217486
H94   H     H_    0.198119 0.968976 0.515828 0.249703
C123  C     C_3   0.788731 0.537333 0.608174 -0.351364
C124  C     C_3   0.766166 0.447881 0.547551 -0.866842
H95   H     H_    0.795423 0.450818 0.503160 0.264165
H96   H     H_    0.791029 0.418816 0.584810 0.226288
H97   H     H_    0.695488 0.406791 0.504781 0.277385
H98   H     H_    0.748872 0.556601 0.569234 0.222051
H99   H     H_    0.856733 0.580495 0.626803 0.252335
N19   N     N_R   0.808956 0.766752 0.251033 0.229878
O61   O     O_R   0.751991 0.766108 0.278280 -0.410353
O62   O     O_R   0.815904 0.799162 0.199239 -0.262938
C125  C     C_3   0.724619 0.657567 0.810450 -0.341127
C126  C     C_3   0.667363 0.681719 0.846013 -0.637910
H100  H     H_    0.669196 0.668507 0.901183 0.298346
H101  H     H_    0.689758 0.750170 0.869208 0.262881
H102  H     H_    0.599364 0.645212 0.793472 0.268741
H103  H     H_    0.793005 0.705545 0.856673 0.280379
H104  H     H_    0.716436 0.669743 0.754012 0.216466
N20   N     N_R   0.722940 0.512571 0.900401 0.241425
O63   O     O_R   0.653199 0.513569 0.899041 -0.418153
O64   O     O_R   0.766435 0.502698 0.963219 -0.301868

loop_
_geom_bond_atom_site_label_1
_geom_bond_atom_site_label_2
_geom_bond_distance
_ccdc_geom_bond_type
C8    C12   1.603400 S    
C85   C86   1.417608 A    
C110  H60   1.108911 S    
C92   H17   1.103044 S    
C26   C97   1.530091 S    
C73   C74   1.415752 A    
C99   H39   1.112409 S    
C110  H62   1.110291 S    
C98   H31   1.111007 S    
C123  C124  1.529269 S    
C28   C29   1.387939 A    
N18   O59   1.298652 A    
O4    C2    1.277570 A    
O16   C58   1.291346 A    
C30   C103  1.524098 S    
C65   C66   1.411301 A    
C105  H54   1.098535 S    
C116  H77   1.108388 S    
C67   C68   1.404998 A    
C118  H81   1.107212 S    
C19   C20   1.427627 A    
O5    C3    1.290825 A    
C69   C70   1.417159 A    
C4    C36   1.449689 S    
C20   C21   1.409732 A    
N14   O51   1.300368 A    
N11   O46   1.301672 A    
C13   N4    1.432887 S    
C6    N8    1.480198 S    
C104  H45   1.107743 S    
C8    C9    1.611378 S    
C94   H22   1.108074 S    
C55   C72   1.466110 S    
C63   C64   1.416556 A    
N5    O34   1.298529 A    
C108  H56   1.110393 S    
C34   C37   1.418610 A    
C35   C36   1.408631 A    
C120  H87   1.110497 S    
N1    O25   1.302450 A    
C106  H50   1.104242 S    
N4    O31   1.302018 A    
C61   C69   1.463574 S    
C99   C100  1.525588 S    
C100  H37   1.107514 S    
C17   C19   1.421221 A    
C27   C28   1.392561 A    
N9    O41   1.300850 A    
C98   H30   1.108723 S    
C28   H7    1.083447 S    
O19   C60   1.304483 A    
O10   C55   1.290796 A    
C93   C94   1.527788 S    
N2    O28   1.301476 A    
C88   H13   1.079506 S    
C96   H25   1.095606 S    
C41   C46   1.423282 A    
C43   N10   1.436375 S    
N13   O50   1.301039 A    
C103  H49   1.095238 S    
C64   C115  1.516939 S    
C117  H83   1.108760 S    
N1    O26   1.298492 A    
N6    O35   1.301182 A    
C19   C60   1.464107 S    
C53   C54   1.383983 A    
O4    Zn2   2.051113 S    
Zn5   O21   2.024688 S    
C89   C90   1.394219 A    
C49   C54   1.406763 A    
C17   C18   1.389750 A    
C15   C16   1.396902 A    
C109  H63   1.093220 S    
H11   C75   1.083318 S    
Zn5   O23   2.011986 S    
C92   H15   1.107760 S    
C91   H19   1.104796 S    
N7    O37   1.301384 A    
C32   C36   1.424598 A    
C107  C108  1.525533 S    
C1    C22   1.455095 S    
Zn2   O6    1.995929 S    
C7    C11   1.551946 S    
C94   H20   1.106122 S    
C24   N6    1.430912 S    
C87   N19   1.432626 S    
C111  H68   1.107800 S    
C91   C92   1.522594 S    
C87   C88   1.400190 A    
C122  H91   1.110953 S    
C37   C38   1.412438 A    
C77   N18   1.442089 S    
C114  H70   1.108505 S    
C14   C15   1.397045 A    
C123  H98   1.111978 S    
C21   C22   1.431282 A    
C92   H16   1.109385 S    
C91   H18   1.110431 S    
C23   C24   1.412274 A    
O11   C56   1.282126 A    
C123  H99   1.113091 S    
C74   C75   1.394931 A    
C65   C117  1.518637 S    
C112  H65   1.110084 S    
C102  H41   1.109216 S    
C97   C98   1.532449 S    
C111  H69   1.089305 S    
N20   O64   1.300752 A    
C100  H35   1.110416 S    
C96   H27   1.105561 S    
C115  H79   1.108937 S    
C126  H101  1.110465 S    
C116  H76   1.106244 S    
C104  H47   1.110306 S    
C66   C67   1.418587 A    
O17   C59   1.300191 A    
C121  H94   1.100006 S    
C38   C107  1.521897 S    
C47   C48   1.427220 A    
C12   N20   1.485409 S    
C25   N3    1.446830 S    
C5    C95   1.565146 S    
O3    Zn1   2.033815 S    
Zn3   O13   2.053788 S    
N19   O62   1.301916 A    
C23   N5    1.434963 S    
C124  H96   1.106015 S    
C20   C23   1.429314 A    
O10   Zn4   2.053874 S    
C24   C25   1.408264 A    
C113  H73   1.109296 S    
C119  H89   1.109413 S    
O1    C1    1.289625 A    
C120  H86   1.109239 S    
C76   N16   1.436793 S    
C82   C86   1.416954 A    
C16   C17   1.423223 A    
Zn2   O8    2.033813 S    
C6    H2    1.118201 S    
O9    C55   1.283397 A    
C101  H43   1.100777 S    
C81   C83   1.433553 A    
C97   H34   1.102919 S    
C16   C93   1.519879 S    
C79   C80   1.402453 A    
C78   C119  1.516033 S    
C88   C89   1.392205 A    
O15   C58   1.274157 A    
C115  H78   1.102848 S    
C114  H72   1.110593 S    
C73   N14   1.448500 S    
O12   Zn4   2.047687 S    
C99   H38   1.109072 S    
C110  H61   1.110970 S    
O18   Zn6   2.024567 S    
C117  C118  1.527797 S    
N17   O58   1.301697 A    
C126  H102  1.109446 S    
C71   C76   1.422570 A    
C48   C51   1.433552 A    
N18   O60   1.300277 A    
C121  H93   1.110117 S    
C122  H90   1.106725 S    
C3    C50   1.480885 S    
C105  H53   1.107812 S    
Zn6   O24   2.023682 S    
C67   C69   1.414112 A    
C42   C43   1.390104 A    
C100  H36   1.106308 S    
C44   C45   1.447090 A    
N14   O52   1.302378 A    
C33   C34   1.426377 A    
C119  H88   1.111253 S    
N12   O47   1.301380 A    
Zn3   O15   2.047818 S    
N7    O38   1.300040 A    
O13   C57   1.282504 A    
C39   C40   1.396960 A    
C94   H21   1.107900 S    
C54   H10   1.081233 S    
N15   O53   1.301303 A    
C90   H14   1.072419 S    
N5    O33   1.300987 A    
C118  H80   1.111334 S    
C108  H55   1.111221 S    
C13   C14   1.418323 A    
C89   N17   1.440840 S    
N3    O30   1.300823 A    
C121  C122  1.529960 S    
C106  H51   1.107965 S    
C107  H58   1.105105 S    
C2    C9    1.476574 S    
C38   C39   1.409237 A    
C5    C9    1.580588 S    
C70   C71   1.395294 A    
C49   C50   1.400620 A    
C63   C113  1.525964 S    
C42   N9    1.434278 S    
C111  C112  1.537172 S    
C51   C52   1.418785 A    
H9    C53   1.081969 S    
C95   H29   1.110030 S    
C96   H26   1.098931 S    
C79   H12   1.078327 S    
N13   O49   1.299778 A    
C33   C58   1.452878 S    
C21   C26   1.429613 A    
C98   H32   1.110305 S    
C48   C49   1.397567 A    
N4    O32   1.299015 A    
C95   C96   1.515991 S    
Zn4   O16   2.036115 S    
C18   C22   1.416314 A    
C41   C42   1.393197 A    
O17   Zn5   2.041942 S    
C43   C44   1.422322 A    
C8    C125  1.589693 S    
C119  C120  1.528874 S    
C109  H64   1.108030 S    
C34   C35   1.398478 A    
C80   C81   1.429308 A    
O3    C2    1.296032 A    
C7    C9    1.565711 S    
N12   O48   1.300120 A    
C84   C85   1.404032 A    
N8    O39   1.302064 A    
C113  C114  1.530347 S    
C108  H57   1.110367 S    
C5    C6    1.541607 S    
C30   C31   1.444918 A    
O1    Zn1   1.995929 S    
O2    Zn2   2.039075 S    
C10   C12   1.613606 S    
C41   C109  1.513253 S    
C14   C91   1.514308 S    
C78   C79   1.392943 A    
C112  H67   1.104635 S    
C95   H28   1.112130 S    
C7    H5    1.103811 S    
O22   C61   1.279423 A    
C64   C65   1.416768 A    
C7    C123  1.565159 S    
C45   C46   1.419092 A    
N9    O42   1.300764 A    
O11   Zn3   2.036112 S    
O18   C59   1.285841 A    
C27   C101  1.497123 S    
C46   C50   1.412507 A    
C125  H104  1.105830 S    
N6    O36   1.301630 A    
N10   O43   1.300579 A    
C112  H66   1.108649 S    
C11   N2    1.478797 S    
C70   C73   1.428965 A    
C77   C82   1.432670 A    
C102  H40   1.109644 S    
N2    O27   1.301919 A    
C44   C111  1.509494 S    
C93   H23   1.112949 S    
O23   C62   1.310483 A    
C103  H48   1.112262 S    
C104  H46   1.109297 S    
C15   H6    1.083303 S    
C45   C47   1.442927 A    
C29   N7    1.439027 S    
C118  H82   1.110369 S    
C125  C126  1.533229 S    
O20   C60   1.288612 A    
C66   N13   1.438473 S    
C47   C62   1.474110 S    
O14   C57   1.288673 A    
C57   C86   1.465850 S    
C31   C33   1.429041 A    
C105  C106  1.528311 S    
C126  H100  1.108343 S    
Zn1   O7    2.051110 S    
C124  H97   1.107449 S    
N15   O54   1.301243 A    
C117  H84   1.106160 S    
C63   C68   1.422080 A    
O7    C4    1.292612 A    
C113  H74   1.096486 S    
C5    H1    1.101383 S    
C75   C76   1.398806 A    
C35   C40   1.420499 A    
C77   C78   1.409484 A    
C12   N1    1.490081 S    
C10   C56   1.477173 S    
C40   H8    1.076981 S    
C84   C87   1.431481 A    
C37   C105  1.507079 S    
C103  C104  1.531032 S    
C27   C32   1.421984 A    
C68   C72   1.428775 A    
C101  H44   1.105041 S    
C125  H103  1.103201 S    
C80   C121  1.526179 S    
N10   O44   1.300673 A    
C71   C72   1.427050 A    
N11   O45   1.300570 A    
C122  H92   1.110287 S    
C114  H71   1.105813 S    
C6    C10   1.588389 S    
C10   C11   1.615691 S    
O9    Zn3   2.011033 S    
N17   O57   1.301192 A    
O19   Zn5   2.023695 S    
Zn6   O22   2.042018 S    
C101  C102  1.531295 S    
C102  H42   1.106073 S    
C93   H24   1.102979 S    
N20   O63   1.302033 A    
N8    O40   1.298144 A    
C31   C32   1.410601 A    
C116  H75   1.109422 S    
O24   C62   1.286378 A    
C39   C99   1.513382 S    
C25   C26   1.407213 A    
O8    C4    1.280854 A    
O20   Zn6   2.012115 S    
C59   C83   1.454999 S    
N16   O56   1.301727 A    
C29   C30   1.411570 A    
C115  C116  1.529780 S    
N19   O61   1.301653 A    
Zn1   O5    2.039075 S    
C124  H95   1.110724 S    
N16   O55   1.301826 A    
O6    C3    1.299144 A    
C13   C18   1.430897 A    
Zn4   O14   2.011033 S    
C120  H85   1.111140 S    
C8    H4    1.097445 S    
O2    C1    1.289504 A    
N3    O29   1.301288 A    
C51   N11   1.433221 S    
C106  H52   1.110343 S    
C107  H59   1.107286 S    
C85   C90   1.414726 A    
C109  C110  1.528223 S    
H3    C11   1.110346 S    
O12   C56   1.278946 A    
C74   N15   1.432076 S    
C52   C53   1.393501 A    
C52   N12   1.436422 S    
C81   C82   1.404068 A    
C97   H33   1.113411 S    
O21   C61   1.311794 A    
C83   C84   1.425924 A    
