data_mof_unit_pretest_476.cif
_audit_creation_date              2012-12-10T17:18:19-0500
_audit_creation_method            fapswitch 2.2
_symmetry_space_group_name_H-M    P1
_symmetry_Int_Tables_number       1
_space_group_crystal_system       triclinic
_cell_length_a                    10.247895
_cell_length_b                    10.839158
_cell_length_c                    14.860865
_cell_angle_alpha                 90.666898
_cell_angle_beta                  80.614013
_cell_angle_gamma                 95.658479
_cell_volume                      1620.67122616

loop_
_atom_site_label
_atom_site_type_symbol
_atom_type_description
_atom_site_fract_x
_atom_site_fract_y
_atom_site_fract_z
_atom_type_partial_charge
C1    C     C_R   0.556151 0.731898 0.491439 0.937075
C2    C     C_2   0.071098 0.478298 0.501020 0.593499
C3    C     C_R   0.497931 0.495951 0.672804 0.891422
C4    C     C_R   0.500939 0.501327 0.327220 0.921647
C5    C     C_R   0.442017 0.398135 0.193981 -0.267512
C6    C     C_R   0.539541 0.600774 0.809278 -0.272382
C7    C     C_R   0.501084 0.502077 0.231588 -0.186153
C8    C     C_R   0.492286 0.493733 0.768957 -0.156860
C9    C     C_R   0.550342 0.608618 0.180584 0.490077
C10   C     C_R   0.424559 0.392811 0.820284 0.521849
C11   C     C_R   0.528521 0.614832 0.089951 -0.151286
C12   C     C_R   0.443921 0.268221 0.509410 0.952812
C13   C     C_R   0.421927 0.392682 0.915270 -0.135844
C14   C     C_R   0.472307 0.506288 0.050129 -0.114006
C15   C     C_R   0.468856 0.503710 0.956677 -0.124383
C16   C     C_R   0.426497 0.398233 0.102996 -0.000901
C17   C     C_R   0.520808 0.610170 0.903339 -0.021069
C18   C     C_R   0.562015 0.725479 0.037996 0.415856
C19   C     C_R   0.375606 0.284859 0.968637 0.437947
C20   C     C_3   0.752326 0.696089 0.204388 -0.230925
C21   C     C_3   0.231060 0.306173 0.779191 -0.280733
C22   C     C_3   0.500396 0.900087 0.112981 -0.171252
C23   C     C_R   0.557417 0.723044 0.944653 0.430368
C24   C     C_3   0.231610 0.112053 0.947178 -0.245018
C25   C     C_3   0.487225 0.880650 0.869463 -0.295781
C26   C     C_3   0.199470 0.194106 0.163567 -0.402233
C27   C     C_3   0.601409 0.094921 0.647069 -0.291143
C28   C     C_3   0.403492 0.913044 0.354463 -0.328000
C29   C     C_3   0.076310 0.270780 0.479299 -0.306011
C30   C     C_3   0.857517 0.670947 0.593436 -0.141067
C31   C     C_3   0.182345 0.714225 0.627819 -0.148513
C32   C     C_3   0.838598 0.320881 0.343943 -0.126821
C33   C     C_R   0.371116 0.290326 0.063814 0.420109
C34   C     C_2   0.588751 0.863660 0.491980 -0.469395
C35   C     C_2   0.411541 0.136435 0.511895 -0.467959
C36   C     C_2   0.494690 0.938201 0.483544 0.442862
C37   C     C_2   0.506628 0.062711 0.519892 0.434382
C38   C     C_2   0.922126 0.494062 0.518338 0.525967
H1    H     H_    0.411278 0.316500 0.236515 0.184529
H2    H     H_    0.180786 0.215533 0.762342 0.174787
H3    H     H_    0.419802 0.840057 0.155733 0.120113
H4    H     H_    0.460246 0.945441 0.058322 0.187522
H5    H     H_    0.535988 0.974723 0.157365 0.186509
H6    H     H_    0.154153 0.177975 0.961466 0.123436
H7    H     H_    0.224936 0.046607 0.004923 0.192359
H8    H     H_    0.209470 0.055636 0.887768 0.168738
H9    H     H_    0.398204 0.871019 0.923983 0.139304
H10   H     H_    0.460602 0.837830 0.805922 0.138563
H11   H     H_    0.513584 0.981101 0.855637 0.236450
H12   H     H_    0.588460 0.677501 0.766384 0.171741
H13   H     H_    0.129710 0.216086 0.117424 0.154469
H14   H     H_    0.197972 0.264739 0.218288 0.205394
H15   H     H_    0.161086 0.103564 0.196517 0.190422
H16   H     H_    0.694072 0.129891 0.672454 0.197786
H17   H     H_    0.577087 0.996163 0.668517 0.135770
H18   H     H_    0.521659 0.151278 0.679187 0.224250
H19   H     H_    0.423088 0.013281 0.336371 0.149337
H20   H     H_    0.313336 0.875797 0.326893 0.189080
H21   H     H_    0.487350 0.862126 0.321490 0.224569
H22   H     H_    0.125334 0.200269 0.434733 0.181438
H23   H     H_    0.316165 0.100462 0.494431 0.152894
H24   H     H_    0.967452 0.248173 0.484231 0.159347
H25   H     H_    0.103955 0.262267 0.548234 0.158825
H26   H     H_    0.891866 0.710950 0.523721 0.105889
H27   H     H_    0.914614 0.722054 0.641387 0.172970
H28   H     H_    0.753874 0.690840 0.617698 0.164856
H29   H     H_    0.196480 0.771069 0.564543 0.189563
H30   H     H_    0.277549 0.702174 0.650719 0.192690
H31   H     H_    0.125665 0.767199 0.682545 0.115665
H32   H     H_    0.773019 0.346063 0.296284 0.164559
H33   H     H_    0.782841 0.257244 0.398238 0.175068
H34   H     H_    0.683206 0.898395 0.511546 0.152092
H35   H     H_    0.915151 0.267717 0.303864 0.130403
H36   H     H_    0.803292 0.773757 0.238644 0.179859
H37   H     H_    0.792390 0.702619 0.130187 0.174850
H38   H     H_    0.776869 0.608184 0.232542 0.172913
H39   H     H_    0.215954 0.373731 0.727443 0.208522
H40   H     H_    0.180982 0.334099 0.847526 0.139715
N1    N     N_2   0.842700 0.448880 0.462930 0.029515
N2    N     N_2   0.157300 0.551120 0.537070 0.023911
O1    O     O_R   0.431060 0.692470 0.507460 -0.579218
O2    O     O_3   0.367582 0.293052 0.776356 -0.611688
O3    O     O_3   0.609135 0.834794 0.075974 -0.556942
O4    O     O_3   0.362001 0.170911 0.925421 -0.570522
O5    O     O_3   0.598946 0.830435 0.893930 -0.587341
O6    O     O_3   0.329505 0.184376 0.116100 -0.618101
O7    O     O_3   0.623010 0.106902 0.551329 -0.622766
O8    O     O_3   0.379969 0.895245 0.449670 -0.626092
O9    O     O_3   0.119186 0.389182 0.440356 -0.584576
O10   O     O_3   0.866854 0.542014 0.601217 -0.592429
O11   O     O_3   0.109272 0.599455 0.618370 -0.569313
O12   O     O_R   0.568940 0.307530 0.492540 -0.574814
O13   O     O_3   0.903636 0.428276 0.377222 -0.562532
O14   O     O_R   0.651120 0.659650 0.483670 -0.639685
O15   O     O_R   0.348880 0.340350 0.516330 -0.607035
O16   O     O_R   0.389960 0.516440 0.644050 -0.639453
O17   O     O_R   0.610040 0.483560 0.355950 -0.630528
O18   O     O_R   0.610030 0.483620 0.620260 -0.568521
O19   O     O_R   0.389970 0.516380 0.379740 -0.573567
O20   O     O_3   0.614382 0.707085 0.221454 -0.620544
Zn1   Zn    Zn3+2 0.353060 0.521920 0.515880 1.011311
Zn2   Zn    Zn3+2 0.646940 0.478080 0.484120 1.003057

loop_
_geom_bond_atom_site_label_1
_geom_bond_atom_site_label_2
_ccdc_geom_bond_type
C29   H25   S    
C11   C18   A    
C30   H26   S    
C30   O10   S    
C29   O9    S    
C27   H16   S    
O1    Zn1   S    
C28   H19   S    
C36   O8    S    
C31   H29   S    
C17   C23   A    
C24   H7    S    
C36   C37   S    
C35   C37   D    
N1    O13   S    
C11   C14   A    
C27   H17   S    
C22   H3    S    
C38   N1    D    
C1    O1    A    
C20   H38   S    
C7    C9    A    
C5    C16   A    
C1    O14   A    
C21   H40   S    
C28   O8    S    
N1    Zn2   S    
C3    O16   A    
C25   H9    S    
O17   Zn2   S    
O12   Zn2   S    
C32   O13   S    
C4    O17   A    
C4    C7    S    
C37   O7    S    
C1    C34   S    
C32   H33   S    
C31   H30   S    
C13   C19   A    
C18   C23   A    
C3    C8    S    
C19   C33   A    
C32   H35   S    
C5    C7    A    
C27   H18   S    
C32   H32   S    
O18   Zn2   S    
C10   O2    S    
C20   H37   S    
C2    O9    S    
C33   O6    S    
C26   H14   S    
C16   C33   A    
C2    C38   S    
C22   H5    S    
C20   O20   S    
C29   H22   S    
C26   O6    S    
C25   O5    S    
C18   O3    S    
C20   H36   S    
C35   H23   S    
C6    H12   S    
C12   C35   S    
C27   O7    S    
C9    C11   A    
C25   H10   S    
C30   H28   S    
O19   Zn1   S    
C9    O20   S    
C31   O11   S    
C13   C15   A    
C24   H6    S    
C14   C16   A    
C12   O15   A    
C19   O4    S    
C26   H15   S    
C34   H34   S    
C28   H21   S    
C15   C17   A    
C6    C17   A    
C29   H24   S    
C12   O12   A    
C10   C13   A    
C6    C8    A    
C28   H20   S    
C38   O10   S    
N2    Zn1   S    
C24   H8    S    
C22   O3    S    
N2    O11   S    
C5    H1    S    
C24   O4    S    
C26   H13   S    
C3    O18   A    
C22   H4    S    
C21   H2    S    
C34   C36   D    
C25   H11   S    
C30   H27   S    
C2    N2    D    
C31   H31   S    
C21   O2    S    
O14   Zn2   S    
C8    C10   A    
C23   O5    S    
C4    O19   A    
C21   H39   S    
C14   C15   A    
O16   Zn1   S    
O15   Zn1   S    
