data_mof_unit_pretest_17.cif
_audit_creation_date              2012-10-26T21:21:07-0400
_audit_creation_method            fapswitch 2.2
_symmetry_space_group_name_H-M    P1
_symmetry_Int_Tables_number       1
_space_group_crystal_system       triclinic
_cell_length_a                    10.835943
_cell_length_b                    10.932418
_cell_length_c                    9.697137
_cell_angle_alpha                 90.928454
_cell_angle_beta                  91.018656
_cell_angle_gamma                 89.747714
_cell_volume                      1148.41042942

loop_
_atom_site_label
_atom_site_type_symbol
_atom_type_description
_atom_site_fract_x
_atom_site_fract_y
_atom_site_fract_z
_atom_type_partial_charge
C1    C     C_R   0.502323 0.265162 0.498520 0.555165
C2    C     C_2   0.498803 0.132469 0.494837 -0.095552
C3    C     C_2   0.400479 0.492411 0.920166 -0.043673
C4    C     C_R   0.262912 0.511007 0.499126 0.544557
C5    C     C_2   0.402341 0.514906 0.073344 0.020824
C6    C     C_R   0.503768 0.734604 0.501262 0.545603
C7    C     C_R   0.738491 0.496765 0.502372 0.545617
C8    C     C_R   0.121223 0.642756 0.724121 0.019449
C9    C     C_R   0.068393 0.645481 0.854724 -0.115516
C10   C     C_R   0.959233 0.583726 0.877057 -0.149118
C11   C     C_R   0.895278 0.529518 0.766468 -0.105138
C12   C     C_R   0.066265 0.569400 0.616675 0.044321
C13   C     C_R   0.942725 0.531645 0.631016 0.021284
C14   C     C_3   0.223434 0.732488 0.700132 -0.367553
C15   C     C_3   0.609321 0.116141 0.268490 -0.356617
C16   C     C_R   0.129323 0.529170 0.497255 -0.010261
C17   C     C_R   0.062765 0.487480 0.381089 -0.166368
C18   C     C_R   0.935979 0.477780 0.385093 -0.163272
C19   C     C_R   0.874032 0.497762 0.508971 -0.010092
C20   C     C_2   0.528238 0.929628 0.389981 -0.142340
C21   C     C_2   0.516348 0.866316 0.505898 -0.137659
C22   C     C_2   0.543938 0.063023 0.390222 -0.032259
Cu1   Cu    Cu3+1 0.500020 0.500020 0.638630 0.911475
Cu2   Cu    Cu3+1 0.499980 0.499980 0.361370 0.964494
H1    H     H_    0.108884 0.459997 0.287245 0.131517
H2    H     H_    0.530051 0.882022 0.290740 0.152537
H3    H     H_    0.522444 0.909752 0.607077 0.101078
H4    H     H_    0.666460 0.467780 0.075281 0.208850
H5    H     H_    0.559082 0.352483 0.036601 0.225358
H6    H     H_    0.193095 0.825573 0.732704 0.109505
H7    H     H_    0.305963 0.707780 0.763077 0.167134
H8    H     H_    0.247195 0.738189 0.589772 0.132594
H9    H     H_    0.653020 0.043164 0.204733 0.109393
H10   H     H_    0.542345 0.165141 0.201157 0.164949
H11   H     H_    0.683775 0.179072 0.304654 0.152113
H12   H     H_    0.453013 0.091567 0.581052 0.083071
H13   H     H_    0.312178 0.474350 0.870128 0.152211
H14   H     H_    0.575053 0.537755 0.893268 0.217978
H15   H     H_    0.317495 0.547428 0.119118 0.105007
H16   H     H_    0.111295 0.696855 0.939060 0.105551
H17   H     H_    0.921210 0.582108 0.979540 0.105524
H18   H     H_    0.812910 0.481155 0.792563 0.143770
H19   H     H_    0.886779 0.449850 0.291617 0.135829
N1    N     N_2   0.498640 0.498660 0.846910 -0.363957
N2    N     N_2   0.498610 0.498630 0.153040 -0.144039
N3    N     N_3   0.590896 0.417912 0.108601 -0.503925
O1    O     O_R   0.500020 0.321960 0.617040 -0.489163
O2    O     O_R   0.499980 0.321920 0.382900 -0.470650
O3    O     O_R   0.319670 0.500020 0.617100 -0.500049
O4    O     O_R   0.319630 0.499980 0.382950 -0.513276
O5    O     O_R   0.500020 0.678080 0.617100 -0.508595
O6    O     O_R   0.499980 0.678040 0.382960 -0.493618
O7    O     O_R   0.680370 0.500020 0.617050 -0.516740
O8    O     O_R   0.680330 0.499980 0.382900 -0.477327

loop_
_geom_bond_atom_site_label_1
_geom_bond_atom_site_label_2
_ccdc_geom_bond_type
C4    C16   S    
Cu1   Cu2   S    
C1    O2    A    
H14   N1    S    
C6    O5    A    
C9    C10   A    
H5    N3    S    
C15   H10   S    
Cu1   O5    S    
C9    H16   S    
C4    O4    A    
C4    O3    A    
C8    C12   A    
C17   H1    S    
C17   C18   A    
C21   H3    S    
C2    C22   D    
C20   C21   D    
C10   H17   S    
C11   C13   A    
H4    N3    S    
C16   C17   A    
C20   H2    S    
C14   H6    S    
Cu2   N2    S    
C1    C2    S    
C15   H11   S    
C20   C22   S    
Cu1   O7    S    
C7    C19   S    
Cu2   O6    S    
C5    H15   S    
Cu2   O4    S    
C3    N1    D    
Cu1   O3    S    
Cu1   O1    S    
C10   C11   A    
C13   C19   A    
Cu2   O8    S    
Cu2   O2    S    
N2    N3    S    
C12   C13   A    
C3    H13   S    
C11   H18   S    
C18   C19   A    
C2    H12   S    
C14   H7    S    
C7    O7    A    
C1    O1    A    
C8    C14   S    
C7    O8    A    
C6    O6    A    
C18   H19   S    
C6    C21   S    
C5    N2    D    
C15   H9    S    
C15   C22   S    
Cu1   N1    S    
C12   C16   A    
C14   H8    S    
C8    C9    A    
C3    C5    S    
