data_mof_unit_pretest_1646.cif
_audit_creation_date              2012-12-10T19:39:58-0500
_audit_creation_method            fapswitch 2.2
_symmetry_space_group_name_H-M    P1
_symmetry_Int_Tables_number       1
_space_group_crystal_system       triclinic
_cell_length_a                    30.539178
_cell_length_b                    21.669656
_cell_length_c                    21.63169
_cell_angle_alpha                 89.833833
_cell_angle_beta                  134.86312
_cell_angle_gamma                 89.804534
_cell_volume                      10146.2409348

loop_
_atom_site_label
_atom_site_type_symbol
_atom_type_description
_atom_site_fract_x
_atom_site_fract_y
_atom_site_fract_z
_atom_type_partial_charge
C1    C     C_R   0.119988 0.500012 0.119962 0.924098
C2    C     C_R   0.619865 0.000162 0.119633 0.869015
C3    C     C_3   0.047699 0.786051 0.149934 0.760959
C4    C     C_3   0.952850 0.215356 0.063599 0.818737
C5    C     C_3   0.418785 0.285434 0.004034 0.837042
C6    C     C_3   0.566294 0.712948 0.163851 0.841593
C7    C     C_3   0.045257 0.715925 0.149818 -0.399946
C8    C     C_3   0.956877 0.286437 0.068789 -0.366127
C9    C     C_3   0.421575 0.214170 0.009458 -0.493141
C10   C     C_3   0.562986 0.784007 0.163450 -0.383631
C11   C     C_R   0.217837 0.459303 0.254747 0.076208
C12   C     C_R   0.717353 0.947041 0.202362 -0.119929
C13   C     C_R   0.185586 0.501793 0.186429 -0.083749
C14   C     C_R   0.685240 0.001088 0.183417 -0.073600
C15   C     C_R   0.217095 0.548910 0.187012 -0.202629
C16   C     C_R   0.716316 0.057206 0.217682 -0.178680
C17   C     C_R   0.281403 0.549257 0.251908 -0.124982
C18   C     C_R   0.780576 0.057311 0.280288 -0.137466
C19   C     C_R   0.313737 0.501408 0.314200 -0.139143
C20   C     C_R   0.813353 0.001125 0.308176 -0.068087
C21   C     C_R   0.281456 0.458285 0.317175 -0.051695
C22   C     C_R   0.781009 0.946774 0.264234 -0.042890
C23   C     C_3   0.283786 0.388863 0.320736 0.677143
C24   C     C_3   0.785359 0.883803 0.297713 0.719027
C25   C     C_3   0.212856 0.390499 0.252481 0.593401
C26   C     C_3   0.714746 0.885131 0.230981 0.706469
C27   C     C_R   0.998125 0.620186 0.997880 0.949086
C28   C     C_R   0.003185 0.379958 0.003142 0.953565
C29   C     C_R   0.502241 0.119892 0.002108 0.901188
C30   C     C_R   0.498197 0.879975 0.998156 0.949186
C31   C     C_R   0.781596 0.456345 0.812232 0.069591
C32   C     C_R   0.279598 0.014638 0.831178 -0.007999
C33   C     C_R   0.814847 0.501174 0.814833 -0.107531
C34   C     C_R   0.313891 0.997598 0.813854 -0.116900
C35   C     C_R   0.782604 0.547313 0.749924 -0.181481
C36   C     C_R   0.281775 0.979057 0.728280 -0.149293
C37   C     C_R   0.717886 0.547329 0.685215 -0.183786
C38   C     C_R   0.217096 0.979108 0.663463 -0.201473
C39   C     C_R   0.685725 0.500133 0.684252 -0.054484
C40   C     C_R   0.184761 0.998902 0.683885 -0.010939
C41   C     C_R   0.719549 0.455071 0.748571 -0.026347
C42   C     C_R   0.217499 0.016326 0.768112 -0.056453
C43   C     C_3   0.714558 0.397686 0.781601 -0.553362
C44   C     C_3   0.210078 0.039327 0.825100 -0.484016
C45   C     C_3   0.786020 0.398623 0.854190 0.798949
C46   C     C_3   0.281379 0.037955 0.898180 0.857832
C47   C     C_R   0.000463 0.003266 0.880261 0.842103
C48   C     C_R   0.500237 0.501462 0.880260 0.824130
C49   C     C_R   0.000303 0.879993 0.999454 0.935595
C50   C     C_R   0.999687 0.119785 0.000129 0.896879
C51   C     C_R   0.500268 0.380157 0.998221 0.897400
C52   C     C_R   0.499718 0.619778 0.998436 0.851937
C53   C     C_R   0.880145 0.499841 0.880242 0.904950
C54   C     C_R   0.379807 0.999502 0.879941 0.894952
C55   C     C_R   0.999935 0.001362 0.120003 0.992835
C56   C     C_R   0.499880 0.498200 0.119807 0.869415
C57   C     C_R   0.500292 0.500131 0.380160 0.914896
C58   C     C_R   0.999751 0.999991 0.379726 0.944260
C59   C     C_R   0.379799 0.500228 0.379016 0.915609
C60   C     C_R   0.879615 0.000236 0.379053 0.961292
C61   C     C_R   0.500455 0.499912 0.620633 0.885171
C62   C     C_R   0.999359 0.999784 0.619278 0.955709
C63   C     C_R   0.620026 0.499863 0.619705 0.880242
C64   C     C_R   0.119691 0.999746 0.619721 0.862962
C65   C     C_R   0.964336 0.962925 0.746866 -0.049697
C66   C     C_R   0.479779 0.451646 0.762828 -0.096387
C67   C     C_R   0.002802 0.003664 0.816342 -0.202223
C68   C     C_R   0.501872 0.502876 0.816175 -0.140288
C69   C     C_R   0.048391 0.036938 0.827677 0.458738
C70   C     C_R   0.532800 0.550302 0.814128 0.450355
C71   C     C_R   0.533608 0.547847 0.750609 -0.154922
C72   C     C_R   0.047167 0.034194 0.762261 -0.191138
C73   C     C_R   0.504281 0.499503 0.690404 -0.183891
C74   C     C_R   0.002939 0.998636 0.688287 -0.252834
C75   C     C_R   0.037791 0.718220 0.073634 -0.111239
C76   C     C_R   0.984573 0.280595 0.033342 -0.054665
C77   C     C_R   0.469167 0.219453 0.007228 -0.082459
C78   C     C_R   0.524662 0.779721 0.068063 -0.124201
C79   C     C_R   0.481079 0.449885 0.700671 -0.031014
C80   C     C_R   0.965247 0.959440 0.684439 0.116697
C81   C     C_3   0.418984 0.419336 0.636378 0.856473
C82   C     C_3   0.896857 0.949512 0.613402 0.814535
C83   C     C_3   0.896004 0.953606 0.682988 -0.559149
C84   C     C_3   0.418419 0.420658 0.706201 -0.437990
C85   C     C_R   0.965442 0.959028 0.183823 -0.120265
C86   C     C_R   0.473638 0.545507 0.190966 -0.213554
C87   C     C_R   0.000908 0.001755 0.186965 -0.172381
C88   C     C_R   0.500435 0.496230 0.186156 -0.210690
C89   C     C_R   0.043031 0.039413 0.260883 0.493858
C90   C     C_R   0.535250 0.451119 0.253744 0.494930
C91   C     C_R   0.536620 0.454114 0.319431 -0.162874
C92   C     C_R   0.042733 0.038437 0.325394 -0.316123
C93   C     C_R   0.503996 0.500745 0.317980 -0.210191
C94   C     C_R   0.002298 0.999256 0.316551 -0.101746
C95   C     C_R   0.476024 0.548249 0.256762 -0.090185
C96   C     C_R   0.967018 0.956953 0.248930 -0.040937
C97   C     C_3   0.412356 0.576532 0.198220 0.755563
C98   C     C_3   0.899687 0.942056 0.187280 0.608329
C99   C     C_R   0.997698 0.686317 0.995452 -0.192262
C100  C     C_R   0.007627 0.314042 0.006954 -0.256570
C101  C     C_R   0.506758 0.185431 0.005916 -0.263084
C102  C     C_R   0.494488 0.814233 0.993476 -0.173312
C103  C     C_3   0.897408 0.945532 0.114201 0.777388
C104  C     C_3   0.409338 0.572750 0.124488 0.786963
C105  C     C_R   0.964025 0.717993 0.915511 0.430494
C106  C     C_R   0.030309 0.280868 0.977286 0.425036
C107  C     C_R   0.545358 0.217504 0.001875 0.418230
C108  C     C_R   0.462788 0.783162 0.913916 0.435169
C109  C     C_R   0.966853 0.782997 0.915474 0.328024
C110  C     C_R   0.023109 0.216588 0.967722 0.432025
C111  C     C_R   0.541365 0.282318 0.994101 0.428154
C112  C     C_R   0.465117 0.717664 0.913762 0.348761
C113  C     C_R   0.001798 0.814358 0.995604 -0.245056
C114  C     C_R   0.999276 0.185023 0.996151 -0.287964
C115  C     C_R   0.501404 0.314708 0.995451 -0.322828
C116  C     C_R   0.498626 0.685065 0.993683 -0.232005
C117  C     C_R   0.039974 0.781371 0.073635 0.048452
C118  C     C_R   0.980366 0.218887 0.027721 -0.076197
C119  C     C_R   0.466025 0.281147 0.000976 0.021130
C120  C     C_R   0.527729 0.718071 0.068307 -0.073672
O1    O     O_R   0.091640 0.500000 0.143360 -0.607189
O2    O     O_R   0.591640 1.000000 0.143360 -0.609624
O3    O     O_R   0.051710 0.908380 0.051700 -0.634851
O4    O     O_R   0.051710 0.091620 0.051700 -0.598516
O5    O     O_R   0.551710 0.408380 0.051700 -0.618021
O6    O     O_R   0.551710 0.591620 0.051700 -0.596992
O7    O     O_R   0.948260 0.000000 0.039800 -0.586343
O8    O     O_R   0.448260 0.500000 0.039800 -0.585726
O9    O     O_R   0.051700 0.000000 0.143310 -0.591445
O10   O     O_R   0.551700 0.500000 0.143310 -0.604367
O11   O     O_R   0.499940 0.551750 0.408310 -0.619239
O12   O     O_R   0.499940 0.448250 0.408310 -0.622125
O13   O     O_R   0.999940 0.051750 0.408310 -0.611611
O14   O     O_R   0.999940 0.948250 0.408310 -0.638604
O15   O     O_R   0.408380 0.551720 0.408370 -0.628504
O16   O     O_R   0.408380 0.448280 0.408370 -0.564872
O17   O     O_R   0.908380 0.051720 0.408370 -0.630604
O18   O     O_R   0.908380 0.948280 0.408370 -0.609121
O19   O     O_R   0.500050 0.551670 0.591650 -0.616935
O20   O     O_R   0.500050 0.448330 0.591650 -0.603691
O21   O     O_R   0.000050 0.051670 0.591650 -0.625993
O22   O     O_R   0.000050 0.948330 0.591650 -0.582438
O23   O     O_R   0.591610 0.551710 0.591590 -0.624514
O24   O     O_R   0.591610 0.448290 0.591590 -0.620974
O25   O     O_R   0.091610 0.051710 0.591590 -0.627414
O26   O     O_R   0.091610 0.948290 0.591590 -0.615664
O27   O     O_R   0.091570 0.500000 0.039860 -0.618416
O28   O     O_R   0.591570 0.000000 0.039860 -0.616387
O29   O     O_R   0.000030 0.591610 0.051750 -0.639617
O30   O     O_R   0.000030 0.408390 0.051750 -0.598758
O31   O     O_R   0.500030 0.091610 0.051750 -0.607202
O32   O     O_R   0.500030 0.908390 0.051750 -0.619234
O33   O     O_R   0.999970 0.591600 0.948260 -0.576500
O34   O     O_R   0.999970 0.408400 0.948260 -0.613755
O35   O     O_R   0.499970 0.091600 0.948260 -0.611970
O36   O     O_R   0.499970 0.908400 0.948260 -0.571475
O37   O     O_R   0.908410 0.500000 0.960140 -0.588683
O38   O     O_R   0.408410 0.000000 0.960140 -0.626556
O39   O     O_R   0.908350 0.500000 0.856640 -0.615144
O40   O     O_R   0.408350 1.000000 0.856640 -0.615669
O41   O     O_R   0.948280 0.000000 0.856590 -0.618705
O42   O     O_R   0.448280 0.500000 0.856590 -0.619571
O43   O     O_R   0.051720 0.000000 0.960100 -0.623078
O44   O     O_R   0.551720 0.500000 0.960100 -0.614796
O45   O     O_R   0.948270 0.908380 0.948190 -0.578699
O46   O     O_R   0.948270 0.091620 0.948190 -0.628851
O47   O     O_R   0.448270 0.408380 0.948190 -0.566376
O48   O     O_R   0.448270 0.591620 0.948190 -0.610659
Zn1   Zn    Zn3+2 0.000030 0.500000 0.069110 1.049337
Zn2   Zn    Zn3+2 0.500030 1.000000 0.069110 1.015811
Zn3   Zn    Zn3+2 0.999950 0.500000 0.930890 1.062887
Zn4   Zn    Zn3+2 0.499950 1.000000 0.930890 1.048803
Zn5   Zn    Zn3+2 0.930930 0.000000 0.930840 1.054843
Zn6   Zn    Zn3+2 0.430930 0.500000 0.930840 1.069165
Zn7   Zn    Zn3+2 0.069060 0.000000 0.069060 1.042707
Zn8   Zn    Zn3+2 0.569060 0.500000 0.069060 1.055661
Zn9   Zn    Zn3+2 0.500000 0.569060 0.499990 1.007288
Zn10  Zn    Zn3+2 0.500000 0.430940 0.499990 1.053557
Zn11  Zn    Zn3+2 0.000000 0.069060 0.499990 1.009741
Zn12  Zn    Zn3+2 0.000000 0.930940 0.499990 1.038608
O49   O     O_3   0.927374 0.684390 0.839091 -0.745202
H1    H     H_    0.905961 0.712361 0.788410 0.390505
O50   O     O_3   0.059061 0.309055 0.956530 -0.665233
H2    H     H_    0.082450 0.344792 0.995601 0.364421
O51   O     O_3   0.587204 0.187891 0.005343 -0.682412
H3    H     H_    0.597626 0.146980 0.033481 0.323289
O52   O     O_3   0.430024 0.817735 0.838300 -0.736946
H4    H     H_    0.409523 0.790251 0.787898 0.390761
O53   O     O_3   0.186908 0.370920 0.282802 -0.718921
H5    H     H_    0.191493 0.325351 0.288597 0.328210
O54   O     O_3   0.182939 0.366087 0.170657 -0.810987
H6    H     H_    0.190216 0.320845 0.179109 0.345548
O55   O     O_3   0.690581 0.886401 0.267483 -0.793383
H7    H     H_    0.707927 0.922478 0.306815 0.350201
O56   O     O_3   0.686479 0.840264 0.166017 -0.692751
H8    H     H_    0.641730 0.850598 0.120952 0.324489
H9    H     H_    0.807204 0.583217 0.749896 0.184624
H10   H     H_    0.306308 0.964497 0.711555 0.183099
H11   H     H_    0.693266 0.583366 0.635858 0.175263
H12   H     H_    0.192593 0.964710 0.597933 0.148462
H13   H     H_    0.694731 0.358769 0.735227 0.205794
H14   H     H_    0.692455 0.406666 0.805113 0.214094
H15   H     H_    0.187688 0.004669 0.833280 0.217120
H16   H     H_    0.189203 0.086334 0.805688 0.186066
O57   O     O_3   0.815275 0.349237 0.852503 -0.766413
H17   H     H_    0.797026 0.345879 0.792357 0.320741
O58   O     O_3   0.810825 0.409175 0.937692 -0.725488
H18   H     H_    0.804276 0.370593 0.955011 0.354467
O59   O     O_3   0.304395 0.994273 0.963340 -0.710106
H19   H     H_    0.350073 0.996170 0.006319 0.362428
O60   O     O_3   0.308694 0.096339 0.932102 -0.761070
H20   H     H_    0.290904 0.124229 0.882397 0.305337
O61   O     O_3   0.092674 0.074628 0.897435 -0.707201
H21   H     H_    0.084638 0.080948 0.933674 0.364623
O62   O     O_3   0.559413 0.600989 0.868350 -0.729742
H22   H     H_    0.548992 0.601944 0.902432 0.331150
H23   H     H_    0.555012 0.585020 0.746256 0.191284
H24   H     H_    0.079544 0.061523 0.767951 0.182917
O63   O     O_3   0.419971 0.359511 0.612011 -0.705627
H25   H     H_    0.456139 0.336862 0.665323 0.319741
O64   O     O_3   0.372493 0.456808 0.564213 -0.708957
H26   H     H_    0.379147 0.456364 0.525483 0.358003
O65   O     O_3   0.882556 0.890714 0.576821 -0.693013
H27   H     H_    0.837692 0.885204 0.539561 0.362098
O66   O     O_3   0.863737 0.996642 0.549537 -0.754351
H28   H     H_    0.876639 0.036972 0.579628 0.312794
H29   H     H_    0.884440 0.909389 0.694770 0.234064
H30   H     H_    0.871131 0.994781 0.676488 0.204401
H31   H     H_    0.422236 0.374377 0.732060 0.178371
H32   H     H_    0.382036 0.451202 0.689878 0.229677
O67   O     O_3   0.081220 0.078650 0.266354 -0.733996
H33   H     H_    0.107034 0.101960 0.321660 0.337032
O68   O     O_3   0.565343 0.402015 0.255951 -0.746654
H34   H     H_    0.551865 0.398334 0.199027 0.340175
O69   O     O_3   0.934399 0.813778 0.837241 -0.761439
H35   H     H_    0.951836 0.855463 0.848717 0.340414
O70   O     O_3   0.039490 0.186659 0.930262 -0.681366
H36   H     H_    0.015695 0.147920 0.904154 0.301247
O71   O     O_3   0.576785 0.311560 0.985103 -0.682108
H37   H     H_    0.559358 0.353117 0.959448 0.329423
O72   O     O_3   0.435543 0.688114 0.836139 -0.750247
H38   H     H_    0.450146 0.644896 0.847694 0.340347
H39   H     H_    0.561069 0.418538 0.369496 0.182997
H40   H     H_    0.072760 0.068841 0.381032 0.156454
O73   O     O_3   0.413812 0.637366 0.221606 -0.662243
H41   H     H_    0.421585 0.634490 0.274469 0.348519
O74   O     O_3   0.368129 0.540608 0.185658 -0.771131
H42   H     H_    0.377315 0.496275 0.187619 0.305928
O75   O     O_3   0.865325 0.988116 0.183488 -0.800768
H43   H     H_    0.821393 0.975892 0.136189 0.368315
O76   O     O_3   0.889666 0.882692 0.201361 -0.730904
H44   H     H_    0.898566 0.885112 0.255151 0.358335
O77   O     O_3   0.860616 0.993854 0.053210 -0.744808
H45   H     H_    0.875539 0.033554 0.085120 0.345944
O78   O     O_3   0.885553 0.888933 0.073685 -0.667059
H46   H     H_    0.840862 0.881042 0.035220 0.366533
O79   O     O_3   0.407832 0.630775 0.094094 -0.648802
H47   H     H_    0.413427 0.623030 0.054805 0.346380
O80   O     O_3   0.363127 0.533323 0.055492 -0.716938
H48   H     H_    0.373835 0.490107 0.077385 0.322870
O81   O     O_3   0.997622 0.815199 0.129548 -0.746690
H49   H     H_    0.004854 0.810260 0.181795 0.366196
O82   O     O_3   0.891886 0.194027 0.002838 -0.702027
H50   H     H_    0.894504 0.148756 0.999025 0.357418
O83   O     O_3   0.362285 0.309012 0.926260 -0.714809
H51   H     H_    0.332092 0.302031 0.929956 0.353240
O84   O     O_3   0.535588 0.684263 0.182460 -0.694278
H52   H     H_    0.535300 0.639547 0.172450 0.339781
O85   O     O_3   0.105253 0.809874 0.224553 -0.758449
H53   H     H_    0.103292 0.854823 0.213811 0.351048
O86   O     O_3   0.990221 0.185050 0.144925 -0.746918
H54   H     H_    0.033093 0.200451 0.183135 0.331196
O87   O     O_3   0.439630 0.315664 0.078357 -0.759347
H55   H     H_    0.480349 0.297690 0.130580 0.324232
O88   O     O_3   0.626080 0.688697 0.213676 -0.720699
H56   H     H_    0.643870 0.709098 0.194336 0.346052
H57   H     H_    0.003696 0.697579 0.132265 0.200558
H58   H     H_    0.911308 0.310362 0.022390 0.250269
H59   H     H_    0.379090 0.191426 0.950087 0.212569
H60   H     H_    0.536095 0.802278 0.176488 0.226982
H61   H     H_    0.089674 0.693759 0.207842 0.208877
H62   H     H_    0.990326 0.304817 0.136283 0.177597
H63   H     H_    0.440984 0.194954 0.072412 0.213295
H64   H     H_    0.607720 0.806962 0.199436 0.231885
H65   H     H_    0.192141 0.584328 0.136748 0.169146
H66   H     H_    0.691135 0.100211 0.198467 0.143177
H67   H     H_    0.305714 0.584892 0.250918 0.195581
H68   H     H_    0.804289 0.100752 0.309579 0.176553
O89   O     O_3   0.311638 0.366488 0.402660 -0.674198
H69   H     H_    0.307912 0.320906 0.397610 0.357545
O90   O     O_3   0.309241 0.361834 0.292441 -0.740275
H70   H     H_    0.292397 0.383815 0.238930 0.345593
O91   O     O_3   0.815249 0.883677 0.385113 -0.749069
H71   H     H_    0.810466 0.841392 0.397307 0.372559
O92   O     O_3   0.808741 0.838936 0.280270 -0.703999
H72   H     H_    0.853808 0.846137 0.321887 0.348813

loop_
_geom_bond_atom_site_label_1
_geom_bond_atom_site_label_2
_ccdc_geom_bond_type
C101  C107  A    
C49   C113  S    
C5    O83   S    
C77   C101  A    
O90   H70   S    
C75   C117  A    
C4    C118  S    
O11   Zn9   S    
C110  O70   S    
C39   C41   A    
O4    Zn7   S    
C58   O14   A    
C66   C79   A    
C27   C99   S    
O31   Zn2   S    
C5    C119  S    
C97   O73   S    
C98   O76   S    
C17   H67   S    
C85   C96   A    
C86   C88   A    
C48   O42   A    
O86   H54   S    
C9    H63   S    
C10   H64   S    
O37   Zn1   S    
O65   H27   S    
C3    O81   S    
C43   H13   S    
C44   H15   S    
O20   Zn10  S    
C63   O24   A    
C84   H32   S    
C85   C103  S    
C29   O35   A    
C30   O36   A    
O73   H41   S    
C41   C43   S    
C42   C44   S    
C44   C46   S    
C53   O39   A    
O54   H6    S    
O76   H44   S    
O15   Zn9   S    
C71   C73   A    
O49   H1    S    
C76   C118  A    
C50   C114  S    
C104  O80   S    
C32   C34   A    
C78   C120  A    
O62   H22   S    
O32   Zn2   S    
O17   Zn11  S    
C30   C102  S    
C92   C94   A    
O40   Zn4   S    
O26   Zn12  S    
C9    C77   S    
C89   O67   S    
C94   C96   A    
O47   Zn6   S    
O24   Zn10  S    
C34   C54   S    
C87   C89   A    
C38   H12   S    
C5    O87   S    
C64   O26   A    
O13   Zn11  S    
C97   O74   S    
C98   O75   S    
C95   C97   S    
C48   O44   A    
C76   C100  A    
C72   H24   S    
C100  C106  A    
C11   C13   A    
C11   C21   A    
C15   H65   S    
C56   O8    A    
C2    C14   S    
C106  O50   S    
C86   C95   A    
O56   H8    S    
C18   H68   S    
O55   H7    S    
O9    Zn7   S    
C7    H57   S    
C98   C103  S    
O12   Zn10  S    
C81   O63   S    
C51   O47   A    
O43   Zn7   S    
C10   C78   S    
O48   Zn6   S    
O75   H43   S    
O91   H71   S    
O29   Zn1   S    
C19   C21   A    
C24   C26   S    
C23   O90   S    
O77   H45   S    
C56   C88   S    
C11   C25   S    
C12   C22   A    
C59   O16   A    
C8    C76   S    
O79   H47   S    
O22   Zn12  S    
C96   C98   S    
O68   H34   S    
C110  C114  A    
C7    H61   S    
C40   C42   A    
C93   C95   A    
O70   H36   S    
C62   O22   A    
O87   H55   S    
C83   H30   S    
C50   O4    A    
C80   C82   S    
C52   O6    A    
O38   Zn2   S    
C19   C59   S    
O36   Zn4   S    
C116  C120  A    
C90   O68   S    
C12   C26   S    
C69   C72   A    
C5    C9    S    
O64   H26   S    
O19   Zn9   S    
C29   O31   A    
C8    H62   S    
C30   O32   A    
C75   C99   A    
O59   H19   S    
C73   C79   A    
C43   C45   S    
C113  C117  A    
C109  O69   S    
C55   O7    A    
C115  C119  A    
C1    O27   A    
C112  C116  A    
C35   H9    S    
C105  C109  A    
C31   C41   A    
C107  C111  A    
C62   C74   S    
C12   C14   A    
C23   O89   S    
O3    Zn7   S    
O84   H52   S    
C61   O20   A    
O8    Zn6   S    
C3    O85   S    
C25   O53   S    
C33   C35   A    
O34   Zn3   S    
C34   C36   A    
O23   Zn9   S    
C55   C87   S    
C1    O1    A    
C60   O18   A    
C44   H16   S    
C63   O23   A    
O14   Zn12  S    
O5    Zn8   S    
C56   O10   A    
O80   H48   S    
C27   O33   A    
C78   C102  A    
C103  O78   S    
C57   O12   A    
C66   C68   A    
O71   H37   S    
C24   O92   S    
O82   H50   S    
O61   H21   S    
O39   Zn3   S    
C70   O62   S    
C36   H10   S    
C3    C7    S    
C46   O60   S    
C49   O3    A    
C3    C117  S    
O35   Zn4   S    
C65   C67   A    
C50   O46   A    
O69   H35   S    
C70   C71   A    
C20   C60   S    
C47   O43   A    
C4    O86   S    
C52   C116  S    
C86   C104  S    
O2    Zn2   S    
C74   C80   A    
O85   H53   S    
C32   C46   S    
C26   O56   S    
C2    O2    A    
C58   O13   A    
O58   H18   S    
C69   O61   S    
C72   C74   A    
C25   O54   S    
O92   H72   S    
C82   O65   S    
C61   C73   S    
C51   C115  S    
C108  C112  A    
C49   O45   A    
C91   C93   A    
O41   Zn5   S    
O60   H20   S    
C43   H14   S    
C29   C101  S    
C48   C68   S    
C84   H31   S    
C112  O72   S    
C88   C90   A    
C21   C23   S    
C103  O77   S    
C22   C24   S    
C16   H66   S    
O63   H25   S    
C15   C17   A    
O46   Zn5   S    
C45   O57   S    
O21   Zn11  S    
C6    C10   S    
C8    H58   S    
C46   O59   S    
C81   O64   S    
O51   H3    S    
C71   H23   S    
C36   C38   A    
O52   H4    S    
C37   C39   A    
C38   C40   A    
C90   C91   A    
O81   H49   S    
C59   O15   A    
O44   Zn8   S    
O53   H5    S    
C97   C104  S    
C54   O40   A    
C47   O41   A    
C82   C83   S    
C31   C45   S    
C6    O84   S    
C32   C42   A    
C9    H59   S    
C10   H60   S    
C26   O55   S    
C2    O28   A    
O7    Zn5   S    
O1    Zn1   S    
C28   O30   A    
C64   O25   A    
C108  O52   S    
C4    C8    S    
O18   Zn12  S    
C24   O91   S    
C83   H29   S    
O57   H17   S    
C35   C37   A    
O72   H38   S    
C65   C83   S    
O30   Zn1   S    
O45   Zn5   S    
O16   Zn10  S    
C17   C19   A    
C55   O9    A    
C31   C33   A    
C102  C108  A    
O83   H51   S    
C109  C113  A    
C60   O17   A    
C28   C100  S    
C23   C25   S    
C27   O29   A    
C65   C80   A    
C57   C93   S    
C28   O34   A    
O25   Zn11  S    
C6    C120  S    
C47   C67   S    
O27   Zn3   S    
C85   C87   A    
C33   C53   S    
C99   C105  A    
C82   O66   S    
C51   O5    A    
C79   C81   S    
C61   O19   A    
C7    C75   S    
O10   Zn8   S    
C111  O71   S    
C67   C69   A    
O50   H2    S    
C54   O38   A    
O33   Zn3   S    
O66   H28   S    
C89   C92   A    
C6    O88   S    
C114  C118  A    
C16   C18   A    
O88   H56   S    
C91   H39   S    
C13   C15   A    
C14   C16   A    
C1    C13   S    
C62   O21   A    
O78   H46   S    
C81   C84   S    
O6    Zn8   S    
O89   H69   S    
C106  C110  A    
C57   O11   A    
C20   C22   A    
C77   C119  A    
O74   H42   S    
O42   Zn6   S    
C39   C63   S    
C107  O51   S    
C53   O37   A    
C40   C64   S    
C105  O49   S    
C58   C94   S    
C52   O48   A    
C92   H40   S    
C4    O82   S    
O28   Zn4   S    
C18   C20   A    
C104  O79   S    
C37   H11   S    
C66   C84   S    
C45   O58   S    
O67   H33   S    
C68   C70   A    
C111  C115  A    
