data_mof_unit_pretest_1822.cif
_audit_creation_date              2012-12-11T19:56:16-0500
_audit_creation_method            fapswitch 2.2
_symmetry_space_group_name_H-M    P1
_symmetry_Int_Tables_number       1
_space_group_crystal_system       triclinic
_cell_length_a                    8.332791
_cell_length_b                    16.205981
_cell_length_c                    18.78882
_cell_angle_alpha                 108.716124
_cell_angle_beta                  87.736694
_cell_angle_gamma                 96.575021
_cell_volume                      2387.27579202

loop_
_atom_site_label
_atom_site_type_symbol
_atom_type_description
_atom_site_fract_x
_atom_site_fract_y
_atom_site_fract_z
_atom_type_partial_charge
Ba1   Ba    Ba6+2 0.331680 0.458770 0.526950 1.730999
Ba2   Ba    Ba6+2 0.858120 0.541160 0.473030 1.810170
Br1   Br    Br    0.458989 0.872021 0.797846 -0.417401
Br2   Br    Br    0.738728 0.910427 0.269953 -0.550626
Br3   Br    Br    0.959764 0.392412 0.874557 -0.436235
C1    C     C_3   0.092026 0.152790 0.682357 -0.233606
C2    C     C_3   0.854759 0.412394 0.732800 -0.076121
C3    C     C_2   0.821054 0.434871 0.816582 0.200051
C4    C     C_3   0.554843 0.259227 0.684121 0.322365
C5    C     C_2   0.688204 0.476550 0.846088 -0.121662
C6    C     C_2   0.603285 0.516547 0.797248 -0.153031
C7    C     C_1   0.657845 0.513468 0.728408 0.074286
C8    C     C_R   0.518536 0.488119 0.065768 0.518665
C9    C     C_R   0.624488 0.480599 0.923796 0.496668
C10   C     C_R   0.557048 0.460299 0.190029 -0.050835
C11   C     C_R   0.520064 0.477002 0.267245 0.078472
C12   C     C_3   0.077665 0.234362 0.660622 0.317531
C13   C     C_R   0.292034 0.550080 0.252676 -0.007714
C14   C     C_R   0.332167 0.537404 0.176908 -0.048948
C15   C     C_R   0.468688 0.494947 0.144956 0.005102
C16   C     C_3   0.529698 0.235801 0.756460 0.259612
C17   C     C_R   0.395923 0.528290 0.298586 0.096794
C18   C     C_2   0.408261 0.764546 0.541692 -0.253568
C19   C     C_R   0.807528 0.250658 0.487393 -0.311461
C20   C     C_2   0.242085 0.880335 0.611622 -0.049716
C21   C     C_2   0.260667 0.794841 0.583114 0.060900
C22   C     C_2   0.521781 0.819717 0.524146 0.022929
C23   C     C_3   0.027591 0.651662 0.710693 0.283702
C24   C     C_3   0.479870 0.912009 0.534601 -0.034562
C25   C     C_3   0.373825 0.948202 0.603692 0.183410
C26   C     C_2   0.616414 0.978828 0.531194 0.379072
C27   C     C_2   0.594205 0.033199 0.492346 -0.047236
C28   C     C_3   0.639178 0.273577 0.342410 0.290022
C29   C     C_R   0.864171 0.075369 0.448439 0.141377
C30   C     C_R   0.719005 0.101472 0.484044 -0.008540
C31   C     C_R   0.977614 0.135488 0.430050 -0.129980
C32   C     C_R   0.947628 0.222958 0.447880 0.052986
C33   C     C_R   0.689173 0.189970 0.502621 -0.021656
C34   C     C_3   0.002169 0.668335 0.794561 -0.294509
C35   C     C_3   0.629658 0.174645 0.305894 -0.284344
C36   C     C_3   0.564787 0.733960 0.673504 0.281505
C37   C     C_3   0.605116 0.831732 0.713996 0.125479
C38   C     C_3   0.128805 0.333023 0.283538 0.236872
C39   C     C_3   0.118363 0.295812 0.197424 0.529033
C40   C     C_3   0.783540 0.767185 0.326746 0.684526
C41   C     C_3   0.877041 0.840929 0.302538 0.133662
C42   C     C_3   0.255379 0.760527 0.330795 0.567202
C43   C     C_3   0.330759 0.824551 0.291778 -0.236920
C44   C     C_2   0.777655 0.467718 0.695586 -0.299436
Cl1   Cl    Cl    0.306760 0.261214 0.157671 -0.581748
Cl2   Cl    Cl    0.056459 0.371896 0.156587 -0.642966
Cl3   Cl    Cl    0.680131 0.689482 0.248144 -0.700768
Cl4   Cl    Cl    0.180680 0.821519 0.419584 -0.744505
Cl5   Cl    Cl    0.379199 0.572695 0.396391 -0.677743
Cl6   Cl    Cl    0.786532 0.994986 0.588724 -0.687064
Cl7   Cl    Cl    0.557764 0.124090 0.741127 -0.564297
H1    H     H_    0.146800 0.229633 0.608035 0.088402
H2    H     H_    0.046721 0.384522 0.304793 0.058946
H3    H     H_    0.075998 0.094032 0.631811 0.138459
H4    H     H_    0.026043 0.237892 0.180730 0.113897
H5    H     H_    0.948076 0.235100 0.649384 -0.032623
H6    H     H_    0.998826 0.147222 0.724981 0.182105
H7    H     H_    0.910641 0.627118 0.681423 -0.011491
H8    H     H_    0.113332 0.601637 0.689865 0.076087
H9    H     H_    0.909724 0.714684 0.815988 0.144562
H10   H     H_    0.960921 0.606210 0.805732 0.063698
H11   H     H_    0.117447 0.696625 0.824975 0.166989
H12   H     H_    0.717609 0.158261 0.258776 0.155393
H13   H     H_    0.212490 0.154676 0.705630 0.156347
H14   H     H_    0.618933 0.277166 0.798956 0.051304
H15   H     H_    0.870503 0.732346 0.346066 0.072634
H16   H     H_    0.950122 0.885991 0.350281 0.086506
H17   H     H_    0.958845 0.812916 0.255092 0.113454
H18   H     H_    0.353052 0.723517 0.339754 0.054558
H19   H     H_    0.425373 0.870687 0.328276 0.162643
H20   H     H_    0.238696 0.863168 0.280646 0.115224
H21   H     H_    0.531402 0.328629 0.697152 -0.016666
H22   H     H_    0.385905 0.788287 0.237625 0.162015
H23   H     H_    0.657872 0.142737 0.347190 0.054495
H24   H     H_    0.496067 0.548754 0.818903 0.139871
H25   H     H_    0.656466 0.422641 0.166002 0.148920
H26   H     H_    0.257008 0.560586 0.143189 0.126670
H27   H     H_    0.803291 0.455938 0.636301 0.071816
H28   H     H_    0.136408 0.901634 0.645178 0.110073
H29   H     H_    0.085360 0.112974 0.399393 0.117507
H30   H     H_    0.426884 0.696318 0.528248 0.107059
H31   H     H_    0.682094 0.251592 0.666074 -0.034579
H32   H     H_    0.784895 0.318457 0.501192 0.064072
H33   H     H_    0.478959 0.026950 0.464882 0.076320
H34   H     H_    0.505924 0.148453 0.283983 0.158887
H35   H     H_    0.407485 0.248952 0.779788 0.087314
H36   H     H_    0.763719 0.298876 0.362203 -0.027191
H37   H     H_    0.553515 0.288373 0.390514 0.051168
H38   H     H_    0.434004 0.719853 0.661309 -0.013023
H39   H     H_    0.637911 0.715789 0.621079 -0.014902
H40   H     H_    0.731469 0.845036 0.734864 0.114323
H41   H     H_    0.593945 0.869527 0.675048 0.049407
H42   H     H_    0.253679 0.361883 0.301597 0.007908
N1    N     N_R   0.608699 0.424383 0.025331 -0.168074
N2    N     N_R   0.658473 0.420408 0.956057 -0.157450
N3    N     N_R   0.530471 0.543277 0.963582 -0.209367
N4    N     N_R   0.478811 0.546877 0.032872 -0.202062
O1    O     O_2   0.390320 0.549400 0.679900 -0.463214
O2    O     O_2   0.856931 0.813674 0.494785 -0.406038
O3    O     O_3   0.670301 0.802605 0.382145 -0.631078
O4    O     O_3   0.642260 0.547940 0.592270 -0.496978
O5    O     O_3   0.028790 0.393910 0.445720 -0.486309
O6    O     O_2   0.943420 0.714940 0.571590 -0.461200
O7    O     O_3   0.089483 0.730420 0.699404 -0.620902
O8    O     O_2   0.953430 0.554753 0.253952 -0.407821
O9    O     O_3   0.126018 0.707266 0.286953 -0.634834
O10   O     O_3   0.101430 0.389200 0.608960 -0.503295
O11   O     O_2   0.185064 0.480216 0.750580 -0.457184
O12   O     O_3   0.082352 0.263419 0.311234 -0.649075
O13   O     O_3   0.601763 0.687975 0.720516 -0.616571
O14   O     O_3   0.140052 0.309525 0.718463 -0.555488
O15   O     O_2   0.246270 0.285030 0.428370 -0.452289
O16   O     O_3   0.502600 0.343750 0.565720 -0.489271
O17   O     O_2   0.353322 0.186152 0.491997 -0.494909
O18   O     O_3   0.448557 0.205106 0.627791 -0.586979
O19   O     O_2   0.799370 0.450570 0.320050 -0.470993
O20   O     O_3   0.547420 0.451990 0.407710 -0.442155
O21   O     O_3   0.088250 0.610730 0.391020 -0.385067
O22   O     O_3   0.598877 0.310284 0.288559 -0.589151
O23   O     O_3   0.160890 0.606020 0.554260 -0.451434
O24   O     O_3   0.687070 0.656180 0.434260 -0.428234
P1    P     P_3+3 0.571100 0.575270 0.673500 1.007384
P2    P     P_3+3 0.077880 0.297790 0.409490 1.009225
P3    P     P_3+3 0.497735 0.230163 0.545054 0.951625
P4    P     P_3+3 0.618570 0.424660 0.326480 1.084568
P5    P     P_3+3 0.688103 0.771320 0.462521 1.046460
P6    P     P_3+3 0.071124 0.400799 0.703813 1.009628
P7    P     P_3+3 0.114646 0.712804 0.603054 1.007899
P8    P     P_3+3 0.111415 0.602358 0.295388 1.085880

loop_
_geom_bond_atom_site_label_1
_geom_bond_atom_site_label_2
_ccdc_geom_bond_type
C1    H13   S    
Br1   C37   S    
N3    N4    A    
O17   P3    D    
O11   P6    D    
C40   H15   S    
C22   P5    S    
C36   C37   S    
C43   H20   S    
C14   C15   A    
Ba1   P2    S    
O19   P4    D    
C4    C16   S    
C7    C44   D    
C2    C3    S    
C10   H25   S    
C7    P1    S    
Br2   C41   S    
C40   C41   S    
C18   H30   S    
C37   H40   S    
C31   C32   A    
Ba1   O23   S    
O5    P2    S    
Ba1   Ba2   S    
Ba1   O10   S    
C22   C24   S    
O23   P7    S    
C10   C11   A    
Ba2   O5    S    
O13   P1    S    
O3    P5    S    
C29   C30   A    
C18   C21   S    
C43   H22   S    
Ba1   O20   S    
C38   H2    S    
C12   H5    S    
C26   C27   D    
O2    P5    D    
C20   H28   S    
C19   C33   A    
C38   H42   S    
C18   C22   D    
C14   H26   S    
O1    P1    D    
Ba1   O1    S    
C41   H16   S    
Ba1   O4    S    
C42   Cl4   S    
C32   P2    S    
C38   O12   S    
C34   H9    S    
C43   H19   S    
C36   O13   S    
C40   O3    S    
Ba2   O20   S    
C10   C15   A    
C28   C35   S    
O21   P8    S    
O7    P7    S    
O18   P3    S    
C33   P3    S    
C30   C33   A    
C2    C44   S    
C17   Cl5   S    
C5    C9    S    
C28   H36   S    
C13   C14   A    
C9    N3    A    
C4    H21   S    
C40   Cl3   S    
C20   C21   D    
Ba2   O21   S    
O4    P1    S    
Ba2   O4    S    
C8    N1    A    
C38   C39   S    
C27   C30   S    
C24   C25   S    
C28   O22   S    
O12   P2    S    
C42   C43   S    
O14   P6    S    
C19   C32   A    
C35   H23   S    
O22   P4    S    
Ba1   O15   S    
O10   P6    S    
C19   H32   S    
C2    P6    S    
Ba1   O5    S    
C23   H8    S    
C39   Cl2   S    
C27   H33   S    
C31   H29   S    
C34   H10   S    
C37   H41   S    
Br3   C3    S    
Ba2   O24   S    
C11   P4    S    
C16   H35   S    
Ba2   O19   S    
C39   Cl1   S    
C20   C25   S    
C1    C12   S    
C11   C17   A    
C8    C15   S    
C13   C17   A    
C34   H11   S    
C1    H3    S    
Ba1   P1    S    
C42   H18   S    
C28   H37   S    
C16   Cl7   S    
C6    C7    D    
O9    P8    S    
C9    N2    A    
C6    H24   S    
C23   O7    S    
C36   H38   S    
C23   C34   S    
N1    N2    A    
C16   H14   S    
C35   H34   S    
C1    H6    S    
O6    P7    D    
C24   C26   S    
O16   P3    S    
C4    H31   S    
C44   H27   S    
C36   H39   S    
O24   P5    S    
C39   H4    S    
C42   O9    S    
Ba2   O6    S    
Ba2   P4    S    
C13   P8    S    
C29   C31   A    
Ba1   O16   S    
O15   P2    D    
O8    P8    D    
C5    C6    S    
Ba2   O23   S    
C3    C5    D    
C35   H12   S    
C21   P7    S    
C4    O18   S    
C23   H7    S    
C26   Cl6   S    
C8    N4    A    
O20   P4    S    
C41   H17   S    
C12   O14   S    
C12   H1    S    
