data_mof_unit_pretest_1216.cif
_audit_creation_date              2013-03-05T16:42:34-0500
_audit_creation_method            fapswitch 2.2
_symmetry_space_group_name_H-M    P1
_symmetry_Int_Tables_number       1
_space_group_crystal_system       triclinic
_cell_length_a                    11.503289
_cell_length_b                    10.700218
_cell_length_c                    9.962219
_cell_angle_alpha                 90.292357
_cell_angle_beta                  90.173542
_cell_angle_gamma                 90.481511
_cell_volume                      1226.1615739

loop_
_atom_site_label
_atom_site_type_symbol
_atom_site_description
_atom_site_fract_x
_atom_site_fract_y
_atom_site_fract_z
_atom_type_partial_charge
O1    O     O_R   0.500010 0.316790 0.614690 -0.621166
O2    O     O_R   0.500000 0.316760 0.385350 -0.624053
C1    C     C_R   0.499133 0.260114 0.499807 0.915746
O3    O     O_R   0.334450 0.500030 0.614670 -0.614471
O4    O     O_R   0.334440 0.500000 0.385330 -0.590027
C2    C     C_R   0.282231 0.500092 0.499785 0.871501
Zn1   Zn    Zn3+2 0.500010 0.500020 0.653130 0.997665
Zn2   Zn    Zn3+2 0.499990 0.499980 0.346870 0.981560
O5    O     O_R   0.500000 0.683240 0.614650 -0.600110
O6    O     O_R   0.499990 0.683210 0.385310 -0.586480
O7    O     O_R   0.665560 0.500000 0.614670 -0.582827
O8    O     O_R   0.665550 0.499970 0.385330 -0.591193
C3    C     C_R   0.492417 0.739395 0.500006 0.862481
C4    C     C_R   0.717775 0.500287 0.500066 0.923882
C5    C     C_1   0.161711 0.500132 0.499317 -0.170652
C6    C     C_1   0.059392 0.500210 0.499199 0.010334
C7    C     C_1   0.940655 0.500386 0.499443 0.000875
C8    C     C_1   0.838326 0.500458 0.499853 -0.174647
C9    C     C_R   0.487831 0.063425 0.620180 -0.034648
C10   C     C_R   0.484055 0.128104 0.499864 -0.063704
C11   C     C_R   0.453423 0.065013 0.381543 -0.268907
H1    H     H_    0.442701 0.114899 0.288712 0.172009
C12   C     C_R   0.443022 0.935585 0.380677 0.195052
C13   C     C_R   0.468810 0.870391 0.500465 -0.134817
C14   C     C_R   0.476470 0.936161 0.621406 0.014259
C15   C     C_3   0.558424 0.923152 0.737790 0.096338
C16   C     C_3   0.575982 0.064137 0.731686 0.058210
H2    H     H_    0.637144 0.866816 0.715783 0.135575
H3    H     H_    0.548360 0.115335 0.823306 0.129202
C17   C     C_R   0.398509 0.497291 0.069609 -0.010058
N1    N     N_R   0.499240 0.499140 0.142800 -0.135445
C18   C     C_R   0.599277 0.525062 0.073069 0.217592
C19   C     C_R   0.600645 0.519019 0.929063 0.248156
N2    N     N_R   0.499240 0.499180 0.857150 -0.119628
C20   C     C_R   0.398436 0.497490 0.929117 0.059888
C21   C     C_3   0.296752 0.408573 0.920989 -0.110136
C22   C     C_3   0.295955 0.409382 0.076563 0.358519
H4    H     H_    0.219829 0.452852 0.873328 0.165093
N3    N     N_2   0.326810 0.287365 0.864707 -0.278416
H5    H     H_    0.413259 0.270199 0.846847 0.249896
C23   C     C_3   0.245594 0.232191 0.770104 -0.683991
H6    H     H_    0.265177 0.131450 0.757452 0.258449
H7    H     H_    0.253340 0.278384 0.671229 0.233842
H8    H     H_    0.155024 0.240655 0.807273 0.232162
N4    N     N_2   0.196386 0.472428 0.137367 -0.264107
H9    H     H_    0.195518 0.567783 0.122106 0.210049
C24   C     C_3   0.081443 0.417651 0.121796 -0.777021
H10   H     H_    0.014556 0.488519 0.146257 0.225826
H11   H     H_    0.069107 0.339976 0.193466 0.265190
H12   H     H_    0.066336 0.384971 0.017226 0.227273
N5    N     N_2   0.327050 0.291762 0.141259 -0.248239
H13   H     H_    0.411814 0.264804 0.124711 0.210594
C25   C     C_3   0.245781 0.187380 0.135311 -0.705661
H14   H     H_    0.293182 0.098955 0.116765 0.238167
H15   H     H_    0.181660 0.197335 0.052896 0.261886
H16   H     H_    0.200229 0.178922 0.232915 0.232410
N6    N     N_2   0.415528 0.872938 0.257938 -0.272486
H17   H     H_    0.439578 0.921285 0.172971 0.268960
C26   C     C_3   0.297361 0.826258 0.249823 -0.684370
H18   H     H_    0.235110 0.905027 0.254133 0.219128
H19   H     H_    0.278919 0.760665 0.333295 0.233614
H20   H     H_    0.284853 0.775435 0.153391 0.246230
N7    N     N_R   0.497454 0.883848 0.859468 0.214218
O9    O     O_R   0.398403 0.932976 0.892964 -0.438921
O10   O     O_R   0.542781 0.799113 0.935891 -0.450930
N8    N     N_R   0.692921 0.098848 0.686493 0.211637
O11   O     O_R   0.735797 0.052888 0.576095 -0.410445
O12   O     O_R   0.757794 0.170578 0.761669 -0.417701
N9    N     N_2   0.700666 0.562106 0.144811 -0.275340
H21   H     H_    0.775147 0.513472 0.123806 0.213468
C27   C     C_3   0.718573 0.695451 0.159206 -0.633108
H22   H     H_    0.784990 0.713527 0.238204 0.215428
H23   H     H_    0.636869 0.742195 0.189377 0.281952
H24   H     H_    0.750142 0.736192 0.063754 0.222779
N10   N     N_2   0.706483 0.540725 0.859881 -0.264775
H25   H     H_    0.735159 0.632179 0.859111 0.233207
C28   C     C_3   0.796935 0.447891 0.873624 -0.717113
H26   H     H_    0.874345 0.489873 0.923808 0.198159
H27   H     H_    0.824337 0.415288 0.773030 0.288494
H28   H     H_    0.766799 0.365548 0.932060 0.248641

loop_
_geom_bond_atom_site_label_1
_geom_bond_atom_site_label_2
_geom_bond_distance
_ccdc_geom_bond_type
N8    O12   1.299223 A    
N7    O10   1.298523 A    
C16   H3    1.110743 S    
C23   H6    1.109714 S    
C4    C8    1.386723 S    
C9    C10   1.387875 A    
N10   H25   1.030121 S    
C24   H11   1.106976 S    
C28   H26   1.110392 S    
Zn1   O7    1.943668 S    
C15   C16   1.521897 S    
C17   C20   1.399619 A    
C21   C22   1.549897 S    
O4    C2    1.290331 A    
C22   N5    1.463470 S    
O7    C4    1.291682 A    
C28   H28   1.112082 S    
C5    C6    1.177009 T    
Zn1   O5    1.999542 S    
N2    C20   1.365206 A    
N4    C24   1.449381 S    
N9    C27   1.446247 S    
O5    C3    1.296281 A    
C2    C5    1.386378 S    
C19   N10   1.418864 S    
C24   H10   1.111513 S    
C6    C7    1.365885 S    
C12   C13   1.417231 A    
C9    C16   1.501754 S    
C28   H27   1.107039 S    
N8    O11   1.302516 A    
C26   H18   1.111290 S    
C11   H1    1.077434 S    
C23   H7    1.107812 S    
O3    Zn1   1.941506 S    
C19   N2    1.381390 A    
C24   H12   1.109902 S    
C25   H15   1.108168 S    
C26   H19   1.110687 S    
N5    H13   1.032650 S    
C13   C14   1.394397 A    
O3    C2    1.290960 A    
N3    H5    1.028650 S    
C27   H23   1.109935 S    
C14   C15   1.499890 S    
C25   H14   1.110943 S    
C17   C22   1.504609 S    
N5    C25   1.451344 S    
C20   C21   1.503298 S    
C15   N7    1.464086 S    
C27   H24   1.108966 S    
N1    C18   1.373019 A    
Zn2   O8    1.941507 S    
C7    C8    1.177150 T    
C1    C10   1.421707 S    
N10   C28   1.451212 S    
O8    C4    1.289655 A    
C11   C12   1.389042 A    
C3    C13   1.429978 S    
Zn1   N2    2.032603 S    
C22   N4    1.465229 S    
C25   H16   1.109691 S    
C12   N6    1.424859 S    
C26   H20   1.109895 S    
O1    Zn1   1.995731 S    
Zn2   N1    2.032956 S    
C21   N3    1.455107 S    
O2    Zn2   1.999540 S    
O6    C3    1.291930 A    
O4    Zn2   1.943668 S    
C18   N9    1.418616 S    
C15   H2    1.113758 S    
C18   C19   1.435892 A    
C21   H4    1.113424 S    
O2    C1    1.294092 A    
C27   H22   1.110310 S    
C16   N8    1.465309 S    
N6    H17   1.031572 S    
C17   N1    1.367141 A    
C23   H8    1.111021 S    
N9    H21   1.027685 S    
C9    C14   1.367036 A    
N6    C26   1.446124 S    
N7    O9    1.302514 A    
N4    H9    1.032474 S    
C10   C11   1.398107 A    
N3    C23   1.445439 S    
Zn2   O6    1.995731 S    
O1    C1    1.292463 A    
