data_mof_unit_pretest_1895.cif
_audit_creation_date              2012-12-10T21:32:48-0500
_audit_creation_method            fapswitch 2.2
_symmetry_space_group_name_H-M    P1
_symmetry_Int_Tables_number       1
_space_group_crystal_system       triclinic
_cell_length_a                    11.553025
_cell_length_b                    16.122446
_cell_length_c                    16.852422
_cell_angle_alpha                 86.862811
_cell_angle_beta                  90.159088
_cell_angle_gamma                 92.236206
_cell_volume                      3131.89130784

loop_
_atom_site_label
_atom_site_type_symbol
_atom_type_description
_atom_site_fract_x
_atom_site_fract_y
_atom_site_fract_z
_atom_type_partial_charge
C1    C     C_R   0.495824 0.488288 0.652604 0.895274
C2    C     C_R   0.504177 0.511711 0.347396 0.895270
C3    C     C_R   0.553849 0.418098 0.777866 -0.238746
C4    C     C_R   0.446175 0.581910 0.222132 -0.238743
C5    C     C_R   0.456385 0.762392 0.452811 -0.025733
C6    C     C_R   0.543624 0.237609 0.547185 -0.025729
C7    C     C_R   0.462011 0.849805 0.450084 0.078685
C8    C     C_R   0.537999 0.150196 0.549912 0.078686
C9    C     C_R   0.527034 0.891224 0.508726 0.284570
C10   C     C_R   0.472967 0.108776 0.491275 0.284570
C11   C     C_R   0.585829 0.842263 0.566063 -0.288001
C12   C     C_R   0.414162 0.157736 0.433943 -0.287999
C13   C     C_R   0.577874 0.755211 0.565900 0.016761
C14   C     C_R   0.422117 0.244788 0.434105 0.016763
C15   C     C_R   0.718247 0.499775 0.499997 0.913739
C16   C     C_R   0.281753 0.500225 0.500002 0.913743
C17   C     C_1   0.838592 0.499428 0.499949 -0.154774
C18   C     C_1   0.161408 0.500572 0.500051 -0.154773
C19   C     C_1   0.940702 0.499702 0.499968 0.028061
C20   C     C_1   0.059298 0.500298 0.500032 0.028062
C21   C     C_R   0.488901 0.479050 0.738048 -0.084013
C22   C     C_R   0.511108 0.520950 0.261952 -0.084020
C23   C     C_R   0.419550 0.530885 0.780643 0.122607
C24   C     C_R   0.580452 0.469108 0.219359 0.122612
C25   C     C_R   0.422688 0.524837 0.862865 -0.172681
C26   C     C_R   0.577321 0.475159 0.137136 -0.172683
C27   C     C_R   0.494948 0.467894 0.902805 0.285243
C28   C     C_R   0.505074 0.532109 0.097194 0.285241
C29   C     C_R   0.556495 0.412527 0.860203 -0.162678
C30   C     C_R   0.443536 0.587482 0.139794 -0.162680
H1    H     H_    0.630038 0.434622 0.104504 0.175230
H2    H     H_    0.369966 0.565369 0.895500 0.175229
H3    H     H_    0.610330 0.367491 0.890859 0.161949
H4    H     H_    0.389712 0.632524 0.109136 0.161949
H5    H     H_    0.605818 0.376991 0.745240 0.170429
H6    H     H_    0.394212 0.623022 0.254755 0.170433
H7    H     H_    0.592003 0.269639 0.592113 0.155016
H8    H     H_    0.408013 0.730362 0.407879 0.155016
H9    H     H_    0.638298 0.871636 0.610741 0.190600
H10   H     H_    0.361686 0.128363 0.389268 0.190599
H11   H     H_    0.624157 0.718239 0.610100 0.152619
H12   H     H_    0.375827 0.281760 0.389909 0.152617
N1    N     N_2   0.509915 0.466233 0.985645 -0.182918
N2    N     N_2   0.490109 0.533771 0.014353 -0.182916
N3    N     N_R   0.513820 0.716920 0.509720 -0.102862
N4    N     N_R   0.486180 0.283080 0.490280 -0.102862
N5    N     N_2   0.543583 0.979856 0.509366 -0.120339
N6    N     N_2   0.456419 0.020144 0.490635 -0.120343
O1    O     O_R   0.495050 0.422540 0.612660 -0.627220
O2    O     O_R   0.504950 0.577460 0.387340 -0.627224
O3    O     O_R   0.503930 0.561840 0.618900 -0.597251
O4    O     O_R   0.496070 0.438160 0.381100 -0.597247
O5    O     O_R   0.661110 0.430350 0.496870 -0.598748
O6    O     O_R   0.338890 0.569650 0.503130 -0.598745
O7    O     O_R   0.669990 0.569650 0.503110 -0.613455
O8    O     O_R   0.330010 0.430350 0.496890 -0.613457
Zn1   Zn    Zn3+2 0.494070 0.406980 0.495830 0.982746
Zn2   Zn    Zn3+2 0.505930 0.593020 0.504170 0.982745
I1    I     I_    0.695558 0.383021 0.273664 -0.317648
I2    I     I_    0.304424 0.616960 0.726340 -0.317656
I3    I     I_    0.619343 0.089044 0.648819 -0.326462
I4    I     I_    0.380683 0.910959 0.351172 -0.326460

loop_
_geom_bond_atom_site_label_1
_geom_bond_atom_site_label_2
_ccdc_geom_bond_type
C2    C22   S    
C11   H9    S    
N1    N2    D    
C16   O8    A    
C7    I4    S    
C1    C21   S    
C29   H3    S    
C25   C27   A    
C4    C22   A    
C26   C28   A    
C19   C20   S    
C3    H5    S    
C8    I3    S    
C14   H12   S    
C25   H2    S    
C4    H6    S    
C6    H7    S    
C5    C7    A    
C26   H1    S    
C14   N4    A    
O3    Zn2   S    
C5    N3    A    
C5    H8    S    
C15   O7    A    
C13   N3    A    
C1    O3    A    
C3    C29   A    
C2    O4    A    
C24   I1    S    
C10   C12   A    
C13   H11   S    
C17   C19   T    
C12   C14   A    
C9    N5    S    
C16   O6    A    
C9    C11   A    
N4    Zn1   S    
C10   N6    S    
C23   I2    S    
C22   C24   A    
N3    Zn2   S    
C3    C21   A    
C27   C29   A    
O4    Zn1   S    
C30   H4    S    
C15   O5    A    
C27   N1    S    
C11   C13   A    
C23   C25   A    
O1    Zn1   S    
O8    Zn1   S    
C18   C20   T    
C8    C10   A    
O6    Zn2   S    
O7    Zn2   S    
C2    O2    A    
C7    C9    A    
O5    Zn1   S    
C6    C8    A    
C12   H10   S    
C6    N4    A    
C15   C17   S    
C1    O1    A    
C21   C23   A    
C28   N2    S    
C16   C18   S    
C4    C30   A    
N5    N6    D    
C24   C26   A    
C28   C30   A    
O2    Zn2   S    
