data_mof_unit_pretest_1264.cif
_audit_creation_date              2012-12-10T19:07:36-0500
_audit_creation_method            fapswitch 2.2
_symmetry_space_group_name_H-M    P1
_symmetry_Int_Tables_number       1
_space_group_crystal_system       triclinic
_cell_length_a                    10.862155
_cell_length_b                    10.855934
_cell_length_c                    9.559685
_cell_angle_alpha                 90.613418
_cell_angle_beta                  91.266286
_cell_angle_gamma                 90.639776
_cell_volume                      1126.85375475

loop_
_atom_site_label
_atom_site_type_symbol
_atom_type_description
_atom_site_fract_x
_atom_site_fract_y
_atom_site_fract_z
_atom_type_partial_charge
C1    C     C_R   0.502101 0.262460 0.499354 0.797504
C2    C     C_R   0.939697 0.432141 0.601617 0.125849
C3    C     C_3   0.945694 0.446410 0.757289 -0.484191
C4    C     C_3   0.083972 0.435649 0.751346 -0.471224
C5    C     C_R   0.527469 0.066170 0.623432 0.078993
C6    C     C_R   0.514507 0.129708 0.498161 -0.110873
C7    C     C_R   0.519497 0.063107 0.371689 -0.198741
C8    C     C_R   0.519502 0.934574 0.373043 -0.198806
C9    C     C_R   0.515111 0.871250 0.500898 -0.113400
C10   C     C_R   0.529744 0.939129 0.625739 0.067539
C11   C     C_3   0.461065 0.935396 0.760344 -0.262197
C12   C     C_R   0.262707 0.497637 0.498329 0.795430
C13   C     C_3   0.457705 0.076763 0.755503 -0.277203
C14   C     C_R   0.574318 0.579631 0.076532 0.293756
C15   C     C_R   0.417846 0.430350 0.071514 -0.063452
C16   C     C_R   0.417550 0.430711 0.922664 -0.062045
C17   C     C_R   0.574427 0.579060 0.929030 0.288568
C18   C     C_3   0.710437 0.579602 0.927394 -0.506366
C19   C     C_3   0.711172 0.583271 0.085064 -0.500945
C20   C     C_R   0.502604 0.737802 0.500679 0.798843
C21   C     C_R   0.738029 0.500310 0.501127 0.796897
C22   C     C_R   0.066675 0.427402 0.596881 0.118489
C23   C     C_R   0.130025 0.488293 0.492606 -0.089521
C24   C     C_R   0.063069 0.539392 0.380815 -0.213331
C25   C     C_R   0.934959 0.543978 0.385216 -0.213621
C26   C     C_R   0.872093 0.496346 0.500253 -0.093701
Cu1   Cu    Cu3+1 0.499990 0.499980 0.640670 0.947656
Cu2   Cu    Cu3+1 0.500010 0.500020 0.359330 0.949528
H1    H     H_    0.109631 0.582860 0.294932 0.161413
H2    H     H_    0.363724 0.114300 0.738964 0.132514
H3    H     H_    0.353530 0.371487 0.124934 0.137249
H4    H     H_    0.353177 0.371890 0.864683 0.129875
H5    H     H_    0.742166 0.490095 0.886694 0.219941
H6    H     H_    0.749280 0.663770 0.879141 0.208601
H7    H     H_    0.751138 0.498610 0.130948 0.223667
H8    H     H_    0.746849 0.671918 0.129834 0.202209
H9    H     H_    0.886119 0.590851 0.302424 0.154869
H10   H     H_    0.919538 0.540358 0.791227 0.205185
H11   H     H_    0.901723 0.367795 0.811443 0.204844
H12   H     H_    0.133639 0.520726 0.787457 0.212502
H13   H     H_    0.119177 0.348403 0.796071 0.186481
H14   H     H_    0.516797 0.109427 0.271882 0.181648
H15   H     H_    0.516642 0.885429 0.273809 0.183623
H16   H     H_    0.368948 0.890221 0.749219 0.141839
N1    N     N_R   0.500790 0.500930 0.147930 -0.194103
N2    N     N_R   0.500790 0.500890 0.852020 -0.194596
O1    O     O_R   0.500000 0.319640 0.618810 -0.579874
O2    O     O_R   0.500010 0.319680 0.381230 -0.580180
O3    O     O_R   0.319650 0.499970 0.618810 -0.590241
O4    O     O_R   0.319660 0.500010 0.381230 -0.589194
O5    O     O_R   0.499990 0.680320 0.618770 -0.580063
O6    O     O_R   0.500000 0.680360 0.381190 -0.584130
O7    O     O_R   0.680340 0.499990 0.618770 -0.580212
O8    O     O_R   0.680350 0.500030 0.381190 -0.584887
C27   C     C_1   0.536810 0.887161 0.876749 0.295918
N3    N     N_1   0.596710 0.853269 0.969786 -0.338502
C28   C     C_1   0.530897 0.143943 0.864555 0.315178
N4    N     N_1   0.588875 0.195856 0.949918 -0.301011

loop_
_geom_bond_atom_site_label_1
_geom_bond_atom_site_label_2
_ccdc_geom_bond_type
C2    C22   A    
C12   O4    A    
C23   C24   A    
Cu1   O7    S    
C1    O2    A    
C15   H3    S    
C6    C7    A    
C16   H4    S    
Cu2   O6    S    
C9    C10   A    
C9    C20   S    
C5    C13   S    
C14   C17   A    
C8    H15   S    
C27   N3    T    
C4    H12   S    
C25   H9    S    
C17   C18   S    
C3    H11   S    
C7    C8    A    
C2    C26   A    
C19   H7    S    
C24   C25   A    
C21   O7    A    
C11   C13   S    
C12   C23   S    
C28   N4    T    
C21   O8    A    
Cu1   N2    S    
C21   C26   S    
Cu1   O5    S    
C2    C3    S    
C20   O5    A    
C19   H8    S    
C18   H6    S    
C5    C6    A    
C18   H5    S    
Cu2   N1    S    
C12   O3    A    
C13   C28   S    
C4    H13   S    
C15   N1    A    
Cu1   O1    S    
C15   C16   A    
C11   H16   S    
C13   H2    S    
C5    C10   A    
C11   C27   S    
C17   N2    A    
C20   O6    A    
C18   C19   S    
C10   C11   S    
C7    H14   S    
C16   N2    A    
Cu1   Cu2   S    
C4    C22   S    
C24   H1    S    
C1    O1    A    
Cu2   O8    S    
C1    C6    S    
C14   N1    A    
C25   C26   A    
C22   C23   A    
Cu2   O4    S    
C14   C19   S    
Cu2   O2    S    
C3    C4    S    
Cu1   O3    S    
C3    H10   S    
C8    C9    A    
