data_mof_unit_pretest_15.cif
_audit_creation_date              2012-12-11T14:23:10-0500
_audit_creation_method            fapswitch 2.2
_symmetry_space_group_name_H-M    P1
_symmetry_Int_Tables_number       1
_space_group_crystal_system       triclinic
_cell_length_a                    11.122458
_cell_length_b                    11.104663
_cell_length_c                    18.701856
_cell_angle_alpha                 90.424953
_cell_angle_beta                  89.942799
_cell_angle_gamma                 60.210016
_cell_volume                      2004.55706878

loop_
_atom_site_label
_atom_site_type_symbol
_atom_type_description
_atom_site_fract_x
_atom_site_fract_y
_atom_site_fract_z
_atom_type_partial_charge
C1    C     C_R   0.233806 0.647406 0.608733 0.519807
C2    C     C_R   0.542058 0.219153 0.727580 0.011261
C3    C     C_R   0.554534 0.232927 0.800261 -0.127393
C4    C     C_R   0.631368 0.593035 0.608671 0.548992
C5    C     C_R   0.921404 0.138403 0.817709 -0.064862
C6    C     C_R   0.037334 0.103177 0.775220 -0.005624
C7    C     C_R   0.026830 0.096984 0.701127 -0.173001
C8    C     C_R   0.904525 0.118256 0.669928 -0.105466
C9    C     C_R   0.654842 0.190887 0.680807 -0.015027
C10   C     C_R   0.180436 0.659835 0.833883 -0.014877
C11   C     C_R   0.168710 0.556727 0.793583 0.004390
C12   C     C_3   0.719404 0.514479 0.805214 -0.245224
C13   C     C_R   0.159574 0.566288 0.717764 0.014289
C14   C     C_R   0.196750 0.762365 0.724644 -0.154395
C15   C     C_R   0.204194 0.754039 0.797965 -0.164349
C16   C     C_R   0.624532 0.233300 0.604792 0.523833
C17   C     C_R   0.156404 0.449790 0.826577 -0.066834
C18   C     C_R   0.103904 0.378645 0.789103 -0.066272
C19   C     C_R   0.088665 0.391272 0.715475 -0.138116
C20   C     C_R   0.119652 0.482003 0.679492 -0.141138
C21   C     C_R   0.183666 0.664827 0.683139 0.005870
C22   C     C_R   0.645362 0.665809 0.166331 -0.015907
C23   C     C_3   0.688959 0.665200 0.816576 0.036615
C24   C     C_R   0.737323 0.544699 0.202754 0.041576
C25   C     C_R   0.763064 0.557091 0.274936 0.043923
C26   C     C_R   0.544146 0.769648 0.281977 -0.144242
C27   C     C_R   0.545172 0.778650 0.206998 -0.148382
C28   C     C_R   0.217056 0.650346 0.403275 0.542137
C29   C     C_R   0.821149 0.418445 0.166828 -0.076018
C30   C     C_R   0.946887 0.323377 0.195973 -0.131765
C31   C     C_R   0.984557 0.350181 0.262676 -0.150275
C32   C     C_R   0.894165 0.465266 0.302155 -0.084150
C33   C     C_R   0.656169 0.659007 0.317263 -0.012260
C34   C     C_3   0.649715 0.625499 0.683106 0.055118
C35   C     C_R   0.650146 0.172430 0.174348 -0.013716
C36   C     C_R   0.536738 0.186872 0.213186 0.039652
C37   C     C_R   0.555734 0.150329 0.285376 0.042520
C38   C     C_R   0.758491 0.175807 0.285805 -0.142281
C39   C     C_R   0.762426 0.166247 0.211780 -0.139364
C40   C     C_R   0.642434 0.623643 0.392062 0.545946
C41   C     C_R   0.409475 0.225029 0.181233 -0.080404
C42   C     C_R   0.315644 0.199561 0.216245 -0.144335
C43   C     C_R   0.347756 0.135999 0.283361 -0.147005
C44   C     C_R   0.467606 0.110511 0.317659 -0.080430
C45   C     C_3   0.764906 0.663929 0.688174 -0.203952
C46   C     C_R   0.654918 0.166513 0.323792 -0.012797
C47   C     C_R   0.143654 0.674829 0.186998 -0.010498
C48   C     C_R   0.151540 0.777691 0.227884 0.046025
C49   C     C_R   0.111251 0.794176 0.299495 0.038638
C50   C     C_R   0.147177 0.561698 0.297817 -0.145338
C51   C     C_R   0.138192 0.567182 0.223172 -0.145488
C52   C     C_R   0.618881 0.226536 0.395744 0.543400
C53   C     C_R   0.193203 0.867727 0.199625 -0.078925
C54   C     C_R   0.166452 0.985837 0.237244 -0.144396
C55   C     C_R   0.101259 0.015195 0.303920 -0.132083
C56   C     C_3   0.694323 0.491999 0.727018 -0.261409
C57   C     C_R   0.071027 0.920643 0.334667 -0.078131
C58   C     C_R   0.139277 0.674958 0.336515 -0.015211
C59   C     C_R   0.700989 0.107207 0.898422 0.531053
C60   C     C_R   0.720449 0.685279 0.890435 0.535278
C61   C     C_R   0.118891 0.703997 0.905952 0.533799
C62   C     C_R   0.674814 0.110021 0.102951 0.528574
C63   C     C_R   0.693107 0.688764 0.096279 0.534126
C64   C     C_3   0.535954 0.765280 0.796837 -0.219770
C65   C     C_R   0.093271 0.709275 0.113215 0.534296
C66   C     C_3   0.513429 0.744118 0.717243 -0.085546
C67   C     C_R   0.683346 0.181566 0.830867 -0.044311
C68   C     C_3   0.780670 0.697375 0.766241 -0.220519
C69   C     C_2   0.416044 0.213689 0.707292 0.295400
C70   C     C_2   0.172166 0.064625 0.808181 0.178951
C71   C     C_2   0.451775 0.879857 0.677052 0.261714
C72   C     C_R   0.796909 0.158533 0.787491 -0.009374
C73   C     C_R   0.784989 0.156572 0.711823 -0.001446
Cr1   Cr    Cr6+3 0.392940 0.397950 0.502230 0.999665
Cr2   Cr    Cr6+3 0.398400 0.708500 0.501260 1.011846
Cr3   Cr    Cr6+3 0.708640 0.393530 0.496460 0.992291
Cr4   Cr    Cr6+3 0.937880 0.938320 0.007620 1.032032
Cr5   Cr    Cr6+3 0.625560 0.937220 0.994510 1.048567
Cr6   Cr    Cr6+3 0.938080 0.625010 0.001190 1.008836
H1    H     H_    0.509001 0.874739 0.807351 0.198672
H2    H     H_    0.466923 0.744303 0.831205 0.099683
H3    H     H_    0.182414 0.422329 0.881932 0.145765
H4    H     H_    0.222262 0.826045 0.827880 0.167931
H5    H     H_    0.072567 0.316663 0.818470 0.157305
H6    H     H_    0.049965 0.333443 0.686205 0.120834
H7    H     H_    0.100791 0.493020 0.622597 0.131043
H8    H     H_    0.458226 0.849450 0.312236 0.144801
H9    H     H_    0.795135 0.398916 0.113773 0.120774
H10   H     H_    0.470334 0.873526 0.181240 0.144449
H11   H     H_    0.015218 0.232572 0.164942 0.102110
H12   H     H_    0.791281 0.404725 0.704453 0.152431
H13   H     H_    0.082075 0.282887 0.285702 0.102423
H14   H     H_    0.439662 0.705900 0.715014 0.079571
H15   H     H_    0.928428 0.482826 0.353359 0.129369
H16   H     H_    0.834203 0.192814 0.313111 0.153043
H17   H     H_    0.383663 0.271534 0.128732 0.127253
H18   H     H_    0.854305 0.150095 0.184012 0.153331
H19   H     H_    0.221299 0.226627 0.188706 0.103046
H20   H     H_    0.280572 0.108922 0.311304 0.101894
H21   H     H_    0.489018 0.063506 0.370057 0.130695
H22   H     H_    0.165157 0.468243 0.324730 0.141463
H23   H     H_    0.890402 0.638094 0.781972 0.148905
H24   H     H_    0.245687 0.847863 0.148451 0.131886
H25   H     H_    0.129892 0.487276 0.193940 0.146269
H26   H     H_    0.195491 0.053392 0.212851 0.103700
H27   H     H_    0.078608 0.107064 0.334063 0.098456
H28   H     H_    0.027261 0.940716 0.388157 0.118403
H29   H     H_    0.750023 0.809083 0.770950 0.156413
H30   H     H_    0.747272 0.750577 0.652685 0.183596
H31   H     H_    0.828232 0.439118 0.819073 0.142622
H32   H     H_    0.651740 0.493239 0.840673 0.114537
H33   H     H_    0.612731 0.461904 0.724386 0.109438
H34   H     H_    0.861247 0.575850 0.668194 0.129455
H35   H     H_    0.360695 0.251846 0.658101 0.167539
H36   H     H_    0.263187 0.024689 0.775101 0.153331
H37   H     H_    0.346979 0.926801 0.657412 0.094416
H38   H     H_    0.928622 0.154692 0.874133 0.176481
H39   H     H_    0.465756 0.260193 0.834681 0.172835
H40   H     H_    0.114668 0.072238 0.666996 0.090958
H41   H     H_    0.907309 0.099947 0.613041 0.144690
H42   H     H_    0.213906 0.839484 0.700136 0.120240
O1    O     O_R   0.507340 0.255690 0.581430 -0.535324
O2    O     O_R   0.837290 0.593240 0.915240 -0.532496
O3    O     O_R   0.065320 0.635310 0.931580 -0.523785
O4    O     O_R   0.280360 0.527380 0.578910 -0.523507
O5    O     O_R   0.068470 0.828620 0.091850 -0.523235
O6    O     O_R   0.799150 0.057200 0.079350 -0.510614
O7    O     O_R   0.585220 0.080180 0.076770 -0.520707
O8    O     O_R   0.627170 0.809480 0.067050 -0.497566
O9    O     O_R   0.816200 0.596410 0.076500 -0.517980
O10   O     O_R   0.045770 0.638240 0.081070 -0.502578
O11   O     O_3   0.833840 0.833520 0.001110 -0.253877
O12   O     O_R   0.524510 0.695820 0.424050 -0.493486
O13   O     O_R   0.260600 0.739610 0.584580 -0.546413
O14   O     O_R   0.532370 0.695050 0.573830 -0.492986
O15   O     O_R   0.744850 0.503430 0.576380 -0.536128
O16   O     O_R   0.699080 0.276500 0.571950 -0.526490
O17   O     O_R   0.498860 0.256520 0.419860 -0.515328
O18   O     O_R   0.272490 0.528150 0.429140 -0.501983
O19   O     O_R   0.252110 0.740440 0.423010 -0.516055
O20   O     O_2   0.370658 0.161143 0.748369 -0.536087
O21   O     O_2   0.183725 0.072838 0.872750 -0.531084
O22   O     O_2   0.519844 0.935494 0.663820 -0.505916
O23   O     O_R   0.736370 0.504260 0.414810 -0.522495
O24   O     O_R   0.691220 0.277270 0.422180 -0.505541
O25   O     O_3   0.499990 0.499990 0.499980 -0.264051
O26   O     O_R   0.089570 0.825450 0.930590 -0.491651
O27   O     O_R   0.818700 0.054260 0.929860 -0.514114
O28   O     O_R   0.606310 0.077010 0.915520 -0.500908
O29   O     O_R   0.646730 0.806540 0.917560 -0.497786

loop_
_geom_bond_atom_site_label_1
_geom_bond_atom_site_label_2
_ccdc_geom_bond_type
Cr6   O3    S    
C32   H15   S    
C34   C56   S    
C52   O24   A    
C44   H21   S    
C41   C42   A    
C16   O16   A    
C28   O19   A    
C30   H11   S    
Cr5   O7    S    
C34   C66   S    
C12   H31   S    
Cr3   O15   S    
Cr2   O13   S    
C7    C8    A    
C53   C54   A    
C1    C21   S    
Cr1   O17   S    
C12   C23   S    
Cr5   O29   S    
C26   C27   A    
C61   O3    A    
C14   C21   A    
C36   C37   A    
Cr5   O8    S    
C43   H20   S    
C17   H3    S    
C5    C72   A    
Cr2   O19   S    
C42   H19   S    
C30   C31   A    
Cr2   O14   S    
C39   H18   S    
Cr1   O4    S    
C69   O20   D    
C46   C52   S    
C49   C57   A    
C67   C72   A    
C63   O9    A    
Cr5   O11   S    
C24   C29   A    
C29   H9    S    
C16   O1    A    
C59   C67   S    
C22   C63   S    
C56   H12   S    
C19   C20   A    
C26   H8    S    
C20   H7    S    
C38   H16   S    
C52   O17   A    
C2    C69   S    
Cr4   O26   S    
Cr4   O6    S    
C4    O15   A    
C59   O27   A    
C25   C32   A    
Cr3   O25   S    
C14   H42   S    
C53   H24   S    
C64   H1    S    
C36   C41   A    
C23   C60   S    
C28   O18   A    
C9    C73   A    
C65   O10   A    
C50   C51   A    
C59   O28   A    
Cr2   O25   S    
C48   C53   A    
C4    C34   S    
C69   H35   S    
C70   O21   D    
C33   C40   S    
C55   H27   S    
C50   C58   A    
C7    H40   S    
C38   C39   A    
C24   C25   A    
C18   C19   A    
C47   C51   A    
C51   H25   S    
Cr3   O16   S    
Cr6   O9    S    
Cr6   O2    S    
C49   C58   A    
C5    H38   S    
Cr4   O11   S    
C64   C66   S    
C23   C68   S    
C60   O2    A    
C35   C39   A    
C43   C44   A    
C66   C71   S    
C29   C30   A    
C3    H39   S    
C26   C33   A    
C18   H5    S    
C47   C48   A    
Cr6   O10   S    
C45   C68   S    
C17   C18   A    
C13   C21   A    
C34   C45   S    
C60   O29   A    
Cr4   O27   S    
C12   C56   S    
C4    O14   A    
Cr3   O23   S    
C48   C49   A    
Cr1   O1    S    
Cr3   O24   S    
C22   C27   A    
C66   H14   S    
C22   C24   A    
C10   C61   S    
C42   C43   A    
C1    O13   A    
C8    H41   S    
C71   O22   D    
C40   O12   A    
C6    C70   S    
C54   C55   A    
C11   C17   A    
C13   C20   A    
C57   H28   S    
C10   C15   A    
Cr1   O25   S    
C31   C32   A    
C3    C67   A    
C68   H23   S    
C72   C73   A    
C19   H6    S    
C15   H4    S    
Cr2   O12   S    
C6    C7    A    
C28   C58   S    
C70   H36   S    
Cr1   O18   S    
C40   O23   A    
C1    O4    A    
C65   O5    A    
C37   C44   A    
C55   C57   A    
C2    C3    A    
C61   O26   A    
C23   C64   S    
C62   O7    A    
C11   C13   A    
C5    C6    A    
C54   H26   S    
Cr6   O11   S    
C8    C73   A    
C47   C65   S    
C71   H37   S    
C27   H10   S    
C35   C62   S    
C45   H30   S    
C63   O8    A    
C64   H2    S    
C38   C46   A    
C10   C11   A    
C41   H17   S    
C45   H34   S    
C62   O6    A    
C50   H22   S    
C31   H13   S    
C25   C33   A    
C14   C15   A    
C35   C36   A    
C68   H29   S    
C37   C46   A    
C2    C9    A    
C56   H33   S    
C12   H32   S    
Cr4   O5    S    
Cr5   O28   S    
C9    C16   S    
