data_mof_unit_pretest_97.cif
_audit_creation_date              2012-12-11T14:33:46-0500
_audit_creation_method            fapswitch 2.2
_symmetry_space_group_name_H-M    P1
_symmetry_Int_Tables_number       1
_space_group_crystal_system       triclinic
_cell_length_a                    14.097683
_cell_length_b                    14.055335
_cell_length_c                    27.228499
_cell_angle_alpha                 89.775582
_cell_angle_beta                  90.275297
_cell_angle_gamma                 119.736617
_cell_volume                      4684.72501671

loop_
_atom_site_label
_atom_site_type_symbol
_atom_type_description
_atom_site_fract_x
_atom_site_fract_y
_atom_site_fract_z
_atom_type_partial_charge
C1    C     C_R   0.236233 0.786071 0.569548 0.536998
C2    C     C_1   0.686746 0.852213 0.864619 -0.026501
C3    C     C_3   0.837443 0.803976 0.659793 -0.294588
C4    C     C_3   0.145144 0.995484 0.655471 -0.282446
C5    C     C_3   0.967384 0.164958 0.656016 -0.271251
C6    C     C_1   0.145365 0.834246 0.864073 -0.013996
C7    C     C_1   0.159112 0.309197 0.863356 -0.023277
C8    C     C_1   0.603157 0.801816 0.663071 -0.020402
C9    C     C_1   0.193632 0.807540 0.661451 -0.030871
C10   C     C_1   0.200670 0.392181 0.661848 -0.016337
C11   C     C_1   0.583978 0.787499 0.619807 0.012296
C12   C     C_1   0.209224 0.800129 0.618541 0.008873
C13   C     C_1   0.204596 0.412715 0.618833 0.019684
C14   C     C_R   0.106508 0.223912 0.087677 0.584874
C15   C     C_R   0.214715 0.450465 0.569555 0.537864
C16   C     C_R   0.774888 0.881706 0.086920 0.584250
C17   C     C_R   0.116875 0.893691 0.088316 0.582123
C18   C     C_R   0.106966 0.221190 0.951483 0.571639
C19   C     C_R   0.778145 0.886264 0.951825 0.571719
C20   C     C_R   0.113790 0.891934 0.951804 0.574955
C21   C     C_R   0.604776 0.895042 0.358889 0.074209
C22   C     C_R   0.088158 0.724760 0.365553 0.069064
C23   C     C_R   0.284338 0.375341 0.362927 0.073419
C24   C     C_R   0.620275 0.901386 0.307685 -0.005408
C25   C     C_R   0.077046 0.734453 0.314654 -0.009895
C26   C     C_R   0.548403 0.763009 0.569997 0.538440
C27   C     C_R   0.276648 0.353470 0.311928 -0.009306
C28   C     C_R   0.660427 0.919941 0.205041 0.032119
C29   C     C_R   0.066423 0.747271 0.210506 0.036577
C30   C     C_R   0.257184 0.321519 0.208135 0.034277
C31   C     C_R   0.230414 0.788332 0.432725 0.556506
C32   C     C_R   0.212743 0.443876 0.431765 0.556022
C33   C     C_R   0.554528 0.768227 0.431614 0.559884
C34   C     C_R   0.637188 0.995067 0.229238 0.157939
C35   C     C_R   0.991060 0.650527 0.236023 0.155237
C36   C     C_R   0.355632 0.345332 0.232438 0.159306
C37   C     C_3   0.550585 0.730421 0.800859 -0.223296
C38   C     C_R   0.610218 0.979622 0.279282 -0.070577
C39   C     C_R   0.998766 0.645953 0.287240 -0.072596
C40   C     C_R   0.365706 0.366227 0.283505 -0.070137
C41   C     C_R   0.680246 0.924870 0.153552 0.064236
C42   C     C_R   0.065802 0.758681 0.158233 0.071404
C43   C     C_R   0.242845 0.309781 0.156096 0.067887
C44   C     C_R   0.712970 0.854479 0.133106 0.006184
C45   C     C_R   0.139870 0.859443 0.136356 0.003797
C46   C     C_R   0.139436 0.278283 0.135754 0.009997
C47   C     C_R   0.669323 0.764118 0.365263 0.113801
C48   C     C_3   0.278132 0.901198 0.794931 -0.224798
C49   C     C_R   0.229941 0.914799 0.369703 0.105132
C50   C     C_R   0.089320 0.317501 0.365983 0.086524
C51   C     C_R   0.676471 0.761521 0.313932 0.039348
C52   C     C_R   0.226489 0.925198 0.318366 0.031951
C53   C     C_R   0.081110 0.283587 0.317057 0.031241
C54   C     C_R   0.652980 0.832384 0.284984 0.002925
C55   C     C_R   0.149729 0.832561 0.290489 -0.007094
C56   C     C_R   0.175616 0.315041 0.288756 -0.004309
C57   C     C_R   0.703321 0.689214 0.290254 0.097615
C58   C     C_R   0.301848 0.020980 0.293396 0.099341
C59   C     C_3   0.191081 0.452126 0.799088 -0.226643
C60   C     C_R   0.980203 0.217141 0.295092 0.112384
C61   C     C_R   0.711962 0.692221 0.239624 -0.104583
C62   C     C_R   0.299266 0.023808 0.242617 -0.102289
C63   C     C_R   0.970342 0.222638 0.244647 -0.105070
C64   C     C_R   0.693110 0.764040 0.211044 -0.000146
C65   C     C_R   0.225074 0.933557 0.214902 -0.002730
C66   C     C_R   0.064632 0.271704 0.215660 -0.007861
C67   C     C_3   0.612764 0.912903 0.736690 -0.040699
C68   C     C_3   0.129436 0.698717 0.738661 -0.054270
C69   C     C_3   0.293896 0.368995 0.736010 -0.044752
C70   C     C_3   0.537458 0.711077 0.744361 -0.245669
C71   C     C_R   0.668897 0.839120 0.233658 -0.000995
C72   C     C_R   0.145610 0.838156 0.238621 -0.008281
C73   C     C_R   0.166455 0.302613 0.237378 -0.007298
C74   C     C_R   0.700888 0.763329 0.160184 0.072882
C75   C     C_R   0.229417 0.938177 0.163763 0.068550
C76   C     C_R   0.056731 0.276459 0.165226 0.068764
C77   C     C_R   0.615499 0.814199 0.385875 0.007755
C78   C     C_R   0.178431 0.810617 0.390325 0.000003
C79   C     C_R   0.193948 0.374609 0.387620 -0.003054
C80   C     C_3   0.741213 0.835789 0.728368 0.059630
C81   C     C_3   0.292387 0.887044 0.739446 -0.236315
C82   C     C_3   0.104259 0.864786 0.725557 0.067460
C83   C     C_3   0.088049 0.258078 0.726777 0.050910
C84   C     C_3   0.754206 0.830050 0.785025 0.035436
C85   C     C_3   0.082694 0.858379 0.782110 0.019890
C86   C     C_3   0.065193 0.251316 0.782929 0.034118
C87   C     C_1   0.722652 0.867685 0.905777 0.033663
C88   C     C_1   0.131984 0.854674 0.905636 0.040863
C89   C     C_1   0.140710 0.274715 0.904816 0.033394
C90   C     C_3   0.623900 0.815157 0.716264 0.052971
C91   C     C_3   0.179403 0.814954 0.714615 0.061761
C92   C     C_3   0.185704 0.464763 0.742443 -0.245855
C93   C     C_3   0.191813 0.370676 0.714868 0.051562
C94   C     C_3   0.651605 0.934922 0.791064 -0.230238
C95   C     C_3   0.124271 0.706296 0.795612 -0.229501
C96   C     C_3   0.271320 0.329132 0.790281 -0.231087
C97   C     C_3   0.660126 0.836446 0.811985 0.012943
C98   C     C_3   0.157894 0.825023 0.810751 0.026752
C99   C     C_3   0.171397 0.335683 0.810622 0.019278
C100  C     C_3   0.612432 0.159190 0.224340 -0.282301
C101  C     C_3   0.859953 0.450239 0.229229 -0.277829
C102  C     C_3   0.550078 0.393106 0.222796 -0.281451
Cr1   Cr    Cr6+3 0.164410 0.584450 0.499910 1.107506
Cr2   Cr    Cr6+3 0.415550 0.579960 0.499910 1.109611
Cr3   Cr    Cr6+3 0.420040 0.835590 0.499910 1.111130
Cr4   Cr    Cr6+3 0.155170 0.075460 0.019960 1.112988
Cr5   Cr    Cr6+3 0.924540 0.079710 0.019960 1.116283
Cr6   Cr    Cr6+3 0.920290 0.844830 0.019960 1.120798
H1    H     H_    0.732753 0.010402 0.793744 0.185299
H2    H     H_    0.545945 0.657874 0.819570 0.166516
H3    H     H_    0.302377 0.988101 0.802415 0.172358
H4    H     H_    0.130347 0.468133 0.817592 0.166811
H5    H     H_    0.586739 0.033390 0.296497 0.167974
H6    H     H_    0.942691 0.571212 0.305595 0.172147
H7    H     H_    0.442935 0.389841 0.300864 0.181693
H8    H     H_    0.735177 0.637739 0.222913 0.135453
H9    H     H_    0.357457 0.098609 0.225034 0.138257
H10   H     H_    0.891099 0.173491 0.227879 0.142871
H11   H     H_    0.800111 0.921617 0.717234 0.152205
H12   H     H_    0.040721 0.648652 0.809210 0.181087
H13   H     H_    0.024026 0.814009 0.707291 0.171997
H14   H     H_    0.108040 0.192197 0.718750 0.168142
H15   H     H_    0.833529 0.902173 0.795734 0.148218
H16   H     H_    0.997362 0.792610 0.788090 0.177551
H17   H     H_    0.040788 0.167705 0.795192 0.156944
H18   H     H_    0.453447 0.690976 0.733312 0.095431
H19   H     H_    0.342866 0.846987 0.735212 0.104842
H20   H     H_    0.254683 0.545576 0.731044 0.093245
H21   H     H_    0.545727 0.638747 0.734950 0.151744
H22   H     H_    0.338297 0.968518 0.721374 0.162926
H23   H     H_    0.254802 0.243371 0.792848 0.180791
H24   H     H_    0.108748 0.463900 0.732722 0.177866
H25   H     H_    0.481378 0.739080 0.815116 0.109333
H26   H     H_    0.333702 0.882082 0.816657 0.119789
H27   H     H_    0.272888 0.514619 0.813041 0.110930
H28   H     H_    0.731077 0.137242 0.189514 0.279252
H29   H     H_    0.619820 0.219960 0.196290 0.173837
H30   H     H_    0.659613 0.203938 0.257443 0.156245
H31   H     H_    0.524981 0.106846 0.233028 0.187757
H32   H     H_    0.845629 0.577859 0.196540 0.275915
H33   H     H_    0.810056 0.391679 0.200050 0.180903
H34   H     H_    0.525136 0.889742 0.735528 0.131868
H35   H     H_    0.805762 0.435624 0.261137 0.154602
H36   H     H_    0.927364 0.434519 0.239474 0.183615
H37   H     H_    0.413101 0.261120 0.190083 0.279670
H38   H     H_    0.603999 0.395886 0.192605 0.180623
H39   H     H_    0.561713 0.350562 0.254607 0.172186
H40   H     H_    0.572391 0.477789 0.232428 0.188184
H41   H     H_    0.706624 0.681023 0.699307 0.293514
H42   H     H_    0.865903 0.746330 0.648823 0.181030
H43   H     H_    0.909768 0.884419 0.668322 0.147740
H44   H     H_    0.792246 0.813665 0.628571 0.156666
H45   H     H_    0.183254 0.664386 0.729981 0.118197
H46   H     H_    0.220134 0.035539 0.724789 0.301102
H47   H     H_    0.130663 0.065553 0.650196 0.168180
H48   H     H_    0.078248 0.922713 0.637013 0.136548
H49   H     H_    0.223902 0.015889 0.637874 0.185025
H50   H     H_    0.983006 0.304795 0.691156 0.302515
H51   H     H_    0.941244 0.080671 0.669139 0.153193
H52   H     H_    0.039395 0.192470 0.631802 0.141251
H53   H     H_    0.900260 0.163510 0.634001 0.198358
H54   H     H_    0.364688 0.453920 0.735332 0.142900
H55   H     H_    0.593115 0.948694 0.813028 0.135365
H56   H     H_    0.180347 0.681623 0.813098 0.107291
H57   H     H_    0.345507 0.380608 0.812776 0.140458
I1    I     I_    0.633658 0.009305 0.100985 -0.232775
I2    I     I_    0.708016 0.554284 0.323705 -0.355694
I3    I     I_    0.441185 0.157822 0.324725 -0.347553
I4    I     I_    0.885031 0.061893 0.327182 -0.318463
I5    I     I_    0.690578 0.061377 0.694220 -0.355333
I6    I     I_    0.971420 0.581927 0.708938 -0.365339
I7    I     I_    0.349248 0.276693 0.693852 -0.417136
I8    I     I_    0.780346 0.749949 0.414814 -0.169783
I9    I     I_    0.258962 0.041920 0.420849 -0.177777
I10   I     I_    0.943030 0.289775 0.403770 -0.179190
I11   I     I_    0.766623 0.688900 0.810089 -0.352874
I12   I     I_    0.979333 0.625677 0.107350 -0.234762
I13   I     I_    0.082523 0.999582 0.812947 -0.497950
I14   I     I_    0.922865 0.264063 0.803291 -0.327823
I15   I     I_    0.373767 0.363749 0.103887 -0.240249
I16   I     I_    0.595407 0.025774 0.396287 -0.176398
I17   I     I_    0.960994 0.588831 0.405732 -0.179452
I18   I     I_    0.427204 0.395578 0.401766 -0.159216
I19   I     I_    0.676912 0.615836 0.124398 -0.283444
I20   I     I_    0.379784 0.054611 0.128181 -0.285639
I21   I     I_    0.928181 0.300153 0.135725 -0.312126
N1    N     N_2   0.654686 0.092497 0.204658 -0.478369
N2    N     N_2   0.903297 0.560982 0.210896 -0.479982
N3    N     N_2   0.438109 0.335671 0.206486 -0.484795
N4    N     N_2   0.767993 0.761343 0.702503 -0.487278
N5    N     N_2   0.150309 0.977064 0.707571 -0.508721
N6    N     N_2   0.992645 0.237767 0.697653 -0.474680
O1    O     O_R   0.137150 0.468200 0.553200 -0.489192
O2    O     O_R   0.140110 0.470540 0.446010 -0.466310
O3    O     O_R   0.529460 0.669570 0.446010 -0.467786
O4    O     O_R   0.330430 0.859890 0.446010 -0.465936
O5    O     O_R   0.176710 0.690910 0.450560 -0.479286
O6    O     O_R   0.309090 0.485800 0.450560 -0.480074
O7    O     O_R   0.514200 0.823290 0.450560 -0.478845
O8    O     O_3   0.333333 0.666667 0.499990 -0.320736
O9    O     O_R   0.176750 0.985260 0.074180 -0.477314
O10   O     O_R   0.014740 0.191490 0.074180 -0.475988
O11   O     O_R   0.808510 0.823250 0.074180 -0.479230
O12   O     O_R   0.531800 0.668950 0.553200 -0.492161
O13   O     O_R   0.146100 0.172630 0.068980 -0.478541
O14   O     O_R   0.827370 0.973470 0.068980 -0.477012
O15   O     O_R   0.026530 0.853900 0.068980 -0.477371
O16   O     O_3   0.000000 0.000000 0.020040 -0.260363
O17   O     O_R   0.148270 0.170520 0.969620 -0.487976
O18   O     O_R   0.829480 0.977750 0.969620 -0.492530
O19   O     O_R   0.022250 0.851730 0.969620 -0.483811
O20   O     O_R   0.331050 0.862850 0.553200 -0.489996
O21   O     O_R   0.179100 0.982980 0.967000 -0.492061
O22   O     O_R   0.017020 0.196120 0.967000 -0.489616
O23   O     O_R   0.803880 0.820900 0.967000 -0.483830
O24   O     O_R   0.173970 0.688730 0.549930 -0.486620
O25   O     O_R   0.311270 0.485240 0.549930 -0.488245
O26   O     O_R   0.514760 0.826030 0.549930 -0.485712

loop_
_geom_bond_atom_site_label_1
_geom_bond_atom_site_label_2
_ccdc_geom_bond_type
C58   C62   A    
Cr3   O4    S    
H46   N5    S    
Cr4   O17   S    
C82   N5    S    
C26   O26   A    
C19   O18   A    
C59   C99   S    
C26   O12   A    
C80   C84   S    
C69   C96   S    
C50   C79   A    
C102  N3    S    
Cr4   O13   S    
C46   C76   A    
C95   C98   S    
C14   C46   S    
Cr5   O18   S    
C18   O22   A    
C48   C81   S    
C84   H15   S    
C21   I16   S    
H41   N4    S    
Cr3   O20   S    
C7    C99   S    
C60   C63   A    
C1    O20   A    
C60   I4    S    
C6    C98   S    
C48   H26   S    
C92   H24   S    
C17   C45   S    
Cr6   O11   S    
C16   O14   A    
Cr4   O16   S    
C31   O4    A    
C29   C42   A    
C101  H36   S    
C64   C71   A    
C40   H7    S    
C74   I19   S    
C33   O7    A    
C42   I12   S    
C24   C54   A    
C83   C93   S    
C96   C99   S    
C20   C88   S    
C28   C41   A    
C68   C91   S    
C6    C88   T    
C49   C78   A    
C85   H16   S    
Cr1   O5    S    
C20   O19   A    
C92   C93   S    
Cr5   O14   S    
C32   O6    A    
C85   C98   S    
C102  H40   S    
C101  H33   S    
Cr3   O8    S    
C54   C71   A    
C2    C97   S    
C85   I13   S    
C62   H9    S    
C22   C25   A    
C67   C94   S    
C24   C38   A    
C51   C57   A    
Cr1   O2    S    
C23   C27   A    
C15   O25   A    
C16   O11   A    
C58   I3    S    
C16   C44   S    
C82   H13   S    
C55   C72   A    
C52   C55   A    
Cr6   O16   S    
C59   C92   S    
C29   C72   A    
C70   H18   S    
C3    H43   S    
C63   C66   A    
C28   C34   A    
C37   C70   S    
C81   H19   S    
C86   H17   S    
Cr2   O8    S    
C4    N5    S    
C9    C91   S    
C70   C90   S    
C1    C12   S    
Cr2   O6    S    
C1    O24   A    
Cr6   O15   S    
C92   H20   S    
C37   C97   S    
C49   I9    S    
C9    C12   T    
C53   C60   A    
C67   I5    S    
C52   C58   A    
C39   H6    S    
C43   I15   S    
C68   C95   S    
C36   N3    S    
C50   C53   A    
C83   N6    S    
C36   C40   A    
C18   O17   A    
C69   H54   S    
C22   C78   A    
Cr5   O10   S    
C32   O2    A    
C68   H45   S    
C3    N4    S    
C38   H5    S    
C27   C56   A    
C35   N2    S    
C47   C51   A    
C94   C97   S    
C5    H51   S    
C66   C73   A    
C67   C90   S    
C82   C91   S    
C82   C85   S    
C50   I10   S    
C5    H52   S    
C42   C45   A    
H32   N2    S    
C61   C64   A    
C35   C39   A    
C23   I18   S    
C100  H31   S    
H50   N6    S    
C102  H39   S    
C4    H49   S    
C17   O15   A    
C27   C40   A    
C49   C52   A    
C10   C93   S    
C41   I1    S    
C83   C86   S    
C61   H8    S    
C59   H4    S    
C3    H44   S    
C2    C87   T    
C81   C91   S    
C17   O9    A    
C86   C99   S    
Cr5   O16   S    
C47   I8    S    
C100  H30   S    
C96   H23   S    
C100  N1    S    
C4    H48   S    
Cr3   O26   S    
C13   C15   S    
H28   N1    S    
C41   C44   A    
C37   H25   S    
C30   C43   A    
C14   O13   A    
C28   C71   A    
C37   H2    S    
C84   C97   S    
C101  N2    S    
Cr2   O12   S    
C31   O5    A    
Cr6   O19   S    
C76   I21   S    
C31   C78   S    
C53   C56   A    
C30   C73   A    
Cr4   O21   S    
C3    H42   S    
C64   C74   A    
C56   C73   A    
C94   H55   S    
C62   C65   A    
H37   N3    S    
C34   C38   A    
C18   C89   S    
C80   N4    S    
C25   C55   A    
C5    N6    S    
C44   C74   A    
C10   C13   T    
C65   C75   A    
C63   H10   S    
C57   C61   A    
C57   I2    S    
C95   H12   S    
C65   C72   A    
C48   C98   S    
C29   C35   A    
C94   H1    S    
C69   C93   S    
C11   C26   S    
C30   C36   A    
C45   C75   A    
C51   C54   A    
C20   O21   A    
C19   C87   S    
C22   I17   S    
C95   H56   S    
C102  H38   S    
C32   C79   S    
C101  H35   S    
C33   C77   S    
C81   H22   S    
Cr5   O22   S    
C8    C11   T    
C14   O10   A    
C59   H27   S    
C86   I14   S    
C68   I6    S    
Cr2   O3    S    
C19   O23   A    
Cr1   O8    S    
C70   H21   S    
C83   H14   S    
C80   C90   S    
C34   N1    S    
C43   C46   A    
Cr2   O25   S    
C80   H11   S    
Cr6   O23   S    
C100  H29   S    
C15   O1    A    
Cr3   O7    S    
C48   H3    S    
C8    C90   S    
C33   O3    A    
C4    H47   S    
C21   C24   A    
C21   C77   A    
C47   C77   A    
C96   H57   S    
Cr1   O1    S    
C23   C79   A    
C84   I11   S    
C67   H34   S    
Cr1   O24   S    
C69   I7    S    
C25   C39   A    
C66   C76   A    
C75   I20   S    
C5    H53   S    
Cr4   O9    S    
C7    C89   T    
