data_mof_unit_pretest_1473.cif
_audit_creation_date              2012-12-11T18:34:54-0500
_audit_creation_method            fapswitch 2.2
_symmetry_space_group_name_H-M    P1
_symmetry_Int_Tables_number       1
_space_group_crystal_system       triclinic
_cell_length_a                    8.280099
_cell_length_b                    14.27925
_cell_length_c                    22.836537
_cell_angle_alpha                 93.942199
_cell_angle_beta                  89.401906
_cell_angle_gamma                 91.667593
_cell_volume                      2692.42031695

loop_
_atom_site_label
_atom_site_type_symbol
_atom_type_description
_atom_site_fract_x
_atom_site_fract_y
_atom_site_fract_z
_atom_type_partial_charge
Ba1   Ba    Ba6+2 0.846250 0.544220 0.470860 1.641166
Ba2   Ba    Ba6+2 0.343570 0.455860 0.529140 1.651514
C1    C     C_3   0.620832 0.886623 0.307262 -0.355753
C2    C     C_R   0.102201 0.575191 0.935674 -0.032885
C3    C     C_R   0.056902 0.571108 0.875773 0.614387
C4    C     C_3   0.081472 0.736250 0.302255 0.319275
C5    C     C_R   0.962348 0.411366 0.881017 0.579252
C6    C     C_R   0.007432 0.413096 0.940848 -0.030697
C7    C     C_R   0.076925 0.495699 0.968347 -0.049640
C8    C     C_R   0.171025 0.657380 0.963893 -0.057956
C9    C     C_R   0.213083 0.660707 0.023216 -0.070532
C10   C     C_R   0.188574 0.581823 0.056446 -0.020700
C11   C     C_R   0.120803 0.498943 0.028826 -0.049118
C12   C     C_3   0.604754 0.789821 0.330924 0.348859
C13   C     C_R   0.984296 0.333992 0.973944 -0.066763
C14   C     C_R   0.028888 0.336915 0.033057 -0.070035
C15   C     C_R   0.097130 0.419270 0.061389 -0.027366
C16   C     C_3   0.052118 0.758337 0.239149 -0.303765
C17   C     C_R   0.142949 0.423355 0.121318 0.593650
C18   C     C_R   0.229997 0.584494 0.116626 0.574888
C19   C     C_2   0.781682 0.465029 0.772010 -0.025386
C20   C     C_3   0.727115 0.474381 0.709411 -0.024910
C21   C     C_1   0.004372 0.514607 0.683734 0.045606
C22   C     C_2   0.052978 0.514924 0.739383 -0.099933
C23   C     C_3   0.514988 0.320346 0.354828 0.293168
C24   C     C_2   0.936836 0.487953 0.787337 0.188653
C25   C     C_R   0.402633 0.550291 0.229832 -0.094302
C26   C     C_R   0.443196 0.559010 0.289498 -0.018277
C27   C     C_R   0.192224 0.480402 0.314879 0.028725
C28   C     C_3   0.212884 0.754192 0.612908 0.483709
C29   C     C_R   0.147614 0.473809 0.254992 -0.103655
C30   C     C_R   0.251742 0.510064 0.211380 0.197675
C31   C     C_2   0.868452 0.471090 0.667101 -0.315804
C32   C     C_R   0.691342 0.935485 0.530631 -0.018451
C33   C     C_R   0.511170 0.800548 0.496762 0.048998
C34   C     C_3   0.501129 0.294284 0.289343 -0.361462
C35   C     C_R   0.373836 0.768016 0.465528 -0.293887
C36   C     C_R   0.273838 0.830471 0.439739 0.016176
C37   C     C_R   0.318756 0.925221 0.440099 -0.138435
C38   C     C_R   0.460297 0.958968 0.468737 -0.003373
C39   C     C_R   0.555607 0.897601 0.499128 -0.019100
C40   C     C_3   0.110982 0.798968 0.568776 -0.347792
C41   C     C_R   0.641379 0.091263 0.498790 -0.024104
C42   C     C_R   0.737169 0.030774 0.529507 -0.004754
C43   C     C_R   0.685915 0.187429 0.499480 0.020818
C44   C     C_R   0.823177 0.221864 0.529656 -0.280049
C45   C     C_3   0.113832 0.248673 0.699795 0.226625
C46   C     C_R   0.923871 0.161653 0.556365 0.019310
C47   C     C_R   0.879787 0.066212 0.557522 -0.136037
C48   C     C_R   0.504173 0.054156 0.468493 -0.039877
C49   C     C_3   0.021192 0.256214 0.410160 0.306247
C50   C     C_3   0.023397 0.150115 0.397792 -0.374984
C51   C     C_3   0.694517 0.671795 0.642263 0.301468
C52   C     C_3   0.723956 0.705815 0.706346 -0.035853
C53   C     C_2   0.934068 0.252538 0.706185 0.568391
C54   C     C_3   0.190005 0.229494 0.758549 -0.268677
C55   C     C_3   0.549564 0.212371 0.660011 0.331927
C56   C     C_3   0.550578 0.112492 0.679402 -0.303101
C57   C     C_R   0.336837 0.525970 0.331403 -0.302414
H1    H     H_    0.667369 0.792584 0.373870 0.078190
H2    H     H_    0.812383 0.656432 0.621290 0.004507
H3    H     H_    0.616829 0.606996 0.639797 0.043707
H4    H     H_    0.750391 0.906539 0.301531 0.143924
H5    H     H_    0.759237 0.781648 0.709685 0.143622
H6    H     H_    0.824180 0.667305 0.724400 0.051328
H7    H     H_    0.474087 0.772922 0.337176 -0.054719
H8    H     H_    0.564615 0.939317 0.338549 0.071040
H9    H     H_    0.393743 0.338948 0.372231 0.020430
H10   H     H_    0.599675 0.381900 0.361289 0.061362
H11   H     H_    0.414581 0.233923 0.281577 0.138349
H12   H     H_    0.177180 0.859110 0.550650 0.066864
H13   H     H_    0.457297 0.354549 0.266500 0.069480
H14   H     H_    0.621147 0.274918 0.270848 0.131994
H15   H     H_    0.559073 0.886608 0.264325 0.128665
H16   H     H_    0.053273 0.692552 0.210482 0.114942
H17   H     H_    0.161075 0.318183 0.687802 0.048113
H18   H     H_    0.322656 0.231416 0.755289 0.139341
H19   H     H_    0.156142 0.284327 0.792947 0.119647
H20   H     H_    0.150163 0.159327 0.772409 0.158811
H21   H     H_    0.647766 0.219731 0.627441 -0.014920
H22   H     H_    0.434057 0.222725 0.638180 0.111167
H23   H     H_    0.081421 0.744976 0.533288 0.130334
H24   H     H_    0.669229 0.097897 0.698364 0.156077
H25   H     H_    0.529156 0.062224 0.640787 0.096542
H26   H     H_    0.006011 0.673460 0.311447 0.100205
H27   H     H_    0.454157 0.101156 0.712415 0.155085
H28   H     H_    0.008913 0.274266 0.056633 0.127267
H29   H     H_    0.931577 0.269205 0.954179 0.133853
H30   H     H_    0.265153 0.725643 0.043018 0.128483
H31   H     H_    0.488862 0.574703 0.197945 0.118738
H32   H     H_    0.192196 0.719806 0.940199 0.140774
H33   H     H_    0.175636 0.536989 0.750836 0.158772
H34   H     H_    0.998777 0.825661 0.590074 0.132350
H35   H     H_    0.692513 0.449006 0.805318 0.112996
H36   H     H_    0.032845 0.440494 0.242619 0.131235
H37   H     H_    0.370872 0.531479 0.377153 0.081113
H38   H     H_    0.211116 0.720490 0.307088 -0.043248
H39   H     H_    0.856301 0.437407 0.623204 0.082184
H40   H     H_    0.337954 0.694495 0.464982 0.073448
H41   H     H_    0.241124 0.972781 0.419393 0.074078
H42   H     H_    0.957621 0.019791 0.579115 0.093280
H43   H     H_    0.856652 0.295712 0.529708 0.060891
H44   H     H_    0.763339 0.892018 0.556165 0.095060
H45   H     H_    0.897598 0.277159 0.422240 -0.000547
H46   H     H_    0.429260 0.098522 0.444367 0.093936
H47   H     H_    0.932477 0.790193 0.235093 0.149460
H48   H     H_    0.147398 0.808032 0.224484 0.128872
H49   H     H_    0.310402 0.713483 0.590829 0.000948
H50   H     H_    0.867543 0.280984 0.671579 -0.145390
H51   H     H_    0.104902 0.276223 0.446818 0.072930
H52   H     H_    0.933797 0.127520 0.363432 0.131822
H53   H     H_    0.993241 0.114001 0.438047 0.068087
H54   H     H_    0.145641 0.129022 0.382453 0.117197
I1    I     I_    0.515170 0.683193 0.760274 -0.354094
I2    I     I_    0.316060 0.866414 0.668716 -0.387240
N1    N     N_R   0.987521 0.489762 0.848814 -0.431757
N2    N     N_R   0.206498 0.505934 0.149072 -0.423520
O1    O     O_2   0.901900 0.448470 0.362340 -0.457465
O2    O     O_2   0.255642 0.165012 0.548468 -0.488186
O3    O     O_3   0.155422 0.177119 0.657119 -0.620197
O4    O     O_3   0.142240 0.449440 0.433360 -0.495905
O5    O     O_3   0.549340 0.612930 0.525560 -0.481858
O6    O     O_2   0.396530 0.270940 0.479440 -0.464400
O7    O     O_3   0.572711 0.243241 0.382262 -0.645122
O8    O     O_2   0.394068 0.426915 0.707688 -0.497463
O9    O     O_3   0.570883 0.278165 0.708418 -0.575341
O10   O     O_2   0.076767 0.640714 0.847965 -0.554097
O11   O     O_2   0.901097 0.339693 0.857598 -0.551022
O12   O     O_3   0.619982 0.742599 0.614110 -0.621517
O13   O     O_2   0.128639 0.352637 0.148362 -0.594228
O14   O     O_2   0.286177 0.657522 0.140130 -0.612514
O15   O     O_3   0.645560 0.619080 0.391970 -0.487277
O16   O     O_2   0.778905 0.552308 0.291045 -0.498141
O17   O     O_3   0.068261 0.298465 0.359147 -0.626379
O18   O     O_3   0.676109 0.723648 0.290990 -0.597108
O19   O     O_2   0.793170 0.729090 0.520590 -0.480472
O20   O     O_3   0.052800 0.667320 0.419180 -0.493316
O21   O     O_2   0.937985 0.835624 0.448439 -0.487200
O22   O     O_2   0.862954 0.225089 0.749189 -0.523574
O23   O     O_3   0.038041 0.813499 0.339836 -0.600236
O24   O     O_2   0.287790 0.551560 0.637690 -0.453516
O25   O     O_3   0.047460 0.550640 0.566640 -0.497333
O26   O     O_3   0.544140 0.380990 0.608030 -0.487866
O27   O     O_3   0.111238 0.700463 0.647525 -0.618492
O28   O     O_3   0.640350 0.387150 0.474440 -0.474511
O29   O     O_3   0.136890 0.332750 0.580830 -0.496080
P1    P     P_3+3 0.074990 0.420800 0.372080 0.993933
P2    P     P_3+3 0.618830 0.715330 0.538180 0.981290
P3    P     P_3+3 0.075383 0.787886 0.412162 0.939230
P4    P     P_3+3 0.114710 0.579280 0.627920 1.009491
P5    P     P_3+3 0.117517 0.210093 0.585609 0.922374
P6    P     P_3+3 0.636653 0.611610 0.315246 0.949372
P7    P     P_3+3 0.577110 0.270562 0.458095 0.936530
P8    P     P_3+3 0.558958 0.391857 0.684226 0.981877

loop_
_geom_bond_atom_site_label_1
_geom_bond_atom_site_label_2
_ccdc_geom_bond_type
C42   C47   A    
Ba2   P4    S    
C54   H19   S    
C19   C24   D    
C16   H16   S    
C40   H34   S    
Ba1   O28   S    
C40   H23   S    
C35   H40   S    
C30   N2    S    
Ba1   O15   S    
C55   C56   S    
C53   O22   D    
C5    C6    A    
C52   H6    S    
C50   H54   S    
Ba2   O28   S    
O17   P1    S    
O16   P6    D    
C54   H20   S    
O1    P1    D    
C33   C35   A    
C22   C24   S    
C45   H17   S    
C31   H39   S    
C47   H42   S    
C36   C37   A    
C49   O17   S    
C29   H36   S    
Ba2   O4    S    
C19   H35   S    
C50   H53   S    
C34   H13   S    
C13   C14   A    
C56   H27   S    
C28   O27   S    
C25   H31   S    
C20   P8    S    
Ba1   Ba2   S    
Ba2   O29   S    
C1    H15   S    
C7    C11   A    
C16   H48   S    
O12   P2    S    
O27   P4    S    
Ba1   O25   S    
C13   H29   S    
Ba1   O5    S    
C51   H2    S    
C27   C57   A    
C6    C7    A    
C21   C31   D    
C48   H46   S    
C21   C22   D    
O4    P1    S    
O5    P2    S    
C5    O11   D    
Ba1   O19   S    
C36   P3    S    
Ba1   O1    S    
O28   P7    S    
C17   O13   D    
O7    P7    S    
C53   H50   S    
Ba2   O26   S    
C55   H21   S    
O20   P3    S    
C32   C39   A    
C22   H33   S    
C18   N2    Am   
C34   H11   S    
O24   P4    D    
Ba1   O4    S    
C28   I2    S    
Ba2   O5    S    
O21   P3    D    
O2    P5    D    
C4    C16   S    
C44   C46   A    
C49   C50   S    
C4    H38   S    
C32   C42   A    
C8    C9    A    
C37   C38   A    
C14   C15   A    
O26   P8    S    
C50   H52   S    
C49   H45   S    
C51   C52   S    
C54   H18   S    
C5    N1    Am   
C41   C42   A    
C16   H47   S    
C35   C36   A    
C56   H25   S    
C14   H28   S    
C44   H43   S    
C51   H3    S    
C9    H30   S    
C29   C30   A    
C46   C47   A    
C10   C18   A    
C12   H7    S    
C41   C43   A    
O19   P2    D    
C1    C12   S    
O9    P8    S    
C38   C39   A    
C21   P4    S    
C8    H32   S    
C26   P6    S    
C6    C13   A    
C3    N1    Am   
Ba2   O25   S    
C55   H22   S    
Ba1   P1    S    
C23   H10   S    
C57   H37   S    
C18   O14   D    
C2    C8    A    
C55   O9    S    
Ba1   O20   S    
O8    P8    D    
C45   C53   S    
O6    P7    D    
C26   C57   A    
C20   C31   S    
C45   O3    S    
O3    P5    S    
C3    O10   D    
C28   H49   S    
C25   C30   A    
C43   P7    S    
C1    H8    S    
C2    C3    A    
C27   P1    S    
C9    C10   A    
C41   C48   A    
C23   H9    S    
C1    H4    S    
C49   H51   S    
C12   H1    S    
C32   H44   S    
C11   C15   A    
O25   P4    S    
O15   P6    S    
C27   C29   A    
C56   H24   S    
C37   H41   S    
C52   H5    S    
C38   C48   A    
C52   I1    S    
C40   H12   S    
C15   C17   A    
C33   P2    S    
C4    O23   S    
C33   C39   A    
C23   O7    S    
C24   N1    S    
C34   H14   S    
C23   C34   S    
O29   P5    S    
C43   C44   A    
C51   O12   S    
C10   C11   A    
C17   N2    Am   
C12   O18   S    
C46   P5    S    
C4    H26   S    
C25   C26   A    
Ba2   O24   S    
C28   C40   S    
Ba1   P2    S    
C2    C7    A    
C19   C20   S    
O23   P3    S    
Ba2   O6    S    
O18   P6    S    
C45   C54   S    
