data_mof_unit_pretest_642.cif
_audit_creation_date              2013-03-05T16:19:21-0500
_audit_creation_method            fapswitch 2.2
_symmetry_space_group_name_H-M    P1
_symmetry_Int_Tables_number       1
_space_group_crystal_system       triclinic
_cell_length_a                    10.676874
_cell_length_b                    9.797558
_cell_length_c                    23.393925
_cell_angle_alpha                 90.045891
_cell_angle_beta                  88.452676
_cell_angle_gamma                 90.043798
_cell_volume                      2446.28135901

loop_
_atom_site_label
_atom_site_type_symbol
_atom_site_description
_atom_site_fract_x
_atom_site_fract_y
_atom_site_fract_z
_atom_type_partial_charge
O1    O     O_R   0.314910 0.616040 0.499990 -0.632558
O2    O     O_R   0.314910 0.383960 0.499990 -0.643900
C1    C     C_R   0.258924 0.499960 0.504955 0.965347
O3    O     O_R   0.500080 0.616070 0.416130 -0.581376
O4    O     O_R   0.500080 0.383930 0.416130 -0.588132
C2    C     C_R   0.497708 0.499978 0.389609 0.912296
Zn1   Zn    Zn3+2 0.500150 0.654960 0.499970 1.018726
Zn2   Zn    Zn3+2 0.500150 0.345040 0.499970 1.012625
O5    O     O_R   0.685320 0.616040 0.499970 -0.542191
O6    O     O_R   0.685320 0.383960 0.499970 -0.539789
O7    O     O_R   0.500150 0.616010 0.583820 -0.630365
O8    O     O_R   0.500150 0.383990 0.583820 -0.618777
C3    C     C_R   0.742536 0.500053 0.501966 1.059384
C4    C     C_R   0.500229 0.500091 0.610456 0.932206
C5    C     C_R   0.600618 0.440605 0.879148 0.550963
N1    N     N_R   0.507602 0.507648 0.852059 -0.333734
C6    C     C_R   0.417219 0.580971 0.880866 0.570896
C7    C     C_R   0.417073 0.589324 0.941138 -0.042016
C8    C     C_R   0.512013 0.516946 0.969767 -0.048682
C9    C     C_R   0.604077 0.442293 0.938550 -0.020071
C10   C     C_R   0.326881 0.665731 0.973969 0.157304
C11   C     C_R   0.332911 0.666136 0.033667 -0.129570
C12   C     C_R   0.425161 0.592628 0.061673 -0.075148
C13   C     C_R   0.515221 0.518142 0.029860 -0.014300
C14   C     C_R   0.608189 0.443700 0.058210 -0.018835
C15   C     C_R   0.698947 0.370725 0.026495 -0.145601
C16   C     C_R   0.697227 0.370504 0.967184 -0.140752
C17   C     C_R   0.428888 0.590741 0.121339 0.587408
N2    N     N_R   0.518177 0.515917 0.147849 -0.330140
C18   C     C_R   0.606992 0.443124 0.117920 0.552874
O9    O     O_2   0.689182 0.372304 0.848364 -0.526030
O10   O     O_2   0.328549 0.644143 0.850642 -0.552031
H1    H     H_    0.264087 0.723778 0.058553 0.198058
O11   O     O_2   0.343726 0.662150 0.152838 -0.524494
O12   O     O_2   0.692921 0.369910 0.146013 -0.533813
H2    H     H_    0.771368 0.313347 0.047358 0.198574
H3    H     H_    0.768548 0.312884 0.943874 0.198239
C19   C     C_R   0.592598 0.595215 0.240386 0.132407
C20   C     C_R   0.584590 0.589284 0.299793 -0.159576
H4    H     H_    0.645609 0.653139 0.324652 0.191184
C21   C     C_R   0.499359 0.501051 0.327520 -0.133104
C22   C     C_R   0.418827 0.417622 0.295508 -0.021013
C23   C     C_R   0.429667 0.421313 0.235917 0.664919
C24   C     C_R   0.515113 0.509662 0.208659 0.142052
C25   C     C_R   0.454345 0.389845 0.763099 0.155173
C26   C     C_R   0.453795 0.389060 0.703445 -0.194246
H5    H     H_    0.414207 0.302761 0.681160 0.162109
C27   C     C_R   0.501860 0.500682 0.672490 -0.156224
C28   C     C_R   0.551554 0.613283 0.700996 -0.246511
H6    H     H_    0.589683 0.699781 0.677473 0.220542
C29   C     C_R   0.554248 0.614087 0.760160 0.672835
C30   C     C_R   0.505886 0.503121 0.791230 0.172868
C31   C     C_3   0.070739 0.632147 0.538596 -0.173678
C32   C     C_3   0.070614 0.367545 0.538395 -0.170555
H7    H     H_    0.102446 0.719269 0.511099 0.215994
H8    H     H_    0.103593 0.280229 0.511288 0.213878
C33   C     C_3   0.926103 0.629706 0.537899 1.111334
C34   C     C_3   0.926033 0.368870 0.536703 1.114060
H9    H     H_    0.119485 0.589885 0.422227 0.230464
H10   H     H_    0.116747 0.407797 0.422847 0.212036
C35   C     C_3   0.080019 0.499870 0.445601 -0.591843
C36   C     C_3   0.122940 0.499908 0.508781 -0.244497
C37   C     C_3   0.879914 0.500111 0.504861 -0.536193
C38   C     C_3   0.936608 0.501705 0.442987 1.029688
C39   C     C_3   0.370844 0.080942 0.507378 -0.441130
C40   C     C_3   0.370771 0.918914 0.507096 -0.432995
H11   H     H_    0.307758 0.119161 0.473923 0.270966
H12   H     H_    0.308244 0.881225 0.473278 0.274909
H13   H     H_    0.328941 0.118390 0.548553 0.165948
H14   H     H_    0.328090 0.880844 0.547990 0.167638
C41   C     C_3   0.548632 0.081841 0.442365 0.639081
C42   C     C_3   0.549150 0.917998 0.442458 0.648096
C43   C     C_3   0.572364 0.080498 0.546625 0.422881
C44   C     C_3   0.571629 0.919831 0.546858 0.416905
N3    N     N_3   0.499750 0.138610 0.498760 -0.175684
N4    N     N_3   0.499750 0.861390 0.498760 -0.173379
H15   H     H_    0.529527 0.115957 0.587932 0.083765
H16   H     H_    0.527413 0.885616 0.588054 0.075818
C45   C     C_3   0.223433 0.748156 0.947829 -0.728604
H17   H     H_    0.160080 0.679951 0.924055 0.269822
H18   H     H_    0.164720 0.801801 0.980697 0.211724
H19   H     H_    0.264128 0.827732 0.919106 0.270790
F1    F     F_    0.603667 0.722915 0.787577 -0.627396
C46   C     C_3   0.122277 0.666508 0.598154 -0.742888
H20   H     H_    0.075011 0.609289 0.633173 0.284642
H21   H     H_    0.224420 0.647905 0.600190 0.215815
H22   H     H_    0.106218 0.776511 0.607278 0.260135
C47   C     C_3   0.120621 0.334715 0.598343 -0.755176
H23   H     H_    0.222299 0.355775 0.601059 0.210855
H24   H     H_    0.070964 0.391070 0.632972 0.286654
H25   H     H_    0.106285 0.224422 0.607405 0.259035
F2    F     F_    0.872762 0.631271 0.592698 -0.595910
F3    F     F_    0.870950 0.363153 0.591112 -0.585564
F4    F     F_    0.889347 0.748068 0.510892 -0.580554
F5    F     F_    0.890838 0.252105 0.507964 -0.586061
F6    F     F_    0.899071 0.617407 0.413944 -0.644972
F7    F     F_    0.896630 0.389146 0.412413 -0.639729
F8    F     F_    0.467550 0.122773 0.400194 -0.612537
F9    F     F_    0.469133 0.875704 0.399951 -0.590563
F10   F     F_    0.693192 0.129825 0.546303 -0.525001
F11   F     F_    0.691851 0.869282 0.547428 -0.528647
C48   C     C_3   0.676864 0.143471 0.422667 -0.602346
H26   H     H_    0.700420 0.111044 0.378259 0.206265
H27   H     H_    0.676629 0.254344 0.418932 0.295639
H28   H     H_    0.754559 0.113283 0.450012 0.284952
C49   C     C_3   0.678120 0.857309 0.423527 -0.640800
H29   H     H_    0.677791 0.746479 0.419832 0.288082
H30   H     H_    0.703030 0.889548 0.379256 0.195979
H31   H     H_    0.754849 0.887817 0.451439 0.293882
C50   C     C_3   0.682031 0.693311 0.211192 -0.744409
H32   H     H_    0.733592 0.755579 0.242555 0.246734
H33   H     H_    0.751747 0.636162 0.184538 0.256251
H34   H     H_    0.629417 0.763792 0.183506 0.243640
C51   C     C_3   0.316809 0.329733 0.322225 -0.598978
H35   H     H_    0.305154 0.343640 0.368955 0.222741
H36   H     H_    0.225516 0.356282 0.303481 0.245820
H37   H     H_    0.337099 0.220623 0.313180 0.297979
F12   F     F_    0.354460 0.341636 0.203839 -0.633178
C52   C     C_3   0.398640 0.272009 0.796341 -0.788242
H38   H     H_    0.358582 0.193797 0.767661 0.239384
H39   H     H_    0.471871 0.222293 0.821875 0.265724
H40   H     H_    0.322452 0.309455 0.825556 0.239494

loop_
_geom_bond_atom_site_label_1
_geom_bond_atom_site_label_2
_geom_bond_distance
_ccdc_geom_bond_type
C43   F10   1.377107 S    
C40   H12   1.111590 S    
C33   F2    1.388732 S    
C7    C10   1.427533 A    
C21   C22   1.414571 A    
C8    C9    1.412788 A    
C46   H22   1.111058 S    
C42   N4    1.511241 S    
C51   H35   1.105247 S    
C20   C21   1.401420 A    
C40   H14   1.112996 S    
C25   C26   1.395722 A    
Zn1   O7    1.998654 S    
C15   C16   1.388141 A    
C44   N4    1.492591 S    
C18   O12   1.349992 S    
C31   C46   1.548472 S    
C17   N2    1.365501 A    
C34   F3    1.388791 S    
C46   H21   1.108127 S    
C19   C20   1.391340 A    
O7    C4    1.295882 A    
C52   H40   1.110603 S    
C49   H29   1.089241 S    
C5    N1    1.361986 A    
C34   C37   1.572597 S    
C48   H28   1.101892 S    
C7    C8    1.420377 A    
C43   C44   1.574173 S    
O5    C3    1.292070 A    
C50   H32   1.110939 S    
C22   C51   1.510365 S    
N1    C6    1.366265 A    
C39   H11   1.111652 S    
C2    C21   1.452190 S    
C12   C13   1.404504 A    
C19   C50   1.505439 S    
C25   C52   1.505579 S    
C52   H39   1.109811 S    
C17   O11   1.350263 S    
C10   C11   1.399784 A    
C43   N3    1.492544 S    
C35   C36   1.559211 S    
O3    Zn1   1.997735 S    
C33   C37   1.571866 S    
C26   C27   1.401471 A    
C31   H7    1.116090 S    
C5    C9    1.391216 A    
C41   F8    1.389533 S    
C32   H8    1.116018 S    
H9    C35   1.114504 S    
C29   C30   1.398961 A    
C46   H20   1.103664 S    
C38   F6    1.387063 S    
O3    C2    1.295750 A    
C20   H4    1.083199 S    
C45   H18   1.110976 S    
C31   C33   1.544952 S    
C4    C27   1.451802 S    
C32   C36   1.566291 S    
C25   C30   1.408936 A    
C28   C29   1.385177 A    
C14   C15   1.400723 A    
Zn2   N3    2.022689 S    
C45   H17   1.110151 S    
H10   C35   1.113283 S    
O1    C1    1.288285 A    
C35   C38   1.534167 S    
C34   F5    1.383382 S    
C19   C24   1.403214 A    
N2    C18   1.364719 A    
C45   H19   1.110261 S    
C31   C36   1.566652 S    
C3    C37   1.470152 S    
C47   H25   1.111054 S    
Zn2   O8    1.998054 S    
C40   N4    1.496187 S    
C10   C45   1.511521 S    
C6    C7    1.412253 A    
C12   C17   1.397607 A    
C13   C14   1.412264 A    
C48   H27   1.089882 S    
C50   H34   1.110338 S    
C44   F11   1.376585 S    
C15   H2    1.083326 S    
C27   C28   1.400118 A    
C41   C48   1.554521 S    
C47   H24   1.103983 S    
C28   H6    1.083917 S    
C33   F4    1.383198 S    
C23   C24   1.398721 A    
C22   C23   1.396243 A    
C29   F1    1.357559 S    
C32   C34   1.545309 S    
C1    C36   1.452223 S    
C14   C18   1.396602 A    
Zn1   O5    2.013762 S    
C11   H1    1.083911 S    
C26   H5    1.084431 S    
C38   F7    1.387241 S    
O1    Zn1   2.013909 S    
O2    Zn2   2.014481 S    
N1    C30   1.424280 S    
C42   C49   1.553603 S    
O6    C3    1.292090 A    
O4    Zn2   1.998334 S    
C51   H36   1.110708 S    
C52   H38   1.111057 S    
C5    O9    1.350553 S    
Zn1   N4    2.022741 S    
C9    C16   1.403691 A    
C39   N3    1.496034 S    
C32   C47   1.548145 S    
O2    C1    1.288242 A    
O8    C4    1.296572 A    
C41   C42   1.605272 S    
N2    C24   1.423441 S    
C41   N3    1.511418 S    
O4    C2    1.296271 A    
C49   H30   1.108457 S    
C16   H3    1.083350 S    
C39   H13   1.113109 S    
C8    C13   1.407182 A    
C48   H26   1.108579 S    
C50   H33   1.109673 S    
C51   H37   1.109957 S    
C23   F12   1.359393 S    
C37   C38   1.553879 S    
C47   H23   1.108380 S    
Zn2   O6    2.013189 S    
C39   C40   1.587487 S    
C44   H16   1.113428 S    
C6    O10   1.347973 S    
C43   H15   1.113323 S    
C11   C12   1.398117 A    
C42   F9    1.391082 S    
C49   H31   1.102291 S    
