data_mof_unit_pretest_1195.cif
_audit_creation_date              2012-12-10T17:18:56-0500
_audit_creation_method            fapswitch 2.2
_symmetry_space_group_name_H-M    P1
_symmetry_Int_Tables_number       1
_space_group_crystal_system       triclinic
_cell_length_a                    9.635683
_cell_length_b                    10.821872
_cell_length_c                    13.48873
_cell_angle_alpha                 91.828405
_cell_angle_beta                  73.135022
_cell_angle_gamma                 90.841476
_cell_volume                      1345.35125529

loop_
_atom_site_label
_atom_site_type_symbol
_atom_type_description
_atom_site_fract_x
_atom_site_fract_y
_atom_site_fract_z
_atom_type_partial_charge
C1    C     C_R   0.499887 0.737564 0.503343 0.854211
C2    C     C_R   0.432419 0.486433 0.977695 0.053740
C3    C     C_R   0.464811 0.449120 0.871617 -0.040732
C4    C     C_R   0.537893 0.468306 0.030384 0.050130
C5    C     C_R   0.678060 0.427203 0.974048 -0.022156
C6    C     C_R   0.699483 0.370594 0.875374 0.204611
C7    C     C_R   0.587346 0.373276 0.828472 0.349812
C8    C     C_R   0.508967 0.490714 0.137316 -0.203679
C9    C     C_R   0.765459 0.483814 0.121483 0.223450
C10   C     C_R   0.373992 0.489987 0.812980 -0.050075
C11   C     C_R   0.277370 0.873025 0.662186 -0.130974
C12   C     C_R   0.422136 0.493510 0.699190 0.832434
C13   C     C_R   0.169137 0.937965 0.735638 -0.091605
C14   C     C_R   0.166948 0.066329 0.735816 -0.105286
C15   C     C_R   0.272370 0.130659 0.662069 -0.111516
C16   C     C_R   0.381552 0.066823 0.585408 0.126839
C17   C     C_R   0.384500 0.935877 0.585354 0.053616
C18   C     C_R   0.499559 0.872210 0.512448 -0.176182
C19   C     C_R   0.616403 0.939224 0.448960 0.399637
C20   C     C_R   0.610177 0.066029 0.447728 -0.189069
C21   C     C_R   0.492915 0.129978 0.512195 -0.123742
C22   C     C_R   0.908316 0.330723 0.368076 -0.234667
C23   C     C_R   0.497114 0.263227 0.504567 0.829031
C24   C     C_R   0.003627 0.243947 0.305738 0.198917
C25   C     C_R   0.148198 0.246159 0.305648 0.311713
C26   C     C_R   0.194445 0.332136 0.367978 -0.223180
C27   C     C_R   0.099506 0.417064 0.435350 0.128872
C28   C     C_R   0.950602 0.416947 0.435226 0.102828
C29   C     C_R   0.904085 0.580072 0.560910 0.464820
C30   C     C_R   0.051462 0.579576 0.560559 -0.103250
C31   C     C_R   0.577859 0.500830 0.299895 0.776036
C32   C     C_R   0.792427 0.443313 0.018419 -0.195164
C33   C     C_R   0.620260 0.493275 0.185085 -0.098273
C34   C     C_R   0.242243 0.547788 0.863537 -0.215626
C35   C     C_R   0.206036 0.575828 0.968416 -0.125260
C36   C     C_R   0.300459 0.548642 0.025081 -0.106639
Cu1   Cu    Cu3+1 0.359340 0.500010 0.500010 0.940118
Cu2   Cu    Cu3+1 0.640660 0.499990 0.499990 1.035480
H1    H     H_    0.278656 0.773955 0.669295 0.134218
H2    H     H_    0.088575 0.888503 0.794212 0.144681
H3    H     H_    0.084947 0.116281 0.794807 0.139778
H4    H     H_    0.270022 0.230396 0.668233 0.147947
H5    H     H_    0.698216 0.115513 0.395205 0.195998
H6    H     H_    0.802816 0.328485 0.359347 0.210774
H7    H     H_    0.306836 0.328204 0.359733 0.236346
H8    H     H_    0.087860 0.643853 0.610960 0.160214
H9    H     H_    0.903835 0.428642 0.972640 0.155960
H10   H     H_    0.398716 0.502239 0.185053 0.165090
H11   H     H_    0.170720 0.579338 0.820777 0.145461
H12   H     H_    0.270083 0.582662 0.104389 0.130682
H13   H     H_    0.108450 0.626803 0.003937 0.166721
N1    N     N_R   0.852480 0.498790 0.499000 -0.209805
N2    N     N_R   0.148360 0.498710 0.498970 -0.208428
O1    O     O_R   0.381190 0.680360 0.500010 -0.590242
O2    O     O_R   0.618760 0.680340 0.500000 -0.481158
O3    O     O_R   0.323240 0.499990 0.650990 -0.620957
O4    O     O_R   0.560820 0.499960 0.650980 -0.508997
O5    O     O_R   0.381240 0.319660 0.500000 -0.614257
O6    O     O_R   0.618810 0.319640 0.499990 -0.562802
O7    O     O_R   0.439180 0.500040 0.349020 -0.594968
O8    O     O_R   0.676760 0.500010 0.349010 -0.602443
N3    N     N_2   0.885973 0.519281 0.156468 -0.468126
H14   H     H_    0.904160 0.464245 0.211823 0.270831
C37   C     C_3   0.893565 0.650079 0.179355 -0.568277
H15   H     H_    0.993322 0.671057 0.202302 0.235507
H16   H     H_    0.797801 0.678322 0.243078 0.280459
H17   H     H_    0.895056 0.704320 0.110507 0.220433
Cl1   Cl    Cl    0.789198 0.685942 0.646349 -0.576378
N4    N     N_2   0.951187 0.151472 0.247377 -0.393823
H18   H     H_    0.014411 0.073763 0.225128 0.329398
C38   C     C_3   0.894205 0.195136 0.166841 -0.659404
H19   H     H_    0.863742 0.114932 0.123940 0.246367
H20   H     H_    0.977377 0.251019 0.111321 0.237804
H21   H     H_    0.794887 0.250369 0.200926 0.217583
Cl2   Cl    Cl    0.277965 0.145630 0.224731 -0.620851
N5    N     N_2   0.826576 0.300331 0.827206 -0.388166
H22   H     H_    0.875664 0.260688 0.876762 0.241119
C39   C     C_3   0.927223 0.358870 0.740301 -0.585581
H23   H     H_    0.019639 0.296545 0.705069 0.215710
H24   H     H_    0.968984 0.446700 0.766045 0.198916
H25   H     H_    0.873336 0.377254 0.680106 0.261226
Cl3   Cl    Cl    0.588756 0.260668 0.730355 -0.598836
Cl4   Cl    Cl    0.775876 0.871086 0.369372 -0.624941

loop_
_geom_bond_atom_site_label_1
_geom_bond_atom_site_label_2
_ccdc_geom_bond_type
C23   O5    A    
C16   C21   A    
C11   C13   A    
C31   O8    A    
C19   C20   A    
C4    C8    A    
C23   O6    A    
C26   C27   A    
Cu1   Cu2   S    
N5    C39   S    
C18   C19   A    
C3    C7    A    
C5    C6    A    
C39   H24   S    
Cu2   N1    S    
C15   C16   A    
C29   Cl1   S    
C34   C35   A    
N4    C38   S    
C13   H2    S    
N3    C37   S    
C9    C32   A    
Cu1   O3    S    
C22   H6    S    
Cu2   O2    S    
C35   C36   A    
C16   C17   A    
C31   C33   S    
C29   C30   A    
Cu1   O5    S    
C26   H7    S    
Cu2   O8    S    
Cu1   N2    S    
C22   C28   A    
C13   C14   A    
C9    C33   A    
C19   Cl4   S    
C24   N4    S    
C30   N2    A    
C9    N3    S    
C37   H17   S    
N5    H22   S    
C38   H20   S    
C39   H23   S    
C25   C26   A    
C25   Cl2   S    
C37   H16   S    
C31   O7    A    
C2    C4    A    
C1    O1    A    
C8    H10   S    
N3    H14   S    
Cu2   O4    S    
C17   C18   A    
C1    C18   S    
C10   C34   A    
C24   C25   A    
C11   H1    S    
C12   O3    A    
C10   C12   S    
C14   H3    S    
C12   O4    A    
C21   C23   S    
C35   H13   S    
C32   H9    S    
C22   C24   A    
Cu1   O1    S    
C20   H5    S    
C36   H12   S    
C2    C36   A    
C11   C17   A    
C34   H11   S    
C30   H8    S    
C15   H4    S    
C4    C5    A    
C38   H21   S    
C27   N2    A    
C6    N5    S    
C6    C7    A    
C37   H15   S    
C5    C32   A    
C2    C3    A    
C1    O2    A    
C38   H19   S    
C3    C10   A    
C28   N1    A    
C39   H25   S    
C8    C33   A    
N4    H18   S    
Cu1   O7    S    
Cu2   O6    S    
C7    Cl3   S    
C20   C21   A    
C27   C28   A    
C14   C15   A    
C29   N1    A    
