data_mof_unit_pretest_1029.cif
_audit_creation_date              2012-12-11T15:22:50-0500
_audit_creation_method            fapswitch 2.2
_symmetry_space_group_name_H-M    P1
_symmetry_Int_Tables_number       1
_space_group_crystal_system       triclinic
_cell_length_a                    22.436599
_cell_length_b                    12.994126
_cell_length_c                    26.983576
_cell_angle_alpha                 89.999925
_cell_angle_beta                  90.564415
_cell_angle_gamma                 90.000067
_cell_volume                      7866.5178309

loop_
_atom_site_label
_atom_site_type_symbol
_atom_type_description
_atom_site_fract_x
_atom_site_fract_y
_atom_site_fract_z
_atom_type_partial_charge
C1    C     C_R   0.720705 0.344935 0.178210 0.535197
C2    C     C_R   0.279295 0.344935 0.821790 0.535128
C3    C     C_R   0.220705 0.844935 0.178210 0.535171
C4    C     C_R   0.779295 0.844935 0.821790 0.535195
C5    C     C_R   0.473988 0.162646 0.871961 -0.004058
C6    C     C_R   0.526009 0.162648 0.128040 -0.004059
C7    C     C_R   0.973988 0.662646 0.871961 -0.004056
C8    C     C_R   0.026009 0.662648 0.128041 -0.004060
C9    C     C_R   0.520397 0.257026 0.102906 -0.133271
C10   C     C_R   0.479606 0.257025 0.897094 -0.133272
C11   C     C_R   0.020397 0.757026 0.102906 -0.133272
C12   C     C_R   0.979605 0.757025 0.897094 -0.133270
C13   C     C_R   0.508829 0.258434 0.051763 0.014023
C14   C     C_R   0.491173 0.258432 0.948237 0.014024
C15   C     C_R   0.008829 0.758434 0.051763 0.014023
C16   C     C_R   0.991172 0.758432 0.948237 0.014024
C17   C     C_R   0.503703 0.164423 0.025854 0.064299
C18   C     C_R   0.496292 0.164422 0.974147 0.064299
C19   C     C_R   0.003702 0.664423 0.025854 0.064299
C20   C     C_R   0.996291 0.664422 0.974147 0.064299
C21   C     C_R   0.504685 0.351675 0.025678 -0.137731
C22   C     C_R   0.495324 0.351675 0.974321 -0.137731
C23   C     C_R   0.004684 0.851675 0.025678 -0.137731
C24   C     C_R   0.995323 0.851675 0.974321 -0.137731
C25   C     C_R   0.739289 0.956931 0.129991 0.022598
C26   C     C_R   0.260712 0.956932 0.870009 0.022624
C27   C     C_R   0.239289 0.456930 0.129991 0.022608
C28   C     C_R   0.760711 0.456931 0.870009 0.022597
C29   C     C_R   0.794284 0.964749 0.106021 -0.128982
C30   C     C_R   0.205716 0.964751 0.893979 -0.128985
C31   C     C_R   0.294284 0.464750 0.106021 -0.128982
C32   C     C_R   0.705716 0.464748 0.893979 -0.128982
C33   C     C_R   0.797953 0.945764 0.055323 -0.120132
C34   C     C_R   0.202047 0.945766 0.944677 -0.120136
C35   C     C_R   0.297953 0.445764 0.055323 -0.120133
C36   C     C_R   0.702046 0.445762 0.944677 -0.120133
C37   C     C_R   0.746524 0.920103 0.027818 0.036471
C38   C     C_R   0.253477 0.920105 0.972182 0.036470
C39   C     C_R   0.246524 0.420101 0.027818 0.036470
C40   C     C_R   0.753476 0.420102 0.972182 0.036471
C41   C     C_R   0.692367 0.906240 0.052452 -0.121345
C42   C     C_R   0.307634 0.906242 0.947548 -0.121350
C43   C     C_R   0.192367 0.406237 0.052453 -0.121347
C44   C     C_R   0.807634 0.406240 0.947548 -0.121344
C45   C     C_R   0.553761 0.157205 0.177484 0.550521
C46   C     C_R   0.446239 0.157205 0.822516 0.550530
C47   C     C_R   0.053761 0.657205 0.177484 0.550524
C48   C     C_R   0.946239 0.657205 0.822516 0.550524
C49   C     C_R   0.688916 0.923411 0.103144 -0.127853
C50   C     C_R   0.311084 0.923412 0.896856 -0.127846
C51   C     C_R   0.188917 0.423408 0.103145 -0.127854
C52   C     C_R   0.811084 0.423411 0.896856 -0.127856
C53   C     C_R   0.716068 0.832736 0.949277 -0.118792
C54   C     C_R   0.283933 0.832739 0.050723 -0.118791
C55   C     C_R   0.216068 0.332734 0.949277 -0.118791
C56   C     C_R   0.783932 0.332737 0.050723 -0.118792
C57   C     C_R   0.721727 0.818146 0.898530 -0.124262
C58   C     C_R   0.278273 0.818148 0.101471 -0.124259
C59   C     C_R   0.221728 0.318145 0.898530 -0.124254
C60   C     C_R   0.778273 0.318147 0.101470 -0.124263
C61   C     C_R   0.791524 0.960335 0.894787 -0.125812
C62   C     C_R   0.208476 0.960336 0.105213 -0.125818
C63   C     C_R   0.291524 0.460335 0.894787 -0.125825
C64   C     C_R   0.708475 0.460334 0.105212 -0.125813
C65   C     C_R   0.785118 0.975978 0.945522 -0.115795
C66   C     C_R   0.214883 0.975981 0.054478 -0.115794
C67   C     C_R   0.285118 0.475978 0.945522 -0.115793
C68   C     C_R   0.714881 0.475977 0.054478 -0.115795
C69   C     C_R   0.749026 0.909854 0.973482 0.038486
C70   C     C_R   0.250975 0.909856 0.026518 0.038489
C71   C     C_R   0.249026 0.409853 0.973482 0.038488
C72   C     C_R   0.750974 0.409853 0.026518 0.038487
C73   C     C_R   0.761332 0.879153 0.871232 0.023921
C74   C     C_R   0.238669 0.879154 0.128768 0.023921
C75   C     C_R   0.261332 0.379152 0.871232 0.023916
C76   C     C_R   0.738668 0.379153 0.128768 0.023920
C77   C     C_R   0.527671 0.169038 0.370905 0.024867
C78   C     C_R   0.472330 0.169037 0.629096 0.024856
C79   C     C_R   0.027672 0.669037 0.370906 0.024860
C80   C     C_R   0.972332 0.669039 0.629096 0.024877
C81   C     C_R   0.536750 0.260014 0.398115 -0.098057
C82   C     C_R   0.463260 0.260017 0.601887 -0.098055
C83   C     C_R   0.036746 0.760016 0.398114 -0.098056
C84   C     C_R   0.963256 0.760016 0.601887 -0.098041
C85   C     C_R   0.525411 0.262518 0.448690 -0.104978
C86   C     C_R   0.474600 0.262522 0.551312 -0.104985
C87   C     C_R   0.025408 0.762521 0.448690 -0.104980
C88   C     C_R   0.974598 0.762520 0.551312 -0.104975
C89   C     C_R   0.731229 0.001830 0.179366 0.539773
C90   C     C_R   0.268771 0.001830 0.820634 0.539808
C91   C     C_R   0.231229 0.501830 0.179366 0.539807
C92   C     C_R   0.768771 0.501830 0.820634 0.539773
C93   C     C_R   0.503790 0.174686 0.472851 0.030617
C94   C     C_R   0.496211 0.174685 0.527149 0.030609
C95   C     C_R   0.003796 0.674686 0.472853 0.030613
C96   C     C_R   0.996217 0.674687 0.527151 0.030619
C97   C     C_R   0.490529 0.086150 0.444898 -0.119087
C98   C     C_R   0.509464 0.086144 0.555100 -0.119110
C99   C     C_R   0.990540 0.586145 0.444902 -0.119103
C100  C     C_R   0.009475 0.586150 0.555104 -0.119078
C101  C     C_R   0.502744 0.083109 0.394381 -0.126914
C102  C     C_R   0.497250 0.083102 0.605618 -0.126945
C103  C     C_R   0.002752 0.583104 0.394384 -0.126933
C104  C     C_R   0.997259 0.583109 0.605621 -0.126906
C105  C     C_R   0.740390 0.954802 0.371882 0.022912
C106  C     C_R   0.259628 0.954832 0.628110 0.023130
C107  C     C_R   0.240377 0.454820 0.371890 0.022996
C108  C     C_R   0.759600 0.454774 0.628126 0.022906
C109  C     C_R   0.688895 0.926637 0.397920 -0.170704
C110  C     C_R   0.311139 0.926789 0.602058 -0.170791
C111  C     C_R   0.188873 0.426691 0.397928 -0.170723
C112  C     C_R   0.811091 0.426577 0.602089 -0.170697
C113  C     C_R   0.691384 0.911291 0.448559 -0.133631
C114  C     C_R   0.308650 0.911453 0.551419 -0.133593
C115  C     C_R   0.191351 0.411364 0.448568 -0.133610
C116  C     C_R   0.808597 0.411213 0.551452 -0.133632
C117  C     C_R   0.745562 0.921740 0.473956 -0.007811
C118  C     C_R   0.254459 0.921803 0.526030 -0.007767
C119  C     C_R   0.245527 0.421794 0.473972 -0.007799
C120  C     C_R   0.754419 0.421677 0.526054 -0.007816
C121  C     C_R   0.798178 0.939333 0.447725 -0.085889
C122  C     C_R   0.201836 0.939302 0.552271 -0.085842
C123  C     C_R   0.298149 0.439354 0.447742 -0.085875
C124  C     C_R   0.701806 0.439293 0.552287 -0.085887
C125  C     C_R   0.796094 0.955288 0.396693 0.224450
C126  C     C_R   0.203920 0.955242 0.603305 0.224517
C127  C     C_R   0.296076 0.455295 0.396708 0.224501
C128  C     C_R   0.703895 0.455265 0.603317 0.224461
C129  C     C_R   0.780002 0.984460 0.556362 -0.091312
C130  C     C_R   0.219980 0.984483 0.443630 -0.091229
C131  C     C_R   0.279988 0.484504 0.556374 -0.091077
C132  C     C_R   0.719989 0.484418 0.443649 -0.091308
C133  C     C_R   0.721357 0.347384 0.321684 0.542295
C134  C     C_R   0.278640 0.347394 0.678319 0.541937
C135  C     C_R   0.221359 0.847396 0.321681 0.542182
C136  C     C_R   0.778642 0.847388 0.678317 0.542307
C137  C     C_R   0.785096 0.971844 0.607548 0.254054
C138  C     C_R   0.214884 0.971870 0.392444 0.254067
C139  C     C_R   0.285088 0.471906 0.607561 0.254080
C140  C     C_R   0.714901 0.471818 0.392462 0.254055
C141  C     C_R   0.721423 0.820297 0.601529 -0.169399
C142  C     C_R   0.278628 0.820407 0.398452 -0.169379
C143  C     C_R   0.221349 0.320435 0.601558 -0.169330
C144  C     C_R   0.778557 0.320250 0.398479 -0.169393
C145  C     C_R   0.715754 0.834562 0.550981 -0.137851
C146  C     C_R   0.284299 0.834676 0.449000 -0.137835
C147  C     C_R   0.215675 0.334696 0.551010 -0.137846
C148  C     C_R   0.784218 0.334497 0.449028 -0.137853
C149  C     C_R   0.746975 0.913914 0.527894 -0.013825
C150  C     C_R   0.253043 0.913979 0.472093 -0.013846
C151  C     C_R   0.246930 0.413992 0.527912 -0.013861
C152  C     C_R   0.753005 0.413854 0.472117 -0.013829
C153  C     C_R   0.759012 0.884555 0.629723 0.010710
C154  C     C_R   0.241001 0.884610 0.370264 0.010644
C155  C     C_R   0.258981 0.384637 0.629744 0.010532
C156  C     C_R   0.740981 0.384530 0.370284 0.010709
C157  C     C_R   0.554381 0.158911 0.321644 0.545067
C158  C     C_R   0.445620 0.158911 0.678356 0.545080
C159  C     C_R   0.054381 0.658911 0.321644 0.545075
C160  C     C_R   0.945620 0.658911 0.678356 0.545073
C161  C     C_R   0.731893 0.001539 0.322927 0.562126
C162  C     C_R   0.268108 0.001537 0.677073 0.562243
C163  C     C_R   0.231892 0.501540 0.322929 0.562182
C164  C     C_R   0.768105 0.501534 0.677075 0.562131
C165  C     C_R   0.515892 0.070048 0.102458 -0.131969
C166  C     C_R   0.484098 0.070045 0.897544 -0.131967
C167  C     C_R   0.015892 0.570048 0.102458 -0.131969
C168  C     C_R   0.984098 0.570045 0.897545 -0.131968
C169  C     C_R   0.506678 0.070057 0.051523 0.012265
C170  C     C_R   0.493310 0.070056 0.948480 0.012264
C171  C     C_R   0.006678 0.570057 0.051523 0.012265
C172  C     C_R   0.993310 0.570056 0.948480 0.012264
C173  C     C_R   0.496919 0.976774 0.974342 -0.139278
C174  C     C_R   0.503062 0.976775 0.025663 -0.139277
C175  C     C_R   0.996918 0.476774 0.974342 -0.139278
C176  C     C_R   0.003061 0.476775 0.025663 -0.139276
Cr1   Cr    Cr6+3 0.756570 0.170940 0.251190 1.048273
Cr2   Cr    Cr6+3 0.243430 0.170940 0.748810 1.048240
Cr3   Cr    Cr6+3 0.256570 0.670940 0.251190 1.048273
Cr4   Cr    Cr6+3 0.743430 0.670940 0.748810 1.048280
Cr5   Cr    Cr6+3 0.623740 0.299110 0.249580 1.040547
Cr6   Cr    Cr6+3 0.376260 0.299110 0.750420 1.040574
Cr7   Cr    Cr6+3 0.123740 0.799110 0.249580 1.040542
Cr8   Cr    Cr6+3 0.876260 0.799110 0.750420 1.040544
Cr9   Cr    Cr6+3 0.625990 0.036240 0.250480 0.997516
Cr10  Cr    Cr6+3 0.374010 0.036240 0.749520 0.997364
Cr11  Cr    Cr6+3 0.125990 0.536240 0.250480 0.997447
Cr12  Cr    Cr6+3 0.874010 0.536240 0.749520 0.997516
H1    H     H_    0.480242 0.996771 0.878539 0.128200
H2    H     H_    0.519743 0.996774 0.121465 0.128201
H3    H     H_    0.980242 0.496771 0.878539 0.128200
H4    H     H_    0.019743 0.496774 0.121465 0.128199
H5    H     H_    0.822143 0.008620 0.874476 0.121777
H6    H     H_    0.177858 0.008622 0.125525 0.121774
H7    H     H_    0.322142 0.508621 0.874476 0.121778
H8    H     H_    0.677856 0.508619 0.125524 0.121781
H9    H     H_    0.651913 0.887158 0.032249 0.105247
H10   H     H_    0.348088 0.887160 0.967751 0.105246
H11   H     H_    0.151914 0.387153 0.032250 0.105246
H12   H     H_    0.848087 0.387158 0.967751 0.105245
H13   H     H_    0.645701 0.917523 0.120474 0.129578
H14   H     H_    0.354299 0.917523 0.879526 0.129579
H15   H     H_    0.145702 0.417519 0.120475 0.129574
H16   H     H_    0.854299 0.417523 0.879526 0.129573
H17   H     H_    0.556513 0.327273 0.381169 0.160042
H18   H     H_    0.443504 0.327280 0.618835 0.160059
H19   H     H_    0.056503 0.827279 0.381166 0.160066
H20   H     H_    0.943494 0.827276 0.618833 0.160042
H21   H     H_    0.527928 0.018331 0.537691 0.106904
H22   H     H_    0.472058 0.018341 0.462307 0.106891
H23   H     H_    0.027945 0.518340 0.537695 0.106896
H24   H     H_    0.972075 0.518333 0.462311 0.106904
H25   H     H_    0.504843 0.012161 0.625790 0.129177
H26   H     H_    0.495144 0.012172 0.374207 0.129178
H27   H     H_    0.004857 0.512171 0.625794 0.129172
H28   H     H_    0.995157 0.512163 0.374212 0.129175
H29   H     H_    0.536380 0.331674 0.469221 0.119970
H30   H     H_    0.463637 0.331683 0.530782 0.119987
H31   H     H_    0.036373 0.831682 0.469219 0.119979
H32   H     H_    0.963631 0.831678 0.530781 0.119969
H33   H     H_    0.645481 0.924273 0.380025 0.145333
H34   H     H_    0.354561 0.924506 0.619944 0.145255
H35   H     H_    0.145461 0.424341 0.380029 0.145309
H36   H     H_    0.854505 0.424204 0.619983 0.145325
H37   H     H_    0.802489 0.048421 0.538808 0.125883
H38   H     H_    0.197465 0.048408 0.461189 0.125937
H39   H     H_    0.302499 0.548430 0.538812 0.126005
H40   H     H_    0.697507 0.548382 0.461205 0.125895
H41   H     H_    0.494196 0.903867 0.954939 0.098971
H42   H     H_    0.505780 0.903869 0.045067 0.098974
H43   H     H_    0.994195 0.403867 0.954939 0.098970
H44   H     H_    0.005780 0.403869 0.045067 0.098972
H45   H     H_    0.650367 0.896584 0.468198 0.121121
H46   H     H_    0.349673 0.896830 0.531773 0.121101
H47   H     H_    0.150328 0.396689 0.468203 0.121097
H48   H     H_    0.849611 0.396488 0.531812 0.121123
H49   H     H_    0.689805 0.779730 0.529563 0.128819
H50   H     H_    0.310278 0.779880 0.470415 0.128845
H51   H     H_    0.189698 0.279890 0.529600 0.128803
H52   H     H_    0.810158 0.279651 0.470445 0.128815
H53   H     H_    0.700170 0.753472 0.617620 0.172596
H54   H     H_    0.299907 0.753611 0.382358 0.172574
H55   H     H_    0.200073 0.253638 0.617654 0.172546
H56   H     H_    0.799804 0.253422 0.382386 0.172605
H57   H     H_    0.840694 0.942383 0.467082 0.141430
H58   H     H_    0.159314 0.942286 0.532919 0.141414
H59   H     H_    0.340664 0.442390 0.467102 0.141414
H60   H     H_    0.659290 0.442351 0.532930 0.141430
H61   H     H_    0.471912 0.328741 0.877524 0.125781
H62   H     H_    0.528096 0.328743 0.122475 0.125781
H63   H     H_    0.971912 0.828741 0.877524 0.125778
H64   H     H_    0.028096 0.828743 0.122475 0.125780
H65   H     H_    0.491415 0.424505 0.955008 0.101882
H66   H     H_    0.508599 0.424506 0.044990 0.101881
H67   H     H_    0.991414 0.924506 0.955008 0.101880
H68   H     H_    0.008598 0.924506 0.044990 0.101880
H69   H     H_    0.833780 0.990117 0.125933 0.127009
H70   H     H_    0.166221 0.990119 0.874068 0.127009
H71   H     H_    0.333779 0.490119 0.125933 0.127009
H72   H     H_    0.666220 0.490115 0.874067 0.127010
H73   H     H_    0.688162 0.780236 0.969851 0.099089
H74   H     H_    0.311839 0.780239 0.030150 0.099088
H75   H     H_    0.188163 0.280234 0.969851 0.099087
H76   H     H_    0.811839 0.280237 0.030150 0.099088
H77   H     H_    0.698309 0.754186 0.881483 0.133905
H78   H     H_    0.301691 0.754188 0.118517 0.133905
H79   H     H_    0.198310 0.254184 0.881483 0.133907
H80   H     H_    0.801691 0.254188 0.118517 0.133905
H81   H     H_    0.840700 0.953787 0.037432 0.106527
H82   H     H_    0.159301 0.953790 0.962569 0.106528
H83   H     H_    0.340700 0.453789 0.037432 0.106529
H84   H     H_    0.659300 0.453785 0.962568 0.106527
H85   H     H_    0.809573 0.038148 0.963069 0.100242
H86   H     H_    0.190428 0.038151 0.036932 0.100241
H87   H     H_    0.309572 0.538148 0.963069 0.100242
H88   H     H_    0.690426 0.538147 0.036931 0.100242
O1    O     O_R   0.769900 0.064540 0.196060 -0.513317
O2    O     O_R   0.230100 0.064540 0.803940 -0.513315
O3    O     O_R   0.269900 0.564540 0.196060 -0.513322
O4    O     O_R   0.730100 0.564540 0.803940 -0.513317
O5    O     O_R   0.574760 0.239320 0.300850 -0.496655
O6    O     O_R   0.425240 0.239320 0.699150 -0.496615
O7    O     O_R   0.074760 0.739320 0.300850 -0.496636
O8    O     O_R   0.925240 0.739320 0.699150 -0.496651
O9    O     O_R   0.566290 0.069580 0.305400 -0.522517
O10   O     O_R   0.433710 0.069580 0.694600 -0.522541
O11   O     O_R   0.066290 0.569580 0.305400 -0.522531
O12   O     O_R   0.933710 0.569580 0.694600 -0.522515
O13   O     O_R   0.680760 0.993330 0.302620 -0.526120
O14   O     O_R   0.319240 0.993330 0.697380 -0.526277
O15   O     O_R   0.180760 0.493330 0.302620 -0.526168
O16   O     O_R   0.819240 0.493330 0.697380 -0.526106
O17   O     O_3   0.668770 0.168760 0.250420 -0.248282
O18   O     O_3   0.331230 0.168760 0.749580 -0.248233
O19   O     O_3   0.168770 0.668760 0.250420 -0.248262
O20   O     O_3   0.831230 0.668760 0.749580 -0.248282
O21   O     O_R   0.750800 0.274080 0.199250 -0.507313
O22   O     O_R   0.249200 0.274080 0.800750 -0.507326
O23   O     O_R   0.250800 0.774080 0.199250 -0.507320
O24   O     O_R   0.749200 0.774080 0.800750 -0.507314
O25   O     O_R   0.669990 0.371670 0.194150 -0.523299
O26   O     O_R   0.330010 0.371670 0.805850 -0.523278
O27   O     O_R   0.169990 0.871670 0.194150 -0.523302
O28   O     O_R   0.830010 0.871670 0.805850 -0.523307
O29   O     O_R   0.574600 0.238480 0.197800 -0.497665
O30   O     O_R   0.425400 0.238480 0.802200 -0.497650
O31   O     O_R   0.074600 0.738480 0.197800 -0.497661
O32   O     O_R   0.925400 0.738480 0.802200 -0.497663
O33   O     O_R   0.566130 0.068680 0.194240 -0.525015
O34   O     O_R   0.433870 0.068680 0.805760 -0.525025
O35   O     O_R   0.066130 0.568680 0.194240 -0.525024
O36   O     O_R   0.933870 0.568680 0.805760 -0.525020
O37   O     O_R   0.680610 0.992490 0.199570 -0.514991
O38   O     O_R   0.319390 0.992490 0.800430 -0.515065
O39   O     O_R   0.180610 0.492490 0.199570 -0.515012
O40   O     O_R   0.819390 0.492490 0.800430 -0.514993
O41   O     O_R   0.770060 0.065440 0.307230 -0.448556
O42   O     O_R   0.229940 0.065440 0.692770 -0.448561
O43   O     O_R   0.270060 0.565440 0.307230 -0.448539
O44   O     O_R   0.729940 0.565440 0.692770 -0.448549
O45   O     O_R   0.750960 0.274920 0.302300 -0.514917
O46   O     O_R   0.249040 0.274920 0.697700 -0.514861
O47   O     O_R   0.250960 0.774920 0.302300 -0.514885
O48   O     O_R   0.749040 0.774920 0.697700 -0.514911
O49   O     O_R   0.670160 0.372580 0.305320 -0.472475
O50   O     O_R   0.329840 0.372580 0.694680 -0.472602
O51   O     O_R   0.170160 0.872580 0.305320 -0.472508
O52   O     O_R   0.829840 0.872580 0.694680 -0.472474
O53   O     O_3   0.820100 0.039940 0.634364 -0.553902
C177  C     C_3   0.782388 0.104647 0.662128 0.018126
H89   H     H_    0.754416 0.058910 0.687980 0.128949
H90   H     H_    0.752815 0.150245 0.636948 0.136045
C178  C     C_3   0.820512 0.179078 0.692710 -0.250398
H91   H     H_    0.853426 0.134847 0.715225 0.184164
H92   H     H_    0.845228 0.230954 0.667406 0.168733
C179  C     C_3   0.782248 0.243583 0.727369 -0.467003
H93   H     H_    0.748086 0.286993 0.705897 0.166040
H94   H     H_    0.810921 0.299057 0.747854 0.166207
H95   H     H_    0.759640 0.193331 0.754672 0.144964
O54   O     O_3   0.179828 0.039916 0.365646 -0.553915
C180  C     C_3   0.217477 0.104574 0.337798 0.018167
H96   H     H_    0.245254 0.058799 0.311817 0.129140
H97   H     H_    0.247237 0.150004 0.362897 0.135917
C181  C     C_3   0.179285 0.179231 0.307405 -0.250377
H98   H     H_    0.146165 0.135191 0.285010 0.184197
H99   H     H_    0.154803 0.231179 0.332837 0.168664
C182  C     C_3   0.217434 0.243620 0.272612 -0.467032
H100  H     H_    0.251781 0.286867 0.293959 0.165992
H101  H     H_    0.188716 0.299235 0.252261 0.166342
H102  H     H_    0.239808 0.193305 0.245198 0.144886
O55   O     O_3   0.320147 0.539981 0.634342 -0.553932
C183  C     C_3   0.282519 0.604382 0.662351 0.018342
H103  H     H_    0.255176 0.558409 0.688583 0.129413
H104  H     H_    0.252328 0.649356 0.637393 0.135657
C184  C     C_3   0.320729 0.679645 0.692391 -0.250235
H105  H     H_    0.354247 0.636109 0.714625 0.184087
H106  H     H_    0.344762 0.731740 0.666715 0.168626
C185  C     C_3   0.282674 0.743787 0.727364 -0.467094
H107  H     H_    0.247983 0.786605 0.706184 0.166014
H108  H     H_    0.311391 0.799778 0.747480 0.166653
H109  H     H_    0.260725 0.693356 0.754979 0.144753
O56   O     O_3   0.679908 0.539931 0.365647 -0.553898
C186  C     C_3   0.717631 0.604631 0.337888 0.018107
H110  H     H_    0.745575 0.558890 0.312016 0.128973
H111  H     H_    0.747234 0.650176 0.363066 0.136029
C187  C     C_3   0.679521 0.679132 0.307338 -0.250420
H112  H     H_    0.646574 0.634959 0.284833 0.184182
H113  H     H_    0.654844 0.731018 0.332661 0.168738
C188  C     C_3   0.717786 0.743618 0.272674 -0.467008
H114  H     H_    0.751964 0.787005 0.294139 0.166060
H115  H     H_    0.689117 0.799114 0.252198 0.166238
H116  H     H_    0.740376 0.693354 0.245364 0.144964
Cl1   Cl    Cl    0.863968 0.976926 0.366058 -0.612622
Cl2   Cl    Cl    0.136042 0.976764 0.633953 -0.612609
Cl3   Cl    Cl    0.363956 0.476903 0.366079 -0.612584
Cl4   Cl    Cl    0.636024 0.476932 0.633952 -0.612614

loop_
_geom_bond_atom_site_label_1
_geom_bond_atom_site_label_2
_ccdc_geom_bond_type
C99   C103  A    
C7    C168  A    
C92   O40   A    
C55   C59   A    
C142  C146  A    
C131  C151  A    
C19   C20   A    
C45   O29   A    
C53   C69   A    
C38   C70   S    
C114  H46   S    
C178  H91   S    
C108  C164  S    
C37   C69   S    
C26   C50   A    
C95   C99   A    
C176  H44   S    
C29   C33   A    
C100  C104  A    
C185  H109  S    
C3    C74   S    
C9    C13   A    
C163  O43   A    
C21   H66   S    
C146  C150  A    
C77   C101  A    
Cr7   O51   S    
C12   C16   A    
C56   C72   A    
C169  C174  A    
C125  Cl1   S    
C172  C175  A    
C141  C145  A    
C122  H58   S    
C188  H116  S    
C108  C112  A    
C138  C154  A    
C6    C165  A    
C148  H52   S    
C21   C22   A    
C135  O51   A    
C112  H36   S    
C41   C49   A    
Cr12  O16   S    
C50   H14   S    
C165  C169  A    
C177  H89   S    
C27   C31   A    
C28   C32   A    
Cr9   O13   S    
O54   C180  S    
Cr10  O10   S    
C62   C66   A    
C179  H93   S    
C167  C171  A    
C98   C102  A    
C60   C76   A    
C29   H69   S    
Cr6   O30   S    
Cr8   O52   S    
C15   C19   A    
C78   C82   A    
C102  H25   S    
C134  C155  S    
C54   C70   A    
C36   C40   A    
C68   C72   A    
C183  H103  S    
C165  H2    S    
C137  C153  A    
C2    O26   A    
C3    O23   A    
Cr8   O28   S    
C20   C172  A    
C132  C152  A    
C62   H6    S    
C130  C138  A    
C109  H33   S    
C178  C179  S    
C160  O8    A    
C84   C88   A    
C92   O4    A    
C175  H43   S    
Cr6   O6    S    
C119  C123  A    
C26   C90   S    
C5    C46   S    
C105  C125  A    
C7    C48   S    
Cr6   O26   S    
Cr3   O23   S    
C8    C47   S    
C107  C127  A    
C136  C153  S    
C66   C70   A    
C144  H56   S    
C140  C156  A    
C61   C65   A    
C158  O6    A    
C129  C137  A    
C130  H38   S    
C39   C71   S    
C34   H82   S    
C47   O31   A    
C4    O24   A    
C89   O37   A    
C103  H28   S    
C55   C71   A    
C2    C75   S    
C128  Cl4   S    
C124  H60   S    
Cr10  O38   S    
C161  O13   A    
O55   C183  S    
C134  O46   A    
Cr4   O4    S    
C46   O34   A    
C6    C9    A    
C121  C125  A    
C12   H63   S    
C64   C68   A    
Cr5   O17   S    
O56   C186  S    
C183  C184  S    
C53   H73   S    
C25   C29   A    
C161  O41   A    
C86   H30   S    
C81   H17   S    
C57   C73   A    
C83   H19   S    
C85   C93   A    
C78   C158  S    
C146  H50   S    
C42   H10   S    
C87   C95   A    
C130  C150  A    
C23   C24   A    
C27   C91   S    
C110  C114  A    
C44   C52   A    
C164  O44   A    
C79   C103  A    
C11   C15   A    
C179  H95   S    
C27   C51   A    
C180  H97   S    
C7    C12   A    
C98   H21   S    
C49   H13   S    
C30   C34   A    
C65   H85   S    
C32   H72   S    
C41   H9    S    
C10   C14   A    
C164  O16   A    
C133  O49   A    
C142  H54   S    
C108  C128  A    
C116  C120  A    
C144  C156  A    
C185  H108  S    
C129  C149  A    
C84   H20   S    
C123  C127  A    
C139  C155  A    
C89   O1    A    
C17   C18   A    
C36   H84   S    
C5    C166  A    
C142  C154  A    
C91   O3    A    
C174  H42   S    
C187  C188  S    
C4    C73   S    
Cr12  O20   S    
C173  H41   S    
C42   C50   A    
C113  C117  A    
C184  H106  S    
C107  C163  S    
C26   C30   A    
C115  C119  A    
C186  C187  S    
C105  C161  S    
Cr9   O17   S    
C117  C121  A    
Cr10  O14   S    
C61   H5    S    
C82   H18   S    
Cr11  O19   S    
C58   C74   A    
Cr4   O44   S    
C184  H105  S    
C105  C109  A    
C40   C72   S    
C30   H70   S    
C1    C76   S    
C107  C111  A    
C148  C152  A    
C23   H68   S    
C117  C149  S    
C44   H12   S    
C147  H51   S    
C171  C176  A    
C100  H23   S    
C11   H64   S    
C13   C17   A    
C166  H1    S    
C14   C22   A    
C9    H62   S    
Cr3   O47   S    
C182  H102  S    
C141  C153  A    
C63   C75   A    
C147  C151  A    
C64   H8    S    
C143  H55   S    
C37   C41   A    
C163  O15   A    
C131  C139  A    
C173  C174  A    
C40   C44   A    
C56   C60   A    
C181  H98   S    
C18   C170  A    
C129  H37   S    
C81   C85   A    
C188  H115  S    
C140  O56   S    
C83   C87   A    
C88   C96   A    
Cr1   O17   S    
C6    C45   S    
C93   C97   A    
C78   C102  A    
C133  C156  S    
Cr3   O19   S    
Cr2   O22   S    
Cr7   O19   S    
C80   C84   A    
C115  H47   S    
C113  H45   S    
C135  C154  S    
C177  H90   S    
C80   C104  A    
C1    O21   A    
C60   H80   S    
C132  H40   S    
C79   C159  S    
C80   C160  S    
C112  C116  A    
C94   C98   A    
C135  O47   A    
C47   O35   A    
C4    O28   A    
C118  C150  S    
C187  H112  S    
C22   H65   S    
C90   O38   A    
Cr12  O12   S    
C177  C178  S    
C183  H104  S    
C159  O7    A    
C186  H110  S    
Cr11  O39   S    
C126  Cl2   S    
C46   O30   A    
C124  C128  A    
C121  H57   S    
Cr4   O20   S    
Cr1   O21   S    
Cr7   O31   S    
Cr6   O18   S    
C51   H15   S    
C178  H92   S    
C162  O42   A    
C179  H94   S    
C182  H100  S    
C53   C57   A    
C157  O9    A    
C61   C73   A    
C82   C86   A    
C141  H53   S    
C88   H32   S    
C52   H16   S    
C48   O36   A    
Cr12  O36   S    
C35   C39   A    
C8    C167  A    
Cr4   O48   S    
C181  C182  S    
C77   C81   A    
C101  H26   S    
C116  H48   S    
Cr9   O33   S    
C111  H35   S    
Cr11  O35   S    
C63   H7    S    
C66   H86   S    
Cr1   O41   S    
C110  H34   S    
C32   C36   A    
Cr3   O43   S    
C133  O45   A    
C104  H27   S    
Cr8   O8    S    
C162  O14   A    
C132  C140  A    
C106  C126  A    
C25   C89   S    
C143  C155  A    
C90   O2    A    
C45   O33   A    
Cr4   O24   S    
Cr12  O40   S    
C79   C83   A    
C43   C51   A    
C65   C69   A    
C67   C71   A    
C106  C162  S    
C67   H87   S    
Cr10  O18   S    
C25   C49   A    
Cr11  O15   S    
C131  H39   S    
C168  C172  A    
Cr7   O7    S    
C139  O55   S    
C134  O50   A    
C62   C74   A    
C31   H71   S    
C145  C149  A    
C170  C173  A    
C93   C94   S    
Cr2   O46   S    
O53   C177  S    
C14   C18   A    
C95   C96   S    
C144  C148  A    
Cr8   O20   S    
C180  H96   S    
C143  C147  A    
C167  H4    S    
C168  H3    S    
C55   H75   S    
C138  O54   S    
C56   H76   S    
C19   C171  A    
C38   C42   A    
Cr8   O32   S    
C17   C169  A    
C96   C100  A    
Cr2   O2    S    
C85   H29   S    
C86   C94   A    
Cr11  O11   S    
C175  C176  A    
C145  H49   S    
Cr2   O18   S    
C59   H79   S    
C87   H31   S    
C16   C20   A    
Cr5   O49   S    
C15   C23   A    
Cr3   O3    S    
C16   C24   A    
C186  H111  S    
C1    O25   A    
Cr1   O45   S    
C2    O22   A    
C3    O27   A    
C99   H24   S    
C119  C151  S    
C63   C67   A    
C120  C152  S    
C127  Cl3   S    
C97   H22   S    
C13   C21   A    
C54   H74   S    
C48   O32   A    
C91   O39   A    
C39   C43   A    
C159  O11   A    
Cr5   O29   S    
C160  O12   A    
C122  C126  A    
C24   H67   S    
C118  C122  A    
Cr5   O5    S    
C182  H101  S    
C68   H88   S    
C58   H78   S    
C64   C76   A    
Cr5   O25   S    
C28   C92   S    
C109  C113  A    
Cr7   O27   S    
C114  C118  A    
C137  O53   S    
C181  H99   S    
C59   C75   A    
C157  O5    A    
C188  H114  S    
C54   C58   A    
C180  C181  S    
C158  O10   A    
C33   H81   S    
C34   C38   A    
C35   H83   S    
C43   H11   S    
Cr1   O1    S    
Cr9   O37   S    
Cr6   O50   S    
Cr10  O34   S    
C10   H61   S    
C5    C10   A    
C123  H59   S    
C28   C52   A    
C8    C11   A    
C166  C170  A    
C33   C37   A    
C136  O48   A    
C31   C35   A    
C185  H107  S    
Cr2   O42   S    
C187  H113  S    
C136  O52   A    
C57   H77   S    
C184  C185  S    
C106  C110  A    
Cr9   O9    S    
C111  C115  A    
C97   C101  A    
C120  C124  A    
C77   C157  S    
