data_mof_unit_pretest_1475.cif
_audit_creation_date              2013-03-05T16:30:58-0500
_audit_creation_method            fapswitch 2.2
_symmetry_space_group_name_H-M    P1
_symmetry_Int_Tables_number       1
_space_group_crystal_system       triclinic
_cell_length_a                    13.04358
_cell_length_b                    10.864436
_cell_length_c                    9.576229
_cell_angle_alpha                 91.576632
_cell_angle_beta                  96.155865
_cell_angle_gamma                 90.951558
_cell_volume                      1348.46138637

loop_
_atom_site_label
_atom_site_type_symbol
_atom_site_description
_atom_site_fract_x
_atom_site_fract_y
_atom_site_fract_z
_atom_type_partial_charge
O1    O     O_R   0.500000 0.319640 0.618810 -0.585379
O2    O     O_R   0.500010 0.319680 0.381230 -0.588858
C1    C     C_R   0.496551 0.262633 0.497797 0.811781
O3    O     O_R   0.348990 0.499960 0.599490 -0.615202
O4    O     O_R   0.349000 0.500000 0.361910 -0.526289
C2    C     C_R   0.300411 0.501402 0.473406 0.861611
Cu1   Cu    Cu3+1 0.499990 0.499980 0.640670 0.982666
Cu2   Cu    Cu3+1 0.500010 0.500020 0.359330 1.030722
O5    O     O_R   0.499990 0.680320 0.618770 -0.542722
O6    O     O_R   0.500000 0.680360 0.381190 -0.545320
O7    O     O_R   0.651000 0.500000 0.638090 -0.593493
O8    O     O_R   0.651010 0.500040 0.400510 -0.535593
C3    C     C_R   0.493862 0.737771 0.500003 0.836150
C4    C     C_R   0.699086 0.492927 0.525879 0.861719
C5    C     C_R   0.811701 0.481687 0.540097 -0.176412
C6    C     C_R   0.187045 0.502875 0.456795 -0.146112
C7    C     C_R   0.021719 0.509398 0.312071 0.324033
C8    C     C_R   0.130514 0.513532 0.323731 0.332258
C9    C     C_R   0.135247 0.492924 0.576664 -0.250581
C10   C     C_R   0.027799 0.488680 0.566549 -0.072371
C11   C     C_R   0.971276 0.485380 0.431742 -0.081558
C12   C     C_R   0.863872 0.465065 0.420402 0.406366
C13   C     C_R   0.867665 0.486255 0.673134 -0.322570
C14   C     C_R   0.975105 0.485691 0.687862 0.402552
H1    H     H_    0.828116 0.489857 0.766491 0.193055
H2    H     H_    0.179449 0.486226 0.678145 0.216815
C15   C     C_R   0.488711 0.068743 0.619385 0.128997
C16   C     C_R   0.482960 0.130013 0.493989 -0.152633
C17   C     C_R   0.456052 0.062269 0.368341 -0.259399
H3    H     H_    0.440975 0.109313 0.270170 0.199582
C18   C     C_R   0.449760 0.932799 0.368715 0.328819
C19   C     C_R   0.476384 0.871003 0.497100 -0.224333
C20   C     C_R   0.485424 0.942356 0.621846 0.077747
C21   C     C_3   0.562607 0.944140 0.749084 -0.356897
C22   C     C_3   0.566469 0.082936 0.744096 -0.455125
H4    H     H_    0.526686 0.915427 0.842912 0.248345
H5    H     H_    0.636613 0.901037 0.729277 0.236138
H6    H     H_    0.534753 0.129558 0.834505 0.219629
H7    H     H_    0.641775 0.120441 0.718089 0.203059
C23   C     C_R   0.590156 0.512509 0.087861 0.222302
N1    N     N_R   0.500660 0.500930 0.148010 -0.188735
C24   C     C_R   0.412697 0.473937 0.060497 0.000870
H8    H     H_    0.341890 0.452571 0.103829 0.191504
C25   C     C_R   0.412462 0.474716 0.912302 -0.044526
H9    H     H_    0.340967 0.455073 0.847312 0.158895
N2    N     N_R   0.500660 0.500890 0.852110 -0.188644
C26   C     C_R   0.590521 0.510812 0.940331 0.142942
C27   C     C_3   0.665339 0.617746 0.952827 0.191621
C28   C     C_3   0.663997 0.618832 0.110904 -0.470151
H10   H     H_    0.741640 0.596014 0.918794 0.161276
H11   H     H_    0.739496 0.594866 0.166286 0.249547
H12   H     H_    0.628975 0.701767 0.155571 0.227517
O9    O     O_3   0.809588 0.420556 0.297047 -0.705941
H13   H     H_    0.855924 0.368840 0.245669 0.362673
O10   O     O_3   0.623504 0.723728 0.892208 -0.701103
H14   H     H_    0.553851 0.733853 0.923569 0.355820
O11   O     O_3   0.963269 0.539027 0.188857 -0.700068
H15   H     H_    0.003861 0.595621 0.135769 0.379741
N3    N     N_R   0.028678 0.488207 0.826665 0.099634
O12   O     O_R   0.000455 0.412362 0.918781 -0.372651
O13   O     O_R   0.091521 0.579429 0.868122 -0.372685
O14   O     O_3   0.182348 0.528255 0.206993 -0.688688
H16   H     H_    0.141461 0.487212 0.125262 0.373386
N4    N     N_R   0.416535 0.867151 0.239099 0.137064
O15   O     O_R   0.341131 0.786610 0.234049 -0.300039
O16   O     O_R   0.447821 0.903294 0.122064 -0.392758

loop_
_geom_bond_atom_site_label_1
_geom_bond_atom_site_label_2
_geom_bond_distance
_ccdc_geom_bond_type
O1    C1    1.294966 A    
C23   C26   1.412911 A    
C22   H7    1.112499 S    
C13   C14   1.393481 A    
O9    H13   0.991403 S    
C17   H3    1.083446 S    
C27   O10   1.396522 S    
C21   H5    1.111972 S    
N1    C24   1.368874 A    
C3    C19   1.469628 S    
C18   C19   1.429857 A    
Cu2   O8    1.966765 S    
C28   H12   1.112595 S    
N4    O15   1.301638 A    
O10   H14   0.993851 S    
C27   H10   1.107060 S    
C7    C8    1.411346 A    
N3    O12   1.300862 A    
C17   C18   1.407772 A    
O1    Cu1   1.964713 S    
C11   C12   1.406735 A    
C19   C20   1.399174 A    
Cu1   O7    1.972511 S    
C15   C20   1.374012 A    
C16   C17   1.401698 A    
O11   H15   0.990428 S    
O14   H16   0.989554 S    
C24   C25   1.419082 A    
C14   N3    1.433179 S    
C5    C13   1.397943 A    
C23   N1    1.361476 A    
C5    C12   1.403388 A    
O8    C4    1.298387 A    
Cu2   N1    2.024870 S    
O2    C1    1.296221 A    
C12   O9    1.381454 S    
C21   H4    1.106815 S    
C13   H1    1.079148 S    
C6    C9    1.398775 A    
O4    C2    1.298642 A    
C21   C22   1.510183 S    
O7    C4    1.302149 A    
O2    Cu2   1.976214 S    
N3    O13   1.301274 A    
O4    Cu2   1.972509 S    
C1    C16   1.447766 S    
C24   H8    1.076769 S    
C2    C6    1.470568 S    
C23   C28   1.488001 S    
Cu1   N2    2.023632 S    
C10   C14   1.412674 A    
Cu1   Cu2   2.694216 S    
C22   H6    1.112162 S    
C20   C21   1.494491 S    
C10   C11   1.415566 A    
O3    Cu1   1.966765 S    
C6    C8    1.410767 A    
O3    C2    1.302640 A    
C28   H11   1.105876 S    
C15   C16   1.384564 A    
Cu1   O5    1.976214 S    
C9    H2    1.080387 S    
O5    C3    1.307955 A    
C4    C5    1.468029 S    
C27   C28   1.515485 S    
C8    O14   1.378683 S    
C25   N2    1.370017 A    
C15   C22   1.484469 S    
N2    C26   1.370267 A    
C18   N4    1.436246 S    
Cu2   O6    1.964711 S    
C7    C11   1.409527 A    
C25   H9    1.078949 S    
C9    C10   1.394345 A    
C7    O11   1.383195 S    
C26   C27   1.498682 S    
O6    C3    1.293112 A    
N4    O16   1.301457 A    
