data_mof_unit_pretest_279.cif
_audit_creation_date              2012-12-11T15:08:36-0500
_audit_creation_method            fapswitch 2.2
_symmetry_space_group_name_H-M    P1
_symmetry_Int_Tables_number       1
_space_group_crystal_system       triclinic
_cell_length_a                    26.802316
_cell_length_b                    7.078318
_cell_length_c                    12.00235
_cell_angle_alpha                 89.997788
_cell_angle_beta                  103.587316
_cell_angle_gamma                 90.000147
_cell_volume                      2213.30246347

loop_
_atom_site_label
_atom_site_type_symbol
_atom_type_description
_atom_site_fract_x
_atom_site_fract_y
_atom_site_fract_z
_atom_type_partial_charge
O1    O     O_R   0.437360 0.505910 0.042120 -0.524941
O2    O     O_R   0.562640 0.005910 0.957880 -0.524947
O3    O     O_R   0.542480 0.176660 0.157100 -0.543133
O4    O     O_R   0.457520 0.676660 0.842900 -0.543138
C1    C     C_R   0.555925 0.344222 0.198660 0.808465
C2    C     C_R   0.444078 0.844229 0.801339 0.808449
O5    O     O_R   0.436520 0.176250 0.054800 -0.539455
O6    O     O_R   0.563480 0.676250 0.945200 -0.539456
O7    O     O_R   0.455920 0.005040 0.854840 -0.534051
O8    O     O_R   0.544080 0.505040 0.145160 -0.534061
C3    C     C_R   0.417476 0.344561 0.063624 0.857901
C4    C     C_R   0.582523 0.844564 0.936377 0.857895
O9    O     O_3   0.506490 0.338900 0.934520 -0.383347
O10   O     O_3   0.493510 0.838900 0.065480 -0.383343
V1    V     V_3+5 0.498800 0.064400 0.012150 1.655565
V2    V     V_3+5 0.501200 0.564400 0.987850 1.655549
C5    C     C_R   0.680751 0.789593 0.759386 0.629980
C6    C     C_R   0.319250 0.289470 0.240609 0.629917
C7    C     C_R   0.631481 0.849088 0.901048 -0.254825
C8    C     C_R   0.368519 0.349070 0.098956 -0.254805
C9    C     C_R   0.867915 0.866837 0.210455 0.509243
C10   C     C_R   0.132088 0.366911 0.789548 0.509261
C11   C     C_R   0.822203 0.854538 0.245165 -0.307693
C12   C     C_R   0.177800 0.354624 0.754838 -0.307689
C13   C     C_R   0.775329 0.845901 0.164876 0.631854
C14   C     C_R   0.224673 0.345942 0.835129 0.631874
C15   C     C_R   0.772834 0.857386 0.045271 0.012516
C16   C     C_R   0.227167 0.357377 0.954734 0.012515
C17   C     C_R   0.820252 0.855463 0.010497 -0.186923
C18   C     C_R   0.179748 0.355428 0.989506 -0.186865
C19   C     C_R   0.725500 0.856421 0.958894 -0.145114
C20   C     C_R   0.274501 0.356387 0.041111 -0.145108
C21   C     C_R   0.726822 0.820678 0.842739 -0.244882
C22   C     C_R   0.273178 0.320580 0.157260 -0.244874
C23   C     C_R   0.774127 0.817711 0.811478 0.745073
C24   C     C_R   0.225873 0.317571 0.188519 0.744953
C25   C     C_R   0.819718 0.841036 0.893474 -0.147191
C26   C     C_R   0.180281 0.340931 0.106525 -0.147126
C27   C     C_R   0.676833 0.892150 0.982286 0.638038
C28   C     C_R   0.323166 0.392153 0.017723 0.638054
C29   C     C_R   0.633183 0.793907 0.789914 0.266308
C30   C     C_R   0.366818 0.293816 0.210081 0.266303
C31   C     C_R   0.867569 0.862792 0.093909 -0.166324
C32   C     C_R   0.132431 0.362802 0.906093 -0.166332
H1    H     H_    0.823103 0.846846 0.335753 0.200255
H2    H     H_    0.176901 0.346972 0.664251 0.200243
H3    H     H_    0.855005 0.839794 0.864333 0.142538
H4    H     H_    0.144994 0.339658 0.135664 0.142483
C33   C     C_R   0.092592 0.857189 0.309803 -0.156672
C34   C     C_R   0.907415 0.357197 0.690184 -0.156693
C35   C     C_R   0.410307 0.847370 0.685937 -0.142348
C36   C     C_R   0.589704 0.347345 0.314055 -0.142360
C37   C     C_R   0.107858 0.809217 0.513888 -0.099701
C38   C     C_R   0.892161 0.308938 0.486124 -0.099744
C39   C     C_R   0.073918 0.825032 0.407194 -0.234650
C40   C     C_R   0.926093 0.324789 0.592826 -0.234582
C41   C     C_R   0.145563 0.870336 0.318204 0.556483
C42   C     C_R   0.854444 0.370522 0.681744 0.556442
C43   C     C_R   0.181152 0.840588 0.425015 0.026365
C44   C     C_R   0.818863 0.340626 0.574946 0.026334
C45   C     C_R   0.161022 0.817677 0.523792 0.048577
C46   C     C_R   0.838996 0.317539 0.476192 0.048598
C47   C     C_R   0.235675 0.833097 0.438133 0.065652
C48   C     C_R   0.764342 0.333140 0.561832 0.065612
C49   C     C_R   0.268700 0.836158 0.550301 0.077105
C50   C     C_R   0.731317 0.336137 0.449666 0.077102
C51   C     C_R   0.246711 0.808473 0.644983 -0.089672
C52   C     C_R   0.753306 0.308380 0.354991 -0.089641
C53   C     C_R   0.193995 0.799341 0.631788 -0.158774
C54   C     C_R   0.806023 0.299167 0.368197 -0.158776
C55   C     C_R   0.258205 0.806020 0.344219 -0.123495
C56   C     C_R   0.741820 0.306069 0.655756 -0.123433
C57   C     C_R   0.311034 0.790149 0.358829 0.678757
C58   C     C_R   0.688992 0.290175 0.641158 0.678809
C59   C     C_R   0.343965 0.808384 0.467856 -0.121179
C60   C     C_R   0.656056 0.308392 0.532131 -0.121206
C61   C     C_R   0.323125 0.846456 0.564125 -0.129761
C62   C     C_R   0.676891 0.346432 0.435848 -0.129784
C63   C     C_R   0.397354 0.783559 0.483210 0.711792
C64   C     C_R   0.602668 0.283575 0.516792 0.711848
C65   C     C_R   0.429652 0.794225 0.592344 -0.323947
C66   C     C_R   0.570364 0.294233 0.407664 -0.323957
C67   C     C_R   0.357998 0.887212 0.671217 0.348949
C68   C     C_R   0.642015 0.387151 0.328752 0.348987
H5    H     H_    0.178906 0.777114 0.707046 0.134328
H6    H     H_    0.821114 0.276849 0.292951 0.134310
H7    H     H_    0.470188 0.764151 0.603729 0.194382
H8    H     H_    0.529828 0.264181 0.396295 0.194382
H9    H     H_    0.092523 0.787892 0.588868 0.168105
H10   H     H_    0.907499 0.287451 0.411165 0.168149
H11   H     H_    0.033002 0.814076 0.400608 0.186404
H12   H     H_    0.967009 0.313682 0.599440 0.186390
H13   H     H_    0.269869 0.782121 0.730090 0.208086
H14   H     H_    0.730148 0.282004 0.269890 0.208089
H15   H     H_    0.235795 0.779764 0.258785 0.197659
H16   H     H_    0.764241 0.279819 0.741187 0.197523
O11   O     O_R   0.955980 0.206520 0.854760 -0.548241
O12   O     O_R   0.044020 0.706520 0.145240 -0.548192
O13   O     O_R   0.063490 0.536770 0.945200 -0.541263
O14   O     O_R   0.936510 0.036770 0.054800 -0.541308
C69   C     C_R   0.082925 0.368836 0.938575 0.785955
C70   C     C_R   0.917075 0.868833 0.061425 0.785935
O15   O     O_R   0.957530 0.536190 0.842880 -0.533958
O16   O     O_R   0.042470 0.036190 0.157120 -0.534016
O17   O     O_R   0.937350 0.707210 0.042130 -0.537105
O18   O     O_R   0.062650 0.207210 0.957870 -0.537123
C71   C     C_R   0.943071 0.367617 0.802730 0.803493
C72   C     C_R   0.056928 0.867612 0.197269 0.803594
O19   O     O_3   0.993540 0.373870 0.065440 -0.383962
O20   O     O_3   0.006460 0.873870 0.934560 -0.383948
V3    V     V_3+5 0.001200 0.648440 0.987860 1.534206
V4    V     V_3+5 0.998800 0.148440 0.012140 1.534043
O21   O     O_3   0.587639 0.751694 0.712293 -0.616120
H17   H     H_    0.594892 0.711444 0.638652 0.357692
O22   O     O_3   0.412361 0.251571 0.287695 -0.616102
H18   H     H_    0.405104 0.211129 0.361299 0.357683
O23   O     O_3   0.343115 0.974885 0.760665 -0.620028
H19   H     H_    0.314941 0.062647 0.726611 0.362754
O24   O     O_3   0.656895 0.474754 0.239275 -0.620044
H20   H     H_    0.685066 0.562539 0.273299 0.362760
F1    F     F_    0.329626 0.755699 0.264807 -0.649256
F2    F     F_    0.670405 0.255715 0.735188 -0.649262
F3    F     F_    0.160756 0.923598 0.222694 -0.712881
F4    F     F_    0.839240 0.424115 0.777182 -0.712775
F5    F     F_    0.418377 0.739988 0.393937 -0.610101
F6    F     F_    0.581650 0.240031 0.606079 -0.610099
F7    F     F_    0.776802 0.794565 0.700675 -0.625403
F8    F     F_    0.223197 0.294349 0.299317 -0.625489
F9    F     F_    0.681913 0.750927 0.649068 -0.648261
F10   F     F_    0.318089 0.250761 0.350924 -0.648285
F11   F     F_    0.672248 0.983034 0.078935 -0.621007
F12   F     F_    0.327749 0.483084 0.921083 -0.621016
F13   F     F_    0.912913 0.874865 0.291021 -0.696922
F14   F     F_    0.087091 0.374984 0.708981 -0.696899
F15   F     F_    0.734006 0.805452 0.206789 -0.641756
F16   F     F_    0.265997 0.305493 0.793218 -0.641742

loop_
_geom_bond_atom_site_label_1
_geom_bond_atom_site_label_2
_ccdc_geom_bond_type
C50   C52   A    
C47   C49   A    
C11   H1    S    
C15   C17   A    
O1    C3    A    
C48   C56   A    
O2    C4    A    
C2    O7    A    
C53   H5    S    
O18   V4    S    
O5    C3    A    
C18   C26   A    
C58   C60   A    
C10   F14   S    
O15   V3    S    
C23   C25   A    
C60   C62   A    
C38   H10   S    
C6    C30   A    
C8    C28   A    
C56   H16   S    
C41   C43   A    
C55   H15   S    
C61   C67   A    
C42   C44   A    
O22   H18   S    
O12   C72   A    
C46   C54   A    
C70   O17   A    
C44   C46   A    
C36   C68   A    
O20   V3    S    
C39   H11   S    
C9    C31   A    
C37   C45   A    
C10   C32   A    
C16   C18   A    
C49   C51   A    
C19   C21   A    
C1    C36   S    
C32   C69   S    
C2    C35   S    
C25   H3    S    
C35   C65   A    
C26   H4    S    
O5    V1    S    
C28   F12   S    
O6    V2    S    
C17   C31   A    
C57   C59   A    
C18   C32   A    
C24   F8    S    
C5    C21   A    
C63   F5    S    
C9    F13   S    
C33   C72   S    
O20   V4    S    
C37   C39   A    
C50   C62   A    
C38   C40   A    
C3    C8    S    
C43   C45   A    
C49   C61   A    
C15   C19   A    
C34   C42   A    
C16   C20   A    
C56   C58   A    
O19   V4    S    
C63   C65   A    
O11   V4    S    
C38   C46   A    
C33   C39   A    
C5    F9    S    
C34   C40   A    
O16   V4    S    
C51   C53   A    
C48   C50   A    
O4    V2    S    
C36   C66   A    
C41   F3    S    
C6    C22   A    
O6    C4    A    
O13   V3    S    
O14   C70   A    
O1    V2    S    
C23   F7    S    
O2    V1    S    
C59   C61   A    
C65   H7    S    
C7    C27   A    
C64   C66   A    
C58   F2    S    
C47   C55   A    
O14   V4    S    
C57   F1    S    
C9    C11   A    
C37   H9    S    
C34   C71   S    
C10   C12   A    
C43   C47   A    
C6    F10   S    
O4    C2    A    
C54   H6    S    
C35   C67   A    
O16   C72   A    
O3    V1    S    
C55   C57   A    
O21   H17   S    
C45   C53   A    
C69   O18   A    
O12   V3    S    
O13   C69   A    
C42   F4    S    
C60   C64   A    
C29   O21   S    
O3    C1    A    
C33   C41   A    
C8    C30   A    
O24   H20   S    
C13   C15   A    
C52   H14   S    
C14   C16   A    
C44   C48   A    
C12   H2    S    
C67   O23   S    
O19   V3    S    
O7    V1    S    
C31   C70   S    
C1    O8    A    
O8    V2    S    
O23   H19   S    
C12   C14   A    
C64   F6    S    
C68   O24   S    
C66   H8    S    
C4    C7    S    
C24   C26   A    
C21   C23   A    
C19   C27   A    
C22   C24   A    
C20   C28   A    
O17   V3    S    
C13   F15   S    
C5    C29   A    
C27   F11   S    
C14   F16   S    
O11   C71   A    
C62   C68   A    
C30   O22   S    
C40   H12   S    
C11   C13   A    
C52   C54   A    
O9    V2    S    
C17   C25   A    
C51   H13   S    
O10   V1    S    
O15   C71   A    
C59   C63   A    
C7    C29   A    
C20   C22   A    
