data_mof_unit_pretest_638.cif
_audit_creation_date              2013-03-05T15:43:10-0500
_audit_creation_method            fapswitch 2.2
_symmetry_space_group_name_H-M    P1
_symmetry_Int_Tables_number       1
_space_group_crystal_system       triclinic
_cell_length_a                    12.789976
_cell_length_b                    10.530328
_cell_length_c                    10.056338
_cell_angle_alpha                 88.576047
_cell_angle_beta                  97.890556
_cell_angle_gamma                 90.957319
_cell_volume                      1341.05551535

loop_
_atom_site_label
_atom_site_type_symbol
_atom_site_description
_atom_site_fract_x
_atom_site_fract_y
_atom_site_fract_z
_atom_type_partial_charge
O1    O     O_R   0.499980 0.319060 0.613040 -0.631698
O2    O     O_R   0.500020 0.319100 0.386900 -0.530921
C1    C     C_R   0.482759 0.263519 0.498399 0.899951
O3    O     O_R   0.346340 0.499960 0.594380 -0.621144
O4    O     O_R   0.346380 0.500000 0.368250 -0.592213
C2    C     C_R   0.298514 0.500522 0.472789 0.805431
Zn1   Zn    Zn3+2 0.499980 0.499970 0.650990 1.038530
Zn2   Zn    Zn3+2 0.500020 0.500030 0.349010 1.087230
O5    O     O_R   0.499980 0.680900 0.613100 -0.569283
O6    O     O_R   0.500020 0.680940 0.386960 -0.612238
O7    O     O_R   0.653620 0.500000 0.631750 -0.585862
O8    O     O_R   0.653660 0.500040 0.405620 -0.524663
C3    C     C_R   0.500994 0.738684 0.498336 0.942749
C4    C     C_R   0.701794 0.496777 0.527375 0.995405
C5    C     C_R   0.814746 0.491187 0.547601 -0.236584
C6    C     C_R   0.186486 0.488193 0.456063 -0.089444
C7    C     C_R   0.038585 0.344315 0.407761 -0.015546
C8    C     C_R   0.142560 0.377495 0.398395 -0.220402
C9    C     C_R   0.128875 0.569582 0.524728 -0.074940
C10   C     C_R   0.028714 0.528684 0.550803 -0.006419
C11   C     C_R   0.977678 0.426395 0.475508 0.003363
C12   C     C_R   0.867455 0.414537 0.466792 0.281556
C13   C     C_R   0.869678 0.568361 0.644466 -0.241401
C14   C     C_R   0.977434 0.586356 0.649221 0.345957
H1    H     H_    0.827874 0.618944 0.712837 0.255969
H2    H     H_    0.191995 0.312500 0.353718 0.180347
C15   C     C_2   0.432845 0.929568 0.390565 -0.171723
C16   C     C_2   0.496283 0.873692 0.491226 -0.269763
H3    H     H_    0.390269 0.874119 0.310166 0.180506
H4    H     H_    0.542030 0.926595 0.570987 0.171177
C17   C     C_2   0.424811 0.067576 0.381596 0.366591
C18   C     C_2   0.437269 0.135446 0.495865 -0.350078
C19   C     C_2   0.569331 0.560780 0.936276 0.277895
N1    N     N_2   0.501130 0.501330 0.852280 -0.230481
H5    H     H_    0.432398 0.471703 0.886782 0.161204
C20   C     C_2   0.553075 0.581153 0.079884 -0.122532
N2    N     N_2   0.501160 0.501360 0.147950 -0.194845
H6    H     H_    0.475128 0.418893 0.100548 0.209185
N3    N     N_R   0.807856 0.336913 0.366832 0.230449
O9    O     O_R   0.815105 0.357433 0.240249 -0.327373
O10   O     O_R   0.739885 0.253135 0.401117 -0.337074
C21   C     C_2   0.401010 0.084984 0.622685 0.405475
H7    H     H_    0.432639 0.124357 0.718829 0.130746
O11   O     O_2   0.332618 0.002345 0.620240 -0.510653
N4    N     N_R   0.662683 0.613750 0.891642 0.221289
O12   O     O_R   0.754445 0.580464 0.953745 -0.322006
O13   O     O_R   0.656212 0.715988 0.816034 -0.379914
C22   C     C_2   0.600627 0.698525 0.140700 0.616439
H8    H     H_    0.586259 0.788511 0.086904 0.069585
O14   O     O_2   0.662475 0.695502 0.244194 -0.496011
C23   C     C_2   0.004565 0.215053 0.363499 0.562419
H9    H     H_    0.032906 0.176186 0.276261 0.088404
O15   O     O_2   0.951206 0.147601 0.429152 -0.469082
N5    N     N_R   0.034343 0.654233 0.759611 0.246817
O16   O     O_R   0.988969 0.744658 0.815519 -0.276796
O17   O     O_R   0.125537 0.613722 0.816934 -0.369786
C24   C     C_2   0.169979 0.701380 0.552822 0.537221
H10   H     H_    0.254119 0.721802 0.566811 0.073944
O18   O     O_2   0.109774 0.790186 0.552770 -0.473172
N6    N     N_R   0.412664 0.126599 0.249756 0.228019
O19   O     O_R   0.343661 0.215839 0.219594 -0.399007
O20   O     O_R   0.454380 0.074957 0.153550 -0.360798

loop_
_geom_bond_atom_site_label_1
_geom_bond_atom_site_label_2
_geom_bond_distance
_ccdc_geom_bond_type
C17   N6    1.440134 S    
O4    Zn2   2.000808 S    
C13   C14   1.382484 A    
C3    C16   1.423568 S    
N2    H6    1.029344 S    
C15   H3    1.087716 S    
C2    C6    1.423670 S    
C19   N4    1.432000 S    
C17   C18   1.357725 D    
C9    C10   1.401253 A    
C8    H2    1.085268 S    
Zn2   O8    1.969357 S    
C5    C13   1.391142 A    
C7    C23   1.482360 S    
C22   O14   1.217824 D    
C7    C8    1.384422 A    
C5    C12   1.402691 A    
N3    O10   1.301725 A    
O1    Zn1   1.952170 S    
C11   C12   1.404062 A    
C9    C24   1.495572 S    
N6    O20   1.301533 A    
Zn1   O7    2.000808 S    
C24   H10   1.084586 S    
C1    C18   1.459258 S    
C21   O11   1.221788 D    
O3    Zn1   1.969357 S    
C12   N3    1.438520 S    
C16   H4    1.085593 S    
C20   N2    1.301151 D    
Zn1   N1    2.022680 S    
C19   N1    1.293071 D    
C20   C22   1.477112 S    
O2    C1    1.295985 A    
C13   H1    1.082136 S    
C6    C9    1.394456 A    
O4    C2    1.287297 A    
O7    C4    1.289396 A    
N5    O17   1.301725 A    
C24   O18   1.221216 D    
O3    C2    1.289863 A    
C21   H7    1.085034 S    
C15   C17   1.458295 S    
C23   H9    1.085658 S    
C10   C14   1.414195 A    
C15   C16   1.337937 D    
C19   C20   1.508051 S    
C10   C11   1.428629 A    
C6    C8    1.390346 A    
N1    H5    1.029415 S    
Zn2   N2    2.023679 S    
N4    O13   1.299640 A    
O2    Zn2   1.933675 S    
N3    O9    1.301455 A    
Zn1   O5    1.933673 S    
O5    C3    1.292799 A    
N5    O16   1.301620 A    
C22   H8    1.085085 S    
C18   C21   1.498128 S    
C23   O15   1.220811 D    
N4    O12   1.300735 A    
C14   N5    1.439881 S    
Zn2   O6    1.952169 S    
C7    C11   1.419694 A    
C4    C5    1.432983 S    
O8    C4    1.292679 A    
N6    O19   1.301542 A    
O1    C1    1.295828 A    
O6    C3    1.286134 A    
