data_mof_unit_pretest_1.cif
_audit_creation_date              2012-12-11T16:23:56-0500
_audit_creation_method            fapswitch 2.2
_symmetry_space_group_name_H-M    P1
_symmetry_Int_Tables_number       1
_space_group_crystal_system       triclinic
_cell_length_a                    14.73863
_cell_length_b                    14.733485
_cell_length_c                    33.26076
_cell_angle_alpha                 96.185243
_cell_angle_beta                  96.346479
_cell_angle_gamma                 61.370885
_cell_volume                      6288.29385827

loop_
_atom_site_label
_atom_site_type_symbol
_atom_type_description
_atom_site_fract_x
_atom_site_fract_y
_atom_site_fract_z
_atom_type_partial_charge
C1    C     C_R   0.391020 0.699525 0.446073 0.548844
C2    C     C_R   0.329436 0.348174 0.308655 0.041695
C3    C     C_R   0.411592 0.265548 0.328172 -0.108664
C4    C     C_R   0.431685 0.274304 0.369961 -0.124384
C5    C     C_R   0.393730 0.253245 0.165980 -0.108372
C6    C     C_R   0.384820 0.234430 0.124142 -0.124915
C7    C     C_R   0.210743 0.379402 0.121534 -0.123578
C8    C     C_R   0.219875 0.397941 0.163422 -0.103838
C9    C     C_R   0.310081 0.332758 0.185723 0.044451
C10   C     C_1   0.314130 0.341355 0.229021 -0.014121
C11   C     C_1   0.319276 0.345204 0.265364 -0.015190
C12   C     C_R   0.405806 0.386265 0.433999 0.546028
C13   C     C_R   0.291690 0.294841 0.101735 0.021631
C14   C     C_R   0.757367 0.372701 0.410432 0.021647
C15   C     C_R   0.791767 0.434063 0.394232 -0.128995
C16   C     C_R   0.822352 0.412753 0.354723 -0.118439
C17   C     C_R   0.819313 0.329586 0.330785 0.035752
C18   C     C_R   0.794388 0.262449 0.348263 -0.120220
C19   C     C_R   0.763534 0.283907 0.387822 -0.131136
C20   C     C_R   0.839980 0.309763 0.205517 0.347819
C21   C     C_R   0.831756 0.319707 0.286989 0.347900
C22   C     C_R   0.838412 0.389047 0.142857 -0.117853
C23   C     C_R   0.700924 0.409878 0.447572 0.557309
C24   C     C_R   0.866905 0.378376 0.103430 -0.129436
C25   C     C_R   0.912362 0.196438 0.099662 -0.135155
C26   C     C_R   0.883998 0.207144 0.139207 -0.125500
C27   C     C_R   0.851225 0.302472 0.161715 0.036770
C28   C     C_R   0.908693 0.280944 0.082205 0.023345
C29   C     C_R   0.371148 0.754005 0.408931 0.021600
C30   C     C_R   0.276272 0.785384 0.386019 -0.129754
C31   C     C_R   0.265769 0.813113 0.346394 -0.118868
C32   C     C_R   0.349973 0.809910 0.329017 0.036656
C33   C     C_R   0.441630 0.787814 0.353189 -0.118505
C34   C     C_R   0.393642 0.701319 0.561309 0.535817
C35   C     C_R   0.452107 0.760174 0.392861 -0.130727
C36   C     C_R   0.341047 0.825652 0.203711 0.373968
C37   C     C_R   0.345241 0.820295 0.285178 0.340493
C38   C     C_R   0.264852 0.817461 0.132763 0.282229
C39   C     C_R   0.247797 0.849567 0.092778 -0.127662
C40   C     C_R   0.373362 0.912485 0.107016 -0.150779
C41   C     C_R   0.392084 0.880350 0.146160 -0.173013
C42   C     C_R   0.334860 0.837798 0.159921 0.053112
C43   C     C_R   0.297286 0.902266 0.080782 -0.019405
C44   C     C_R   0.371948 0.370014 0.585300 -0.020584
C45   C     C_R   0.407348 0.388893 0.548977 0.540064
C46   C     C_R   0.293032 0.452587 0.606410 -0.149361
C47   C     C_R   0.276363 0.442045 0.645583 -0.171065
C48   C     C_R   0.338859 0.349139 0.664571 0.046731
C49   C     C_R   0.413011 0.263010 0.642360 0.272084
C50   C     C_R   0.427094 0.273820 0.602434 -0.118239
C51   C     C_R   0.327579 0.348713 0.789728 0.345321
C52   C     C_R   0.332901 0.346781 0.708374 0.369414
C53   C     C_R   0.232969 0.412502 0.853213 -0.110796
C54   C     C_R   0.216832 0.393319 0.891726 0.260222
C55   C     C_R   0.386185 0.240164 0.891918 -0.177674
C56   C     C_R   0.658108 0.437723 0.566316 0.556243
C57   C     C_R   0.400015 0.258898 0.853689 -0.140224
C58   C     C_R   0.321235 0.341944 0.833091 -0.006107
C59   C     C_R   0.292787 0.303318 0.910450 0.037442
C60   C     C_R   0.687003 0.417952 0.609760 0.022167
C61   C     C_R   0.701641 0.490652 0.636924 -0.124543
C62   C     C_R   0.723013 0.474595 0.678317 -0.109404
C63   C     C_R   0.729855 0.385901 0.693036 0.044270
C64   C     C_R   0.715217 0.313338 0.666351 -0.115918
C65   C     C_R   0.693015 0.329530 0.625038 -0.130832
C66   C     C_R   0.865250 0.228644 0.824032 -0.110979
C67   C     C_R   0.369884 0.366261 0.392517 0.019600
C68   C     C_R   0.909056 0.208110 0.863626 -0.128379
C69   C     C_R   0.839604 0.392521 0.880611 -0.138326
C70   C     C_R   0.795909 0.412859 0.841053 -0.115513
C71   C     C_R   0.810788 0.330895 0.812479 0.041724
C72   C     C_1   0.778239 0.351241 0.770650 -0.025194
C73   C     C_1   0.754711 0.367695 0.735353 -0.023800
C74   C     C_R   0.899347 0.289855 0.891917 0.018595
C75   C     C_R   0.377051 0.754124 0.602221 0.021889
C76   C     C_R   0.282966 0.786176 0.619771 -0.124444
C77   C     C_R   0.274597 0.813958 0.661144 -0.110633
C78   C     C_R   0.282842 0.445846 0.372964 -0.125244
C79   C     C_R   0.359834 0.810358 0.685412 0.044638
C80   C     C_R   0.451725 0.784914 0.667881 -0.106774
C81   C     C_R   0.460199 0.757447 0.626402 -0.128898
C82   C     C_R   0.400222 0.879438 0.833608 -0.112881
C83   C     C_R   0.379181 0.908297 0.874276 -0.128173
C84   C     C_R   0.228445 0.880845 0.862723 -0.127801
C85   C     C_R   0.249778 0.851894 0.822097 -0.112171
C86   C     C_R   0.333917 0.853994 0.807291 0.040354
C87   C     C_1   0.347052 0.837736 0.764596 -0.023776
C88   C     C_1   0.354393 0.825842 0.728548 -0.022182
C89   C     C_R   0.263066 0.436898 0.331147 -0.107681
C90   C     C_R   0.291034 0.912621 0.888934 0.019608
C91   C     C_R   0.963574 0.264123 0.045574 0.544346
C92   C     C_R   0.272825 0.259581 0.060011 0.543605
C93   C     C_R   0.259343 0.959474 0.043722 0.549611
C94   C     C_R   0.961197 0.268120 0.931068 0.537684
C95   C     C_R   0.271266 0.264427 0.945507 0.562506
C96   C     C_R   0.256145 0.964780 0.928978 0.542461
Cr1   Cr    Cr6+3 0.576280 0.580550 0.506370 1.009510
Cr2   Cr    Cr6+3 0.346780 0.572400 0.496520 1.008690
Cr3   Cr    Cr6+3 0.576960 0.347070 0.497150 1.010622
Cr4   Cr    Cr6+3 0.087320 0.083240 0.984860 1.011406
Cr5   Cr    Cr6+3 0.087720 0.316210 0.996740 1.035320
Cr6   Cr    Cr6+3 0.317350 0.090340 0.995890 1.009750
H1    H     H_    0.448541 0.168909 0.109787 0.128547
H2    H     H_    0.738184 0.234723 0.399658 0.129463
H3    H     H_    0.862021 0.445132 0.090518 0.129322
H4    H     H_    0.843298 0.464659 0.342318 0.135120
H5    H     H_    0.792496 0.197043 0.330666 0.134109
H6    H     H_    0.811319 0.464077 0.159210 0.137505
H7    H     H_    0.943915 0.120410 0.083927 0.128636
H8    H     H_    0.893925 0.139379 0.152946 0.129206
H9    H     H_    0.212117 0.782444 0.397763 0.130765
H10   H     H_    0.525977 0.737122 0.409916 0.130592
H11   H     H_    0.193701 0.838077 0.071036 0.117563
H12   H     H_    0.464003 0.202740 0.183142 0.116393
H13   H     H_    0.193416 0.831659 0.328772 0.137012
H14   H     H_    0.507377 0.786260 0.340854 0.136911
H15   H     H_    0.413467 0.951935 0.098339 0.143284
H16   H     H_    0.446542 0.895545 0.166547 0.141476
H17   H     H_    0.248515 0.527615 0.593771 0.143464
H18   H     H_    0.485079 0.208285 0.585661 0.128285
H19   H     H_    0.218786 0.509073 0.661894 0.140115
H20   H     H_    0.463090 0.196431 0.310855 0.116396
H21   H     H_    0.174926 0.480282 0.838344 0.126969
H22   H     H_    0.446742 0.171731 0.905798 0.141017
H23   H     H_    0.470417 0.204558 0.839454 0.144857
H24   H     H_    0.955092 0.128269 0.871421 0.126369
H25   H     H_    0.877384 0.164672 0.802043 0.109533
H26   H     H_    0.721152 0.244195 0.677539 0.098693
H27   H     H_    0.680206 0.272927 0.605154 0.127918
H28   H     H_    0.695750 0.560283 0.626264 0.120875
H29   H     H_    0.753732 0.492262 0.832394 0.109614
H30   H     H_    0.829634 0.456949 0.901979 0.112751
H31   H     H_    0.499149 0.211682 0.384125 0.129391
H32   H     H_    0.734309 0.531232 0.698810 0.108312
H33   H     H_    0.428802 0.932505 0.893630 0.126474
H34   H     H_    0.465649 0.881076 0.822368 0.110978
H35   H     H_    0.518033 0.782234 0.686483 0.107660
H36   H     H_    0.533641 0.733182 0.613808 0.118073
H37   H     H_    0.217537 0.784505 0.602019 0.127800
H38   H     H_    0.198169 0.832040 0.801873 0.111645
H39   H     H_    0.159989 0.883477 0.873022 0.127075
H40   H     H_    0.203015 0.833989 0.674500 0.109680
H41   H     H_    0.233798 0.517645 0.389474 0.129253
H42   H     H_    0.154942 0.459933 0.178584 0.116351
H43   H     H_    0.138058 0.427333 0.105127 0.127491
H44   H     H_    0.199113 0.501058 0.316162 0.117529
H45   H     H_    0.789088 0.502291 0.411132 0.131210
N1    N     N_R   0.833928 0.393684 0.228779 -0.228678
N2    N     N_R   0.248487 0.418322 0.727653 -0.245284
N3    N     N_R   0.415057 0.277620 0.730676 -0.186677
N4    N     N_R   0.412247 0.278120 0.770464 -0.238852
N5    N     N_R   0.829575 0.398693 0.268673 -0.228186
N6    N     N_R   0.837724 0.235629 0.263759 -0.231681
N7    N     N_R   0.842506 0.230427 0.223794 -0.233268
N8    N     N_R   0.258210 0.834347 0.221275 -0.168165
N9    N     N_R   0.260484 0.831089 0.261161 -0.234485
N10   N     N_R   0.427993 0.812118 0.267654 -0.231721
N11   N     N_R   0.425671 0.815468 0.227728 -0.240783
N12   N     N_R   0.245584 0.418820 0.767530 -0.240363
O1    O     O_R   0.679450 0.499830 0.463150 -0.514613
O2    O     O_R   0.356040 0.477400 0.534170 -0.500192
O3    O     O_R   0.495910 0.323070 0.537100 -0.530733
O4    O     O_R   0.663920 0.359620 0.542290 -0.498955
O5    O     O_3   0.500010 0.500010 0.500010 -0.254691
O6    O     O_R   0.170070 0.978950 0.027680 -0.520437
O7    O     O_R   0.001760 0.175230 0.026640 -0.501989
O8    O     O_R   0.984760 0.333570 0.037150 -0.520660
O9    O     O_R   0.183410 0.309240 0.041890 -0.500650
O10   O     O_R   0.340240 0.172500 0.045430 -0.521134
O11   O     O_R   0.309670 0.000990 0.032050 -0.498716
O12   O     O_R   0.480650 0.664000 0.464630 -0.500418
O13   O     O_R   0.168330 0.982130 0.939200 -0.520034
O14   O     O_R   0.000140 0.178170 0.944610 -0.500203
O15   O     O_R   0.983010 0.336750 0.948660 -0.527246
O16   O     O_R   0.181800 0.312190 0.959860 -0.450047
O17   O     O_R   0.338500 0.175680 0.956950 -0.534286
O18   O     O_R   0.308050 0.003930 0.950020 -0.502214
O19   O     O_3   0.164130 0.163270 0.992500 -0.241757
O20   O     O_R   0.323930 0.675950 0.455370 -0.517293
O21   O     O_R   0.354700 0.475360 0.451930 -0.499175
O22   O     O_R   0.494470 0.320860 0.448390 -0.517892
O23   O     O_R   0.662580 0.357570 0.460050 -0.495810
O24   O     O_R   0.680900 0.502040 0.551870 -0.513739
O25   O     O_R   0.481990 0.666040 0.546870 -0.517613
O26   O     O_R   0.325370 0.678160 0.544080 -0.518911
O27   O     O_3   0.220522 0.762322 0.146667 -0.550310
C97   C     C_3   0.122836 0.781275 0.127547 0.019182
H46   H     H_    0.100564 0.728956 0.140545 0.161368
H47   H     H_    0.126852 0.757685 0.094705 0.116520
C98   C     C_3   0.038089 0.893062 0.136453 -0.274558
H48   H     H_    0.034502 0.910127 0.169788 0.195465
H49   H     H_    0.055831 0.949034 0.123785 0.153904
C99   C     C_3   0.932516 0.908463 0.118018 -0.486082
H50   H     H_    0.933935 0.894033 0.084560 0.147952
H51   H     H_    0.872413 0.989205 0.125094 0.150147
H52   H     H_    0.911396 0.854880 0.130689 0.152151
O28   O     O_3   0.131371 0.464215 0.912478 -0.558470
C100  C     C_3   0.036875 0.487810 0.889350 0.016729
H53   H     H_    0.987907 0.473451 0.908038 0.179924
H54   H     H_    0.044939 0.438549 0.860610 0.119840
C101  C     C_3   0.980211 0.602735 0.880746 -0.270567
H55   H     H_    0.966779 0.650414 0.909907 0.174439
H56   H     H_    0.028319 0.620995 0.863029 0.162499
C102  C     C_3   0.876172 0.631704 0.857126 -0.487566
H57   H     H_    0.887570 0.584961 0.827804 0.154533
H58   H     H_    0.837761 0.714978 0.850853 0.148789
H59   H     H_    0.824883 0.618332 0.875047 0.140514
O29   O     O_3   0.467172 0.167400 0.659099 -0.549869
C103  C     C_3   0.575438 0.132612 0.661819 0.017613
H60   H     H_    0.602880 0.126552 0.694393 0.168772
H61   H     H_    0.598645 0.185524 0.649571 0.102501
C104  C     C_3   0.630248 0.025289 0.640030 -0.263197
H62   H     H_    0.612315 0.970789 0.653859 0.178472
H63   H     H_    0.601628 0.029619 0.607592 0.163115
C105  C     C_3   0.747401 0.983846 0.642832 -0.489603
H64   H     H_    0.767139 0.036171 0.628407 0.147075
H65   H     H_    0.784939 0.905855 0.626862 0.150687
H66   H     H_    0.778042 0.977348 0.675035 0.147054

loop_
_geom_bond_atom_site_label_1
_geom_bond_atom_site_label_2
_ccdc_geom_bond_type
Cr6   O11   S    
C66   C68   A    
C87   C88   T    
N10   N11   A    
C55   C59   A    
C5    H12   S    
Cr4   O13   S    
C41   C42   A    
C74   C94   S    
C91   O7    A    
C36   C42   S    
C95   O17   A    
Cr5   O9    S    
Cr4   O19   S    
C49   C50   A    
C57   C58   A    
C7    C8    A    
C85   C86   A    
C25   C28   A    
C56   O4    A    
C26   C27   A    
C98   H48   S    
C54   O28   S    
C59   C95   S    
C50   H18   S    
C91   O8    A    
C39   H11   S    
C38   C42   A    
Cr2   O26   S    
C105  H65   S    
C57   H23   S    
C5    C6    A    
C97   H47   S    
C22   H6    S    
C47   H19   S    
C68   C74   A    
C15   C16   A    
C103  C104  S    
C66   H25   S    
Cr4   O7    S    
C18   C19   A    
C101  H55   S    
C21   N5    A    
C37   N10   A    
Cr5   O8    S    
C95   O16   A    
C18   H5    S    
C70   H29   S    
C97   C98   S    
C45   O2    A    
Cr5   O19   S    
C98   C99   S    
C43   C93   S    
C77   H40   S    
C40   C43   A    
C47   C48   A    
C53   C54   A    
C16   C17   A    
Cr3   O23   S    
C17   C18   A    
C20   N1    A    
C34   O25   A    
C70   C71   A    
C41   H16   S    
C28   C91   S    
C29   C30   A    
C9    C10   S    
C26   H8    S    
C83   H33   S    
C61   C62   A    
C3    H20   S    
C16   H4    S    
C34   C75   S    
C72   C73   T    
Cr1   O5    S    
Cr6   O10   S    
C40   H15   S    
C93   O6    A    
N6    N7    A    
C102  H57   S    
C101  H56   S    
C37   N9    A    
Cr5   O15   S    
C69   C70   A    
C67   C78   A    
C84   C90   A    
C2    C11   S    
C31   H13   S    
C79   C88   S    
C44   C46   A    
Cr1   O24   S    
C54   C59   A    
C77   C79   A    
C78   C89   A    
C81   H36   S    
C12   C67   S    
C93   O11   A    
C32   C37   S    
C63   C64   A    
Cr1   O1    S    
C24   C28   A    
C38   C39   A    
C84   C85   A    
C23   O23   A    
C53   H21   S    
C105  H66   S    
C45   O3    A    
C86   C87   S    
O29   C103  S    
C39   C43   A    
C63   C73   S    
C64   H26   S    
C25   C26   A    
C82   C86   A    
C1    O12   A    
C17   C21   S    
C56   C60   S    
Cr4   O6    S    
C14   C23   S    
C2    C89   A    
C75   C76   A    
C66   C71   A    
C5    C9    A    
C62   C63   A    
C103  H61   S    
C25   H7    S    
Cr3   O3    S    
C19   H2    S    
C52   N2    A    
C65   H27   S    
C12   O22   A    
C49   O29   S    
C7    C13   A    
C92   O10   A    
C99   H52   S    
C23   O1    A    
C100  C101  S    
C99   H51   S    
C103  H60   S    
C8    C9    A    
C69   C74   A    
C8    H42   S    
C51   C58   S    
C6    H1    S    
C76   C77   A    
C34   O26   A    
C89   H44   S    
N2    N12   A    
C85   H38   S    
C100  H53   S    
C20   N7    A    
C61   H28   S    
C94   O15   A    
Cr3   O4    S    
C40   C41   A    
C12   O21   A    
C102  H58   S    
C60   C65   A    
C99   H50   S    
C22   C27   A    
C55   C57   A    
C13   C92   S    
C96   O13   A    
C96   O18   A    
C101  C102  S    
C22   C24   A    
Cr5   O16   S    
Cr2   O21   S    
C3    C4    A    
C68   H24   S    
Cr4   O14   S    
Cr2   O2    S    
C44   C45   S    
Cr1   O25   S    
C76   H37   S    
C44   C50   A    
C83   C90   A    
C46   C47   A    
C48   C49   A    
C33   H14   S    
C98   H49   S    
C14   C15   A    
C104  C105  S    
C14   C19   A    
C31   C32   A    
C75   C81   A    
N1    N5    A    
C104  H63   S    
C80   C81   A    
C4    C67   A    
Cr2   O5    S    
C53   C58   A    
C90   C96   S    
C20   C27   S    
C36   N11   A    
C29   C35   A    
Cr1   O12   S    
C30   H9    S    
C64   C65   A    
C62   H32   S    
C100  H54   S    
C2    C3    A    
O27   C97   S    
C71   C72   S    
C38   O27   S    
C78   H41   S    
C32   C33   A    
C6    C13   A    
C15   H45   S    
C1    O20   A    
C56   O24   A    
C1    C29   S    
C30   C31   A    
C84   H39   S    
C69   H30   S    
Cr6   O19   S    
C51   N12   A    
Cr3   O5    S    
C33   C35   A    
C46   H17   S    
C102  H59   S    
C105  H64   S    
C82   H34   S    
O28   C100  S    
C92   O9    A    
Cr3   O22   S    
C10   C11   T    
C94   O14   A    
C51   N4    A    
C79   C80   A    
C48   C52   S    
C104  H62   S    
C52   N3    A    
C82   C83   A    
C55   H22   S    
N8    N9    A    
Cr6   O18   S    
C21   N6    A    
N3    N4    A    
C60   C61   A    
C97   H46   S    
C24   H3    S    
Cr2   O20   S    
Cr6   O17   S    
C35   H10   S    
C80   H35   S    
C36   N8    A    
C4    H31   S    
C7    H43   S    
