data_mof_unit_pretest_763.cif
_audit_creation_date              2013-03-05T15:43:18-0500
_audit_creation_method            fapswitch 2.2
_symmetry_space_group_name_H-M    P1
_symmetry_Int_Tables_number       1
_space_group_crystal_system       triclinic
_cell_length_a                    10.640149
_cell_length_b                    10.709225
_cell_length_c                    10.036102
_cell_angle_alpha                 89.610528
_cell_angle_beta                  89.971253
_cell_angle_gamma                 90.016689
_cell_volume                      1143.56462399

loop_
_atom_site_label
_atom_site_type_symbol
_atom_site_description
_atom_site_fract_x
_atom_site_fract_y
_atom_site_fract_z
_atom_type_partial_charge
O1    O     O_R   0.499980 0.319060 0.613040 -0.556488
O2    O     O_R   0.500020 0.319100 0.386900 -0.632409
C1    C     C_R   0.491593 0.262576 0.500355 0.832494
O3    O     O_R   0.316750 0.499980 0.613090 -0.610026
O4    O     O_R   0.316790 0.500020 0.386950 -0.611331
C2    C     C_R   0.260568 0.504115 0.500030 0.871022
Zn1   Zn    Zn3+2 0.499970 0.499970 0.650990 0.982939
Zn2   Zn    Zn3+2 0.500030 0.500030 0.349010 0.952349
O5    O     O_R   0.499980 0.680900 0.613100 -0.624034
O6    O     O_R   0.500020 0.680940 0.386960 -0.614535
O7    O     O_R   0.683210 0.499980 0.613050 -0.614400
O8    O     O_R   0.683250 0.500020 0.386910 -0.610036
C3    C     C_R   0.503015 0.737490 0.499384 0.885502
C4    C     C_R   0.739428 0.503819 0.499939 0.861468
H1    H     H_    0.114033 0.348048 0.377320 0.162381
C5    C     C_R   0.130699 0.708822 0.630517 -0.149725
H2    H     H_    0.232107 0.714673 0.629874 0.169426
C6    C     C_R   0.064885 0.803630 0.694744 -0.071045
H3    H     H_    0.115448 0.877993 0.743817 0.187939
C7    C     C_R   0.934160 0.803711 0.694329 -0.157583
H4    H     H_    0.883256 0.878250 0.742792 0.147778
C8    C     C_R   0.868718 0.708780 0.630035 -0.190671
H5    H     H_    0.767330 0.714593 0.629030 0.142517
C9    C     C_R   0.933949 0.610388 0.566702 0.101859
C10   C     C_R   0.065775 0.610441 0.566854 0.073998
C11   C     C_R   0.128268 0.513086 0.499692 -0.094227
C12   C     C_R   0.064254 0.421391 0.429500 -0.184103
H6    H     H_    0.886245 0.347982 0.377102 0.158413
C13   C     C_R   0.935884 0.421347 0.429378 -0.198133
C14   C     C_R   0.871691 0.512962 0.499505 -0.096515
C15   C     C_2   0.476465 0.933093 0.388504 -0.101432
C16   C     C_2   0.512000 0.869718 0.496949 -0.268114
H7    H     H_    0.448528 0.886921 0.297078 0.179336
H8    H     H_    0.546952 0.915484 0.585834 0.167924
C17   C     C_2   0.482227 0.067349 0.388994 -0.290000
C18   C     C_2   0.457719 0.132792 0.499723 0.156977
H9    H     H_    0.519918 0.111311 0.299592 0.171064
C19   C     C_2   0.569754 0.574169 0.924376 -0.113255
N1    N     N_2   0.501340 0.501330 0.852150 -0.185560
H10   H     H_    0.629543 0.641816 0.874237 0.159297
H11   H     H_    0.448814 0.433338 0.898283 0.182572
C20   C     C_2   0.573990 0.570021 0.074425 -0.117979
N2    N     N_2   0.501380 0.501360 0.147810 -0.190086
H12   H     H_    0.641502 0.630069 0.123519 0.163039
H13   H     H_    0.433488 0.448477 0.102642 0.171001
N3    N     N_R   0.385805 0.081747 0.609544 0.206075
O9    O     O_R   0.410810 0.113521 0.731612 -0.394889
O10   O     O_R   0.287494 0.012828 0.586528 -0.410792

loop_
_geom_bond_atom_site_label_1
_geom_bond_atom_site_label_2
_geom_bond_distance
_ccdc_geom_bond_type
O4    Zn2   1.986347 S    
C19   H10   1.084979 S    
C15   H7    1.086801 S    
C18   N3    1.445625 S    
C13   C14   1.390594 A    
C12   C13   1.365882 A    
C3    C16   1.419300 S    
H1    C12   1.085022 S    
C17   C18   1.343330 D    
Zn2   N2    2.019260 S    
Zn2   O8    1.986436 S    
O2    C1    1.288983 A    
N1    H11   1.025589 S    
C5    C6    1.394847 A    
O1    Zn1   1.977027 S    
C9    C10   1.402648 A    
Zn1   O7    1.986348 S    
N2    H13   1.025493 S    
C11   C12   1.390673 A    
C2    C11   1.410995 S    
C20   H12   1.084767 S    
C1    C18   1.435815 S    
C4    C14   1.410672 S    
O3    Zn1   1.986435 S    
C8    C9    1.416017 A    
O3    C2    1.283289 A    
H6    C13   1.084970 S    
C17   H9    1.086888 S    
O8    C4    1.283372 A    
C19   C20   1.506963 S    
C6    C7    1.390951 A    
O4    C2    1.283647 A    
O7    C4    1.283288 A    
C15   C17   1.439112 S    
C9    C14   1.411325 A    
C20   N2    1.292947 D    
N3    O10   1.301689 A    
C19   N1    1.292938 D    
C7    H4    1.082776 S    
Zn2   O6    1.977027 S    
C6    H3    1.082375 S    
C5    C10   1.415857 A    
Zn1   O5    1.972044 S    
Zn1   N1    2.019073 S    
C8    H5    1.080640 S    
O5    C3    1.288929 A    
C10   C11   1.411733 A    
N3    O9    1.301288 A    
O2    Zn2   1.972044 S    
C15   C16   1.333656 D    
C7    C8    1.394181 A    
C5    H2    1.080806 S    
O1    C1    1.289269 A    
O6    C3    1.284582 A    
C16   H8    1.086492 S    
