data_mof_unit_pretest_1240.cif
_audit_creation_date              2012-12-10T17:19:36-0500
_audit_creation_method            fapswitch 2.2
_symmetry_space_group_name_H-M    P1
_symmetry_Int_Tables_number       1
_space_group_crystal_system       triclinic
_cell_length_a                    10.496392
_cell_length_b                    10.583326
_cell_length_c                    11.471076
_cell_angle_alpha                 92.991903
_cell_angle_beta                  81.193881
_cell_angle_gamma                 93.756288
_cell_volume                      1255.40868084

loop_
_atom_site_label
_atom_site_type_symbol
_atom_type_description
_atom_site_fract_x
_atom_site_fract_y
_atom_site_fract_z
_atom_type_partial_charge
C1    C     C_R   0.552712 0.732229 0.492917 0.882170
C2    C     C_2   0.423490 0.131467 0.531272 -0.060626
C3    C     C_2   0.520648 0.937689 0.573521 -0.215526
C4    C     C_2   0.518258 0.073686 0.570992 -0.220221
C5    C     C_2   0.928815 0.533923 0.489563 -0.020529
C6    C     C_2   0.078988 0.520684 0.467387 -0.027289
C7    C     C_3   0.299964 0.062417 0.503278 -0.385095
C8    C     C_3   0.305199 0.040992 0.369592 -0.345124
C9    C     C_3   0.176291 0.986461 0.338517 -0.927426
C10   C     C_3   0.636102 0.916645 0.361789 -0.449372
C11   C     C_3   0.604584 0.826263 0.258388 -0.348024
C12   C     C_R   0.447072 0.266731 0.510912 0.861365
C13   C     C_3   0.643197 0.883604 0.138056 -0.916666
C14   C     C_R   0.137758 0.484191 0.345221 0.190086
C15   C     C_R   0.180401 0.361319 0.315991 -0.113210
C16   C     C_R   0.213129 0.321069 0.197644 -0.186620
C17   C     C_R   0.206368 0.403400 0.107851 -0.108672
C18   C     C_R   0.170192 0.527221 0.136039 -0.140991
C19   C     C_R   0.136064 0.567579 0.254018 -0.168335
C20   C     C_R   0.880663 0.655396 0.545320 0.192747
C21   C     C_R   0.817279 0.662184 0.662888 -0.100232
C22   C     C_R   0.783904 0.778745 0.718135 -0.181819
C23   C     C_R   0.499754 0.501643 0.717285 0.887737
C24   C     C_R   0.814885 0.890204 0.657523 -0.115267
C25   C     C_R   0.877835 0.885079 0.541163 -0.159802
C26   C     C_R   0.909298 0.768360 0.484698 -0.169400
C27   C     C_3   0.102173 0.621534 0.654192 -0.265412
C28   C     C_3   0.188649 0.657406 0.747619 -0.288992
C29   C     C_3   0.124126 0.750350 0.841620 -1.006290
C30   C     C_3   0.891073 0.343898 0.375229 -0.254186
C31   C     C_3   0.790897 0.244800 0.339793 -0.303557
C32   C     C_3   0.853450 0.156660 0.240587 -1.011736
C33   C     C_R   0.500926 0.500201 0.282711 0.867562
C34   C     C_1   0.500147 0.505597 0.838210 -0.220861
C35   C     C_1   0.504160 0.504465 0.161731 -0.168331
C36   C     C_1   0.502754 0.507788 0.940499 -0.030836
C37   C     C_1   0.505153 0.507380 0.059172 0.002297
C38   C     C_2   0.575986 0.866666 0.481456 0.009537
H1    H     H_    0.603279 0.126804 0.594868 0.165631
H2    H     H_    0.596727 0.974515 0.135385 0.259374
H3    H     H_    0.749828 0.898569 0.118181 0.267327
H4    H     H_    0.610880 0.817102 0.068830 0.255921
H5    H     H_    0.657125 0.738475 0.258033 0.236090
H6    H     H_    0.499426 0.799366 0.269718 0.221359
H7    H     H_    0.601613 0.011337 0.350202 0.227123
H8    H     H_    0.742298 0.926953 0.358165 0.218125
H9    H     H_    0.181040 0.295075 0.384383 0.141209
H10   H     H_    0.241555 0.225434 0.175111 0.140555
H11   H     H_    0.230898 0.371787 0.016364 0.134291
H12   H     H_    0.473370 0.893957 0.653901 0.138799
H13   H     H_    0.166985 0.591471 0.066324 0.140393
H14   H     H_    0.106029 0.662895 0.273658 0.113155
H15   H     H_    0.800885 0.578330 0.714302 0.135070
H16   H     H_    0.736500 0.782810 0.808843 0.134924
H17   H     H_    0.789892 0.980566 0.700588 0.128747
H18   H     H_    0.900886 0.971700 0.494349 0.128337
H19   H     H_    0.955219 0.766246 0.393939 0.113969
H20   H     H_    0.108231 0.840324 0.801620 0.274558
H21   H     H_    0.029906 0.708383 0.884677 0.273059
H22   H     H_    0.187415 0.772299 0.910131 0.259507
H23   H     H_    0.182529 0.973374 0.241183 0.252111
H24   H     H_    0.202467 0.571581 0.794824 0.241890
H25   H     H_    0.280472 0.705391 0.706746 0.257368
H26   H     H_    0.076626 0.714727 0.627954 0.198423
H27   H     H_    0.019614 0.563541 0.700009 0.160764
H28   H     H_    0.908051 0.211080 0.166859 0.279719
H29   H     H_    0.919425 0.094503 0.274340 0.268090
H30   H     H_    0.777172 0.097722 0.204248 0.275596
H31   H     H_    0.751706 0.186768 0.416288 0.226025
H32   H     H_    0.713488 0.289859 0.305103 0.271877
H33   H     H_    0.936577 0.384235 0.290659 0.203653
H34   H     H_    0.152177 0.893077 0.378470 0.267591
H35   H     H_    0.957417 0.291758 0.419232 0.157857
H36   H     H_    0.099250 0.051986 0.371527 0.253842
H37   H     H_    0.332017 0.131372 0.324816 0.203660
H38   H     H_    0.379620 0.973610 0.335644 0.243213
H39   H     H_    0.282809 0.969590 0.545847 0.222883
H40   H     H_    0.216934 0.119798 0.539984 0.198693
N1    N     N_2   0.842700 0.448890 0.453570 -0.098379
N2    N     N_2   0.157300 0.551110 0.546430 -0.094682
O1    O     O_R   0.431060 0.692470 0.509350 -0.627775
O2    O     O_R   0.568940 0.307530 0.490650 -0.638631
O3    O     O_R   0.651120 0.659650 0.479540 -0.591063
O4    O     O_R   0.348880 0.340350 0.520460 -0.608845
O5    O     O_R   0.389960 0.516400 0.680450 -0.634189
O6    O     O_R   0.610040 0.483600 0.319550 -0.629109
O7    O     O_R   0.610030 0.483580 0.650650 -0.610264
O8    O     O_R   0.389970 0.516420 0.349350 -0.584004
Zn1   Zn    Zn3+2 0.353060 0.521910 0.519900 0.922703
Zn2   Zn    Zn3+2 0.646940 0.478090 0.480100 0.920406

loop_
_geom_bond_atom_site_label_1
_geom_bond_atom_site_label_2
_ccdc_geom_bond_type
C2    C7    S    
C25   H18   S    
C15   H9    S    
C2    C12   S    
C16   H10   S    
C13   H3    S    
C30   H33   S    
C7    C8    S    
C22   H16   S    
C5    C20   S    
C24   H17   S    
C9    H23   S    
C36   C37   S    
C35   C37   T    
C33   O8    A    
C30   C31   S    
C1    O1    A    
C15   C16   A    
C8    H38   S    
C12   O4    A    
C18   C19   A    
N2    Zn1   S    
N1    Zn2   S    
C19   H14   S    
C31   H32   S    
C29   H21   S    
C3    C38   D    
C8    C9    S    
C13   H2    S    
C10   H8    S    
C4    H1    S    
C11   H5    S    
C5    N1    D    
C7    H39   S    
O1    Zn1   S    
O8    Zn1   S    
C23   O7    A    
C21   C22   A    
C13   H4    S    
C3    H12   S    
C18   H13   S    
C24   C25   A    
C27   N2    S    
O6    Zn2   S    
C17   H11   S    
C30   H35   S    
O5    Zn1   S    
C16   C17   A    
C9    H34   S    
C25   C26   A    
C8    H37   S    
C2    C4    D    
C33   O6    A    
C27   H27   S    
C6    C14   S    
C6    N2    D    
C31   C32   S    
C29   H22   S    
C23   C34   S    
C10   H7    S    
C17   C18   A    
C12   O2    A    
C11   H6    S    
C29   H20   S    
C1    C38   S    
C7    H40   S    
C30   N1    S    
C10   C11   S    
C32   H29   S    
C23   O5    A    
C22   C24   A    
O4    Zn1   S    
C3    C4    S    
C32   H28   S    
O3    Zn2   S    
C28   C29   S    
C14   C19   A    
C1    O3    A    
O2    Zn2   S    
C32   H30   S    
C10   C38   S    
C21   H15   S    
C11   C13   S    
C5    C6    S    
C20   C26   A    
C33   C35   S    
C34   C36   T    
C26   H19   S    
C27   H26   S    
C28   H25   S    
C31   H31   S    
C20   C21   A    
C9    H36   S    
O7    Zn2   S    
C27   C28   S    
C14   C15   A    
C28   H24   S    
