data_mof_unit_pretest_498.cif
_audit_creation_date              2012-10-26T19:15:06-0400
_audit_creation_method            fapswitch 2.2
_symmetry_space_group_name_H-M    P1
_symmetry_Int_Tables_number       1
_space_group_crystal_system       triclinic
_cell_length_a                    10.854741
_cell_length_b                    10.838098
_cell_length_c                    9.556124
_cell_angle_alpha                 90.559125
_cell_angle_beta                  90.880356
_cell_angle_gamma                 90.717669
_cell_volume                      1123.95122993

loop_
_atom_site_label
_atom_site_type_symbol
_atom_type_description
_atom_site_fract_x
_atom_site_fract_y
_atom_site_fract_z
_atom_type_partial_charge
C1    C     C_R   0.496632 0.262467 0.499359 0.547920
C2    C     C_R   0.492596 0.938436 0.624956 0.019380
C3    C     C_3   0.587657 0.939318 0.740604 0.098759
C4    C     C_R   0.262510 0.496385 0.498898 0.545006
C5    C     C_3   0.581372 0.079293 0.741930 -0.227052
C6    C     C_R   0.544128 0.599775 0.076039 0.156476
C7    C     C_R   0.444232 0.407698 0.072347 -0.017615
C8    C     C_R   0.444100 0.407750 0.923582 -0.018779
C9    C     C_R   0.544886 0.599470 0.928468 0.150900
C10   C     C_3   0.674493 0.645641 0.929719 -0.285659
C11   C     C_3   0.671530 0.650478 0.087565 -0.281408
C12   C     C_R   0.939772 0.464663 0.622376 0.018734
C13   C     C_R   0.498277 0.737762 0.500268 0.571566
C14   C     C_R   0.737950 0.497029 0.500574 0.556429
C15   C     C_R   0.066631 0.464353 0.620415 0.021883
C16   C     C_R   0.129788 0.481390 0.496302 0.009805
C17   C     C_R   0.062561 0.479272 0.369541 -0.160781
C18   C     C_R   0.933961 0.479728 0.371119 -0.157809
C19   C     C_R   0.871351 0.483042 0.499346 0.010361
C20   C     C_3   0.940528 0.531045 0.760062 -0.278992
C21   C     C_3   0.079911 0.530603 0.757040 -0.260843
C22   C     C_R   0.489705 0.065619 0.624553 -0.029827
C23   C     C_R   0.483637 0.129459 0.498777 0.006304
C24   C     C_R   0.462498 0.062886 0.373571 -0.159983
C25   C     C_R   0.463808 0.934056 0.374182 -0.167629
C26   C     C_R   0.486812 0.870990 0.499882 0.013273
Cu1   Cu    Cu3+1 0.499990 0.499980 0.640670 0.949464
Cu2   Cu    Cu3+1 0.500010 0.500020 0.359330 0.932992
H1    H     H_    0.108555 0.484188 0.269927 0.134017
H2    H     H_    0.884685 0.483737 0.272163 0.126269
H3    H     H_    0.901979 0.625401 0.752722 0.158044
H4    H     H_    0.904494 0.471497 0.844519 0.128303
H5    H     H_    0.121649 0.624302 0.747078 0.148491
H6    H     H_    0.122117 0.471983 0.839225 0.137107
H7    H     H_    0.450716 0.109793 0.274792 0.126113
H8    H     H_    0.452318 0.884613 0.275702 0.132923
H9    H     H_    0.553756 0.896613 0.838161 0.135403
H10   H     H_    0.725610 0.934378 0.609067 0.333067
H11   H     H_    0.538935 0.117096 0.838141 0.101807
H12   H     H_    0.667799 0.127042 0.710447 0.152186
H13   H     H_    0.400891 0.331821 0.126279 0.109451
H14   H     H_    0.400435 0.332007 0.866556 0.116207
H15   H     H_    0.735890 0.573883 0.890261 0.145465
H16   H     H_    0.686221 0.737247 0.882496 0.190023
H17   H     H_    0.737158 0.585998 0.137044 0.151468
H18   H     H_    0.673779 0.745966 0.131173 0.128268
N1    N     N_R   0.500790 0.500930 0.147930 -0.229846
N2    N     N_R   0.500790 0.500890 0.852020 -0.232328
O1    O     O_R   0.500000 0.319640 0.618810 -0.510518
O2    O     O_R   0.500010 0.319680 0.381230 -0.513936
O3    O     O_R   0.319650 0.499970 0.618810 -0.506058
O4    O     O_R   0.319660 0.500010 0.381230 -0.510027
O5    O     O_R   0.499990 0.680320 0.618770 -0.480476
O6    O     O_R   0.500000 0.680360 0.381190 -0.510823
O7    O     O_R   0.680340 0.499990 0.618770 -0.493313
O8    O     O_R   0.680350 0.500030 0.381190 -0.510578
O9    O     O_3   0.702984 0.894735 0.698573 -0.719589

loop_
_geom_bond_atom_site_label_1
_geom_bond_atom_site_label_2
_ccdc_geom_bond_type
Cu1   N2    S    
C2    C22   A    
C14   O8    A    
C23   C24   A    
Cu1   O5    S    
Cu2   N1    S    
C4    C16   S    
C18   H2    S    
H10   O9    S    
C17   H1    S    
C1    O2    A    
C12   C15   A    
C14   O7    A    
C12   C20   S    
C6    C9    A    
C8    N2    A    
C2    C3    S    
Cu2   O8    S    
C7    C8    A    
C2    C26   A    
C24   C25   A    
Cu2   O4    S    
C6    C11   S    
C1    O1    A    
C4    O4    A    
C3    O9    S    
C12   C19   A    
C25   C26   A    
Cu1   O3    S    
C1    C23   S    
C13   O5    A    
C10   C11   S    
C5    H11   S    
C20   H4    S    
Cu1   O7    S    
C13   C26   S    
C11   H17   S    
C24   H7    S    
C21   H5    S    
C6    N1    A    
C4    O3    A    
C10   H16   S    
C15   C16   A    
C15   C21   S    
C20   C21   S    
C3    H9    S    
C9    N2    A    
C17   C18   A    
C13   O6    A    
C9    C10   S    
C5    H12   S    
Cu1   Cu2   S    
Cu2   O6    S    
C22   C23   A    
C18   C19   A    
C11   H18   S    
C21   H6    S    
C25   H8    S    
C10   H15   S    
Cu2   O2    S    
C14   C19   S    
C5    C22   S    
Cu1   O1    S    
C7    H13   S    
C8    H14   S    
C16   C17   A    
C3    C5    S    
C20   H3    S    
C7    N1    A    
