data_mof_unit_pretest_1999.cif
_audit_creation_date              2013-03-05T16:26:40-0500
_audit_creation_method            fapswitch 2.2
_symmetry_space_group_name_H-M    P1
_symmetry_Int_Tables_number       1
_space_group_crystal_system       triclinic
_cell_length_a                    39.1069
_cell_length_b                    32.281296
_cell_length_c                    21.944675
_cell_angle_alpha                 89.732901
_cell_angle_beta                  124.387127
_cell_angle_gamma                 90.015079
_cell_volume                      22861.645381

loop_
_atom_site_label
_atom_site_type_symbol
_atom_site_description
_atom_site_fract_x
_atom_site_fract_y
_atom_site_fract_z
_atom_type_partial_charge
O1    O     O_R   0.440150 0.534640 0.440170 -0.576336
O2    O     O_R   0.559850 0.534640 0.559830 -0.581510
O3    O     O_R   0.940150 0.034640 0.440170 -0.576427
O4    O     O_R   0.059850 0.034640 0.559830 -0.581357
O5    O     O_R   0.440150 0.465360 0.440130 -0.582535
O6    O     O_R   0.559850 0.465360 0.559870 -0.577983
O7    O     O_R   0.940150 0.965360 0.440130 -0.582677
O8    O     O_R   0.059850 0.965360 0.559870 -0.577921
C1    C     C_R   0.420461 0.500056 0.420382 0.820533
C2    C     C_R   0.579539 0.499958 0.579619 0.820072
C3    C     C_R   0.920461 0.000056 0.420383 0.820616
C4    C     C_R   0.079539 0.999957 0.579621 0.820025
O9    O     O_R   0.500010 0.534640 0.589030 -0.576021
O10   O     O_R   0.499990 0.534640 0.410970 -0.584451
O11   O     O_R   0.000010 0.034640 0.589030 -0.575957
O12   O     O_R   0.999990 0.034640 0.410970 -0.584537
O13   O     O_R   0.500010 0.465360 0.588990 -0.586951
O14   O     O_R   0.499990 0.465360 0.411010 -0.577316
O15   O     O_R   0.000010 0.965360 0.588990 -0.587086
O16   O     O_R   0.999990 0.965360 0.411010 -0.577385
C5    C     C_R   0.501846 0.499814 0.619463 0.853487
C6    C     C_R   0.498160 0.500173 0.380543 0.853889
C7    C     C_R   0.001835 0.999813 0.619451 0.853534
C8    C     C_R   0.998146 0.000171 0.380528 0.853914
Cu1   Cu    Cu3+1 0.500000 0.541020 0.500000 0.969193
Cu2   Cu    Cu3+1 0.000000 0.041020 0.500000 0.968978
Cu3   Cu    Cu3+1 0.500000 0.458980 0.500000 0.962001
Cu4   Cu    Cu3+1 0.000000 0.958980 0.500000 0.961465
C9    C     C_2   0.531100 0.518725 0.815220 -0.154912
C10   C     C_2   0.468866 0.481311 0.184749 -0.155955
C11   C     C_2   0.031167 0.018595 0.815279 -0.154982
C12   C     C_2   0.968950 0.981151 0.184821 -0.156461
C13   C     C_2   0.498486 0.505266 0.814647 -0.356963
C14   C     C_2   0.501509 0.494699 0.185347 -0.356287
C15   C     C_2   0.998496 0.005280 0.814656 -0.357250
C16   C     C_2   0.001522 0.994717 0.185358 -0.356331
H1    H     H_    0.559380 0.527724 0.866960 0.170889
H2    H     H_    0.440563 0.472382 0.132986 0.169900
H3    H     H_    0.059490 0.027468 0.867057 0.170942
H4    H     H_    0.940699 0.972066 0.133106 0.169880
H5    H     H_    0.468880 0.499821 0.762787 0.157283
H6    H     H_    0.531130 0.500078 0.237215 0.157083
H7    H     H_    0.968867 0.999950 0.762780 0.157331
H8    H     H_    0.031113 0.000238 0.237205 0.157106
C17   C     C_2   0.528663 0.524455 0.745973 0.187206
C18   C     C_2   0.471277 0.475594 0.253977 0.190062
C19   C     C_2   0.028767 0.024315 0.746064 0.187315
C20   C     C_2   0.971406 0.975422 0.254088 0.190189
C21   C     C_2   0.505208 0.498347 0.689100 -0.313513
C22   C     C_2   0.494835 0.501615 0.310942 -0.311063
C23   C     C_2   0.005157 0.998343 0.689046 -0.313330
C24   C     C_2   0.994773 0.001609 0.310876 -0.311535
H9    H     H_    0.490741 0.471820 0.696409 0.129330
H10   H     H_    0.509415 0.528077 0.303738 0.131391
H11   H     H_    0.990529 0.971905 0.696193 0.128970
H12   H     H_    0.009156 0.028180 0.303474 0.131557
H13   H     H_    0.289123 0.453082 0.224648 0.166830
H14   H     H_    0.711216 0.448156 0.768252 0.168296
H15   H     H_    0.789129 0.951587 0.227092 0.166923
H16   H     H_    0.211214 0.953656 0.777629 0.167918
C25   C     C_R   0.228675 0.473533 0.192363 0.149250
C26   C     C_R   0.771518 0.470698 0.803591 0.148080
C27   C     C_R   0.728679 0.972697 0.193739 0.149137
C28   C     C_R   0.271516 0.973812 0.808910 0.148398
C29   C     C_R   0.206292 0.501020 0.207774 -0.002075
C30   C     C_R   0.793704 0.500913 0.792304 -0.001889
C31   C     C_R   0.706291 0.001065 0.207715 -0.001980
C32   C     C_R   0.293703 0.000819 0.792144 -0.002124
C33   C     C_R   0.228115 0.529022 0.268068 0.382100
C34   C     C_R   0.771680 0.531617 0.736203 0.382029
C35   C     C_R   0.728109 0.029962 0.266542 0.381998
C36   C     C_R   0.271681 0.028255 0.730449 0.381985
C37   C     C_R   0.271976 0.529063 0.311978 0.144617
C38   C     C_R   0.727821 0.531602 0.692312 0.144744
C39   C     C_R   0.771970 0.029999 0.310453 0.144590
C40   C     C_R   0.227821 0.028229 0.686528 0.145337
C41   C     C_R   0.293705 0.501450 0.295734 0.018547
C42   C     C_R   0.706288 0.501254 0.704419 0.017791
C43   C     C_R   0.793704 0.001500 0.295653 0.018485
C44   C     C_R   0.206288 0.001103 0.704137 0.018076
C45   C     C_R   0.272042 0.474168 0.236572 -0.232594
C46   C     C_R   0.728146 0.471329 0.759481 -0.231997
C47   C     C_R   0.772046 0.973348 0.237915 -0.232655
C48   C     C_R   0.228144 0.974365 0.764655 -0.232311
C49   C     C_1   0.161345 0.500496 0.162134 -0.042086
C50   C     C_1   0.838653 0.500424 0.837891 -0.041865
C51   C     C_1   0.661345 0.000523 0.162110 -0.042111
C52   C     C_1   0.338653 0.000384 0.837832 -0.042216
C53   C     C_1   0.338538 0.500648 0.339426 -0.010901
C54   C     C_1   0.661461 0.500348 0.660654 -0.011085
C55   C     C_1   0.838537 0.000667 0.339388 -0.011017
C56   C     C_1   0.161460 0.000294 0.660518 -0.010920
C57   C     C_1   0.375938 0.500241 0.376217 -0.171064
C58   C     C_1   0.624062 0.499959 0.623818 -0.171302
C59   C     C_1   0.875937 0.000245 0.376203 -0.171160
C60   C     C_1   0.124062 0.999949 0.623764 -0.171380
C61   C     C_1   0.123928 0.500198 0.124314 -0.163416
C62   C     C_1   0.876072 0.500163 0.875689 -0.163311
C63   C     C_1   0.623928 0.000212 0.124308 -0.163528
C64   C     C_1   0.376072 0.000150 0.875676 -0.163492
O17   O     O_R   0.534640 0.440150 0.034560 -0.579501
O18   O     O_R   0.465360 0.440150 0.965440 -0.582974
O19   O     O_R   0.034640 0.940150 0.034560 -0.578828
O20   O     O_R   0.965360 0.940150 0.965440 -0.582315
C65   C     C_R   0.500051 0.420486 0.000059 0.826839
C66   C     C_R   0.000051 0.920486 0.000059 0.825856
O21   O     O_R   0.534630 0.500000 0.945560 -0.584333
O22   O     O_R   0.465370 0.500000 0.054440 -0.583818
O23   O     O_R   0.034630 0.000000 0.945560 -0.584402
O24   O     O_R   0.965370 0.000000 0.054440 -0.583703
O25   O     O_R   0.465350 0.500000 0.876310 -0.584024
O26   O     O_R   0.534650 0.500000 0.123690 -0.584195
O27   O     O_R   0.965350 0.000000 0.876310 -0.584015
O28   O     O_R   0.034650 1.000000 0.123690 -0.584167
C67   C     C_R   0.499802 0.501309 0.882066 0.864360
C68   C     C_R   0.500197 0.498679 0.117933 0.865268
C69   C     C_R   0.999803 0.001311 0.882066 0.864024
C70   C     C_R   0.000199 0.998683 0.117934 0.864945
Cu5   Cu    Cu3+1 0.541020 0.500000 0.040980 0.969970
Cu6   Cu    Cu3+1 0.458980 0.500000 0.959020 0.970457
Cu7   Cu    Cu3+1 0.041020 1.000000 0.040980 0.970446
Cu8   Cu    Cu3+1 0.958980 0.000000 0.959020 0.970990
O29   O     O_R   0.534640 0.559850 0.034640 -0.579964
O30   O     O_R   0.465360 0.559850 0.965360 -0.576289
O31   O     O_R   0.034640 0.059850 0.034640 -0.580019
O32   O     O_R   0.965360 0.059850 0.965360 -0.576384
C71   C     C_R   0.499949 0.579545 0.999945 0.828141
C72   C     C_R   0.999949 0.079545 0.999945 0.828180
O33   O     O_R   0.000000 0.440190 0.051560 -0.570305
O34   O     O_R   0.000000 0.440190 0.948440 -0.570031
O35   O     O_R   0.500000 0.940190 0.051560 -0.570131
O36   O     O_R   0.500000 0.940190 0.948440 -0.569701
C73   C     C_R   0.999999 0.420636 0.000121 0.806086
C74   C     C_R   0.500000 0.920636 0.000122 0.805877
O37   O     O_R   0.059850 0.500040 0.111340 -0.574468
O38   O     O_R   0.940150 0.500040 0.888660 -0.574277
O39   O     O_R   0.559850 0.000040 0.111340 -0.574443
O40   O     O_R   0.440150 0.000040 0.888660 -0.574447
O41   O     O_R   0.059840 0.499970 0.008270 -0.578471
O42   O     O_R   0.940160 0.499970 0.991730 -0.578218
O43   O     O_R   0.559840 0.999970 0.008270 -0.578278
O44   O     O_R   0.440160 0.999970 0.991730 -0.578471
C75   C     C_R   0.079402 0.499990 0.079479 0.820592
C76   C     C_R   0.920598 0.499993 0.920522 0.820258
C77   C     C_R   0.579402 0.999992 0.079478 0.820151
C78   C     C_R   0.420598 0.999996 0.920521 0.820368
Cu9   Cu    Cu3+1 0.000010 0.500040 0.061000 0.988875
Cu10  Cu    Cu3+1 0.999990 0.500040 0.939000 0.988654
Cu11  Cu    Cu3+1 0.500010 0.000040 0.061000 0.989125
Cu12  Cu    Cu3+1 0.499990 0.000040 0.939000 0.989452
O45   O     O_R   0.000010 0.559880 0.051460 -0.578817
O46   O     O_R   0.999990 0.559880 0.948540 -0.579093
O47   O     O_R   0.500010 0.059880 0.051460 -0.578636
O48   O     O_R   0.499990 0.059880 0.948540 -0.578834
C79   C     C_R   0.999997 0.579425 0.999876 0.815010
C80   C     C_R   0.499999 0.079425 0.999877 0.814677
C81   C     C_R   0.976362 0.727797 0.019704 0.132920
C82   C     C_R   0.023861 0.727977 0.979949 0.132832
C83   C     C_R   0.469535 0.227861 0.002437 0.133423
C84   C     C_R   0.530667 0.227909 0.997149 0.133011
C85   C     C_R   0.000079 0.706302 0.999732 0.034971
C86   C     C_R   0.500074 0.206300 0.999700 0.035166
C87   C     C_R   0.530810 0.271890 0.997293 0.140749
C88   C     C_R   0.469507 0.271840 0.002671 0.142419
C89   C     C_R   0.023986 0.771958 0.980037 0.141447
C90   C     C_R   0.976368 0.771777 0.019991 0.143134
C91   C     C_R   0.500179 0.293656 0.000056 0.049284
C92   C     C_R   0.000198 0.793658 0.000082 0.049725
C93   C     C_1   0.000045 0.661269 0.999631 -0.005679
C94   C     C_1   0.500046 0.161268 0.999619 -0.005394
C95   C     C_1   0.500191 0.338627 0.000128 -0.009978
C96   C     C_1   0.000198 0.838629 0.000138 -0.008815
C97   C     C_1   0.500156 0.376018 0.000134 -0.181677
C98   C     C_1   0.000158 0.876019 0.000136 -0.181231
C99   C     C_1   0.000020 0.623894 0.999658 -0.165936
C100  C     C_1   0.500023 0.123893 0.999657 -0.165826
C101  C     C_R   0.979217 0.272654 0.932842 0.334533
C102  C     C_R   0.020353 0.272144 0.067578 0.334674
C103  C     C_R   0.480799 0.772655 0.932998 0.334685
C104  C     C_R   0.518788 0.772143 0.067408 0.334672
C105  C     C_R   0.999813 0.293814 0.000261 -0.105811
C106  C     C_R   0.499822 0.793813 0.000256 -0.105949
C107  C     C_R   0.518915 0.728277 0.067946 0.292263
C108  C     C_R   0.480576 0.728794 0.932244 0.291930
C109  C     C_R   0.020497 0.228278 0.068122 0.292192
C110  C     C_R   0.978979 0.228794 0.932089 0.291928
C111  C     C_R   0.499739 0.706467 0.000043 -0.147549
C112  C     C_R   0.999733 0.206467 0.000054 -0.147624
C113  C     C_1   0.999893 0.338694 0.000350 0.187367
C114  C     C_1   0.499899 0.838694 0.000351 0.187491
C115  C     C_1   0.499782 0.661492 0.999950 -0.015186
C116  C     C_1   0.999779 0.161492 0.999955 -0.015330
C117  C     C_1   0.499840 0.624073 0.999911 -0.170537
C118  C     C_1   0.999839 0.124073 0.999914 -0.170558
C119  C     C_1   0.999950 0.376102 0.000322 -0.140661
C120  C     C_1   0.499954 0.876102 0.000325 -0.140404
C121  C     C_3   0.951395 0.702725 0.040422 -0.818942
H17   H     H_    0.933517 0.721394 0.055391 0.235464
H18   H     H_    0.928863 0.682932 0.993184 0.233025
H19   H     H_    0.972599 0.682545 0.088602 0.234944
C122  C     C_3   0.048756 0.703093 0.959030 -0.818606
H20   H     H_    0.066650 0.721897 0.944133 0.235701
H21   H     H_    0.071260 0.682922 0.006132 0.233113
H22   H     H_    0.027500 0.683300 0.910735 0.234744
C123  C     C_3   0.437427 0.202857 0.005075 -0.820358
H23   H     H_    0.414421 0.221574 0.007068 0.236005
H24   H     H_    0.419901 0.183072 0.955235 0.233024
H25   H     H_    0.453259 0.182671 0.054932 0.234300
C124  C     C_3   0.562715 0.202956 0.994312 -0.819094
H26   H     H_    0.585735 0.221710 0.992380 0.236273
H27   H     H_    0.580221 0.182774 0.044031 0.233329
H28   H     H_    0.546830 0.183169 0.944337 0.234117
O49   O     O_3   0.461413 0.709290 0.864422 -0.726893
H29   H     H_    0.462952 0.678856 0.870209 0.344840
O50   O     O_3   0.538036 0.708255 0.135673 -0.727352
H30   H     H_    0.536183 0.677866 0.129701 0.344390
O51   O     O_3   0.958230 0.209289 0.864103 -0.726926
H31   H     H_    0.959899 0.178854 0.869915 0.345005
O52   O     O_3   0.041205 0.208257 0.136016 -0.727357
H32   H     H_    0.039212 0.177867 0.130048 0.344535
O53   O     O_3   0.959578 0.296031 0.868506 -0.704692
H33   H     H_    0.946236 0.277732 0.824887 0.382333
O54   O     O_3   0.040038 0.295032 0.132020 -0.704631
H34   H     H_    0.053329 0.276402 0.175552 0.382271
O55   O     O_3   0.462665 0.796032 0.868818 -0.704238
H35   H     H_    0.450340 0.777733 0.825302 0.382420
O56   O     O_3   0.536971 0.795030 0.131697 -0.704450
H36   H     H_    0.549245 0.776399 0.175123 0.382296
C125  C     C_3   0.555124 0.557613 0.743610 -0.782329
H37   H     H_    0.574616 0.573359 0.797752 0.215643
H38   H     H_    0.576010 0.543716 0.730016 0.219427
H39   H     H_    0.535161 0.581506 0.701773 0.248595
C126  C     C_3   0.444657 0.442577 0.256212 -0.793796
H40   H     H_    0.425110 0.426889 0.202024 0.213073
H41   H     H_    0.464505 0.418615 0.297999 0.246806
H42   H     H_    0.423816 0.456596 0.269806 0.220665
C127  C     C_3   0.055452 0.057279 0.743893 -0.783113
H43   H     H_    0.075040 0.072920 0.798119 0.215615
H44   H     H_    0.076257 0.043220 0.730252 0.219198
H45   H     H_    0.035652 0.081285 0.702167 0.248608
C128  C     C_3   0.945061 0.942168 0.256557 -0.793887
H46   H     H_    0.925631 0.926352 0.202471 0.212950
H47   H     H_    0.965107 0.918345 0.298480 0.246593
H48   H     H_    0.924120 0.955988 0.270091 0.221056
C129  C     C_3   0.207941 0.442941 0.129598 -0.812748
H49   H     H_    0.173655 0.444120 0.096956 0.241018
H50   H     H_    0.217469 0.449295 0.091432 0.229567
H51   H     H_    0.217776 0.411016 0.151971 0.231988
C130  C     C_3   0.792473 0.437145 0.861773 -0.810627
H52   H     H_    0.826750 0.438485 0.894574 0.240527
H53   H     H_    0.782928 0.439865 0.900605 0.229649
H54   H     H_    0.782840 0.406329 0.834921 0.232725
C131  C     C_3   0.707951 0.941130 0.132571 -0.812517
H55   H     H_    0.673665 0.942351 0.099865 0.240894
H56   H     H_    0.717482 0.946356 0.094120 0.229668
H57   H     H_    0.717786 0.909513 0.156563 0.231969
C132  C     C_3   0.292469 0.943832 0.873206 -0.811521
H58   H     H_    0.326746 0.945041 0.905795 0.241025
H59   H     H_    0.282887 0.950817 0.911028 0.229615
H60   H     H_    0.282872 0.911731 0.852450 0.232417
O57   O     O_3   0.208032 0.556674 0.285984 -0.731853
H61   H     H_    0.177646 0.554021 0.251883 0.334855
O58   O     O_3   0.791565 0.562003 0.722422 -0.732450
H62   H     H_    0.821970 0.559097 0.756058 0.334197
O59   O     O_3   0.708021 0.058503 0.283008 -0.732220
H63   H     H_    0.677635 0.055782 0.249018 0.334525
O60   O     O_3   0.291567 0.055418 0.711163 -0.732216
H64   H     H_    0.321972 0.052852 0.745388 0.334781
C133  C     C_3   0.295919 0.558456 0.376330 -0.748426
H65   H     H_    0.275674 0.578663 0.383876 0.275321
H66   H     H_    0.315991 0.540454 0.428162 0.216761
H67   H     H_    0.315693 0.578801 0.367551 0.220092
C134  C     C_3   0.703668 0.563847 0.632383 -0.749885
H68   H     H_    0.723769 0.586057 0.627855 0.275206
H69   H     H_    0.683694 0.548315 0.578149 0.217221
H70   H     H_    0.683780 0.581901 0.643935 0.219155
C135  C     C_3   0.795908 0.060331 0.373270 -0.748540
H71   H     H_    0.775660 0.081185 0.379760 0.275215
H72   H     H_    0.815979 0.043083 0.425995 0.216967
H73   H     H_    0.815683 0.079991 0.363476 0.219984
C136  C     C_3   0.203670 0.057039 0.620720 -0.750789
H74   H     H_    0.223771 0.076891 0.612168 0.275357
H75   H     H_    0.183726 0.038588 0.569799 0.216904
H76   H     H_    0.183751 0.077737 0.628473 0.219175
C137  C     C_3   0.436692 0.295017 0.005741 -0.832585
H77   H     H_    0.439255 0.329160 0.005818 0.234673
H78   H     H_    0.405442 0.287042 0.956811 0.235571
H79   H     H_    0.439053 0.286480 0.057070 0.233012
C138  C     C_3   0.563709 0.295122 0.994503 -0.829055
H80   H     H_    0.561268 0.329262 0.994835 0.235571
H81   H     H_    0.594927 0.286685 0.043348 0.235869
H82   H     H_    0.561328 0.287096 0.943087 0.233158
C139  C     C_3   0.950905 0.794884 0.041598 -0.833327
H83   H     H_    0.952942 0.829033 0.040280 0.233342
H84   H     H_    0.917659 0.786870 0.002971 0.235145
H85   H     H_    0.961690 0.786326 0.098892 0.233540
C140  C     C_3   0.049552 0.795261 0.958708 -0.830245
H86   H     H_    0.047668 0.829395 0.960436 0.234210
H87   H     H_    0.082763 0.786865 0.997252 0.235679
H88   H     H_    0.038740 0.787256 0.901323 0.233281

loop_
_geom_bond_atom_site_label_1
_geom_bond_atom_site_label_2
_geom_bond_distance
_ccdc_geom_bond_type
C8    C24   1.458573 S    
C90   C139  1.519794 S    
O1    Cu1   1.943069 S    
C129  H50   1.110505 S    
Cu8   O32   1.943554 S    
O57   H61   0.987681 S    
C1    C57   1.436955 S    
C114  C120  1.207585 T    
C139  H83   1.106642 S    
C140  H87   1.110353 S    
C140  H86   1.106637 S    
O22   Cu6   1.963687 S    
O15   C7    1.281349 A    
Cu9   Cu10  2.676806 S    
C14   H6    1.086246 S    
O26   C68   1.280963 A    
O22   C68   1.286124 A    
C44   C48   1.395266 A    
O35   C74   1.295859 A    
O39   Cu11  1.943344 S    
C15   H7    1.086246 S    
O24   C70   1.286161 A    
O20   C66   1.285451 A    
C122  H21   1.110584 S    
O23   C69   1.286108 A    
O58   H62   0.987678 S    
C94   C100  1.206507 T    
C123  H23   1.105175 S    
O40   Cu12  1.943344 S    
C136  H76   1.110504 S    
O7    C3    1.286136 A    
C84   C124  1.520725 S    
C95   C97   1.207022 T    
O2    C2    1.285740 A    
C41   C53   1.447372 S    
C130  H52   1.107811 S    
C125  H37   1.110629 S    
C17   C125  1.509539 S    
C88   C137  1.519772 S    
C39   C135  1.513193 S    
C12   C16   1.340603 D    
O44   Cu11  1.941667 S    
O39   C77   1.295147 A    
C72   C118  1.437441 S    
C132  H58   1.107808 S    
C137  H79   1.110360 S    
O44   C78   1.294912 A    
H14   C46   1.085017 S    
C89   C140  1.519710 S    
C131  H55   1.107800 S    
O38   C76   1.295133 A    
C29   C33   1.425246 A    
C32   C52   1.450697 S    
O20   Cu8   1.942389 S    
C2    C58   1.436952 S    
C25   C129  1.510164 S    
C101  C105  1.402602 A    
C9    C13   1.340614 D    
C56   C60   1.207186 T    
C124  H28   1.110578 S    
O36   Cu12  1.942129 S    
C10   H2    1.086830 S    
O18   C65   1.285456 A    
O10   C6    1.281331 A    
C128  H46   1.110644 S    
C122  H20   1.105163 S    
C121  H18   1.110593 S    
O56   H36   0.989143 S    
Cu11  O47   1.942050 S    
C28   C48   1.399867 A    
Cu5   O29   1.942394 S    
C125  H38   1.110890 S    
C82   C85   1.412779 A    
C124  H27   1.110587 S    
Cu7   O31   1.942394 S    
C19   C127  1.509533 S    
O28   Cu7   1.966514 S    
O41   C75   1.294911 A    
C138  H82   1.110362 S    
C25   C45   1.399849 A    
C26   C130  1.510170 S    
C61   C75   1.437008 S    
O27   Cu8   1.966513 S    
O16   C8    1.286089 A    
C64   C78   1.436990 S    
C43   C47   1.395265 A    
O12   C8    1.281428 A    
C34   C38   1.415469 A    
O31   C72   1.285936 A    
C83   C123  1.520757 S    
C17   C21   1.351154 D    
O4    C4    1.285757 A    
O14   C6    1.286107 A    
C16   C70   1.456034 S    
O59   H63   0.987682 S    
C43   C55   1.447376 S    
C133  H65   1.108639 S    
C92   C96   1.451738 S    
C135  H72   1.110505 S    
O8    C4    1.286522 A    
C6    C22   1.458415 S    
C103  C106  1.402604 A    
C85   C93   1.453728 S    
O35   Cu11  1.944049 S    
C74   C120  1.437605 S    
C26   C46   1.399871 A    
Cu12  O48   1.943991 S    
C35   O59   1.385901 S    
C65   C97   1.435466 S    
C129  H49   1.107811 S    
C90   C92   1.419491 A    
C122  H22   1.110579 S    
C12   C20   1.478661 S    
O9    Cu1   1.963385 S    
C121  H17   1.105169 S    
C105  C113  1.448811 S    
C63   C77   1.437004 S    
O42   Cu9   1.941667 S    
O21   Cu5   1.963682 S    
Cu2   Cu4   2.648361 S    
C126  H42   1.110930 S    
C96   C98   1.207009 T    
O43   Cu12  1.941652 S    
C54   C58   1.207189 T    
C51   C63   1.207618 T    
C123  H24   1.110594 S    
C15   C69   1.456084 S    
O17   C65   1.285729 A    
C34   O58   1.385928 S    
C110  O51   1.386283 S    
C27   C31   1.416158 A    
O41   Cu10  1.941652 S    
C130  H53   1.110511 S    
C13   C67   1.456048 S    
Cu9   O45   1.942050 S    
C10   C14   1.340674 D    
O4    Cu2   1.941901 S    
O34   Cu10  1.942129 S    
O13   Cu3   1.964425 S    
C84   C87   1.419784 A    
Cu10  O46   1.943991 S    
C40   C136  1.513206 S    
C49   C61   1.207621 T    
O54   H34   0.989140 S    
C124  H26   1.105172 S    
C127  H45   1.109680 S    
O52   H32   0.987543 S    
C131  H56   1.110521 S    
C26   C30   1.416174 A    
O11   Cu2   1.963385 S    
C33   O57   1.385901 S    
O16   Cu4   1.962510 S    
C23   H11   1.086315 S    
C136  H74   1.108649 S    
O49   H29   0.987542 S    
C36   O60   1.385906 S    
C42   C54   1.447374 S    
C101  C110  1.416011 A    
C135  H73   1.110504 S    
C9    C17   1.478607 S    
C32   C36   1.425224 A    
C128  H47   1.109685 S    
O17   Cu5   1.943564 S    
O19   C66   1.285724 A    
C103  O55   1.384978 S    
C121  H19   1.110580 S    
C87   C91   1.419532 A    
O50   H30   0.987539 S    
C115  C117  1.207926 T    
O5    C1    1.286125 A    
C137  H77   1.106635 S    
C107  C111  1.423290 A    
C131  H57   1.110515 S    
O53   H33   0.989139 S    
O25   C67   1.280927 A    
C27   C47   1.399836 A    
C42   C46   1.395256 A    
C7    C23   1.458352 S    
O6    Cu3   1.943065 S    
C86   C94   1.453706 S    
O46   C79   1.293627 A    
C41   C45   1.395267 A    
C73   C119  1.437602 S    
O1    C1    1.286160 A    
C107  O50   1.386274 S    
C138  H80   1.106641 S    
C66   C98   1.435447 S    
C83   C86   1.412845 A    
O9    C5    1.286045 A    
C36   C40   1.415481 A    
C87   C138  1.519712 S    
O47   C80   1.293137 A    
C33   C37   1.415506 A    
O15   Cu4   1.964425 S    
C126  H41   1.109679 S    
O21   C67   1.286139 A    
Cu7   Cu8   2.647681 S    
O28   C70   1.280898 A    
C111  C115  1.451884 S    
O30   C71   1.286207 A    
O27   C69   1.280976 A    
C5    C21   1.458482 S    
C134  H70   1.110506 S    
O36   C74   1.295396 A    
C84   C86   1.412803 A    
C89   C92   1.419534 A    
O37   Cu9   1.943344 S    
C30   C34   1.425206 A    
C127  H44   1.110934 S    
C44   C56   1.447375 S    
C38   C42   1.410432 A    
Cu1   Cu3   2.648361 S    
O8    Cu4   1.943065 S    
C140  H88   1.110352 S    
O33   C73   1.295857 A    
C102  O54   1.384965 S    
C16   H8    1.086268 S    
O34   C73   1.295398 A    
C136  H75   1.110518 S    
C110  C112  1.423230 A    
C52   C64   1.207610 T    
C28   C32   1.416163 A    
C81   C85   1.412869 A    
O29   C71   1.285933 A    
C22   H10   1.086313 S    
O18   Cu6   1.942389 S    
C28   C132  1.510166 S    
C24   H12   1.086325 S    
C93   C99   1.206514 T    
C103  C108  1.416005 A    
C126  H40   1.110632 S    
C123  H25   1.110583 S    
C79   C99   1.435498 S    
C80   C100  1.435479 S    
C130  H54   1.110511 S    
O32   C72   1.286204 A    
C109  O52   1.386277 S    
C71   C117  1.437437 S    
C62   C76   1.436987 S    
C133  H67   1.110502 S    
O48   C80   1.293616 A    
C10   C18   1.478689 S    
C88   C91   1.419522 A    
C4    C60   1.436957 S    
O14   Cu3   1.962510 S    
C40   C44   1.410424 A    
H15   C47   1.085010 S    
C20   C128  1.509528 S    
C109  C112  1.423295 A    
O12   Cu2   1.965297 S    
C81   C90   1.419751 A    
C30   C50   1.450691 S    
O26   Cu5   1.966514 S    
C19   C23   1.351096 D    
O60   H64   0.987681 S    
C104  C107  1.416035 A    
C29   C49   1.450718 S    
C31   C35   1.425244 A    
O43   C77   1.294902 A    
C139  H85   1.110351 S    
O3    Cu2   1.943069 S    
C18   C22   1.351132 D    
C104  O56   1.384964 S    
C31   C51   1.450712 S    
O45   C79   1.293132 A    
C102  C109  1.416038 A    
C108  C111  1.423223 A    
C91   C95   1.451756 S    
C112  C116  1.451885 S    
C128  H48   1.110879 S    
C13   H5    1.086265 S    
C132  H60   1.110512 S    
C133  H66   1.110514 S    
O51   H31   0.987546 S    
C139  H84   1.110340 S    
C37   C133  1.513191 S    
Cu11  Cu12  2.676806 S    
O24   Cu8   1.963687 S    
C104  C106  1.402537 A    
C35   C39   1.415505 A    
C113  C119  1.207585 T    
H16   C48   1.085001 S    
O5    Cu3   1.941900 S    
O23   Cu7   1.963682 S    
C108  O49   1.386282 S    
C27   C131  1.510168 S    
C39   C43   1.410418 A    
O40   C78   1.295115 A    
C138  H81   1.110361 S    
C21   H9    1.086326 S    
C127  H43   1.110622 S    
C11   C15   1.340665 D    
O11   C7    1.286059 A    
O37   C75   1.295142 A    
C134  H69   1.110525 S    
C11   H3    1.086826 S    
O2    Cu1   1.941901 S    
C81   C121  1.520726 S    
C12   H4    1.086838 S    
O19   Cu7   1.943564 S    
C53   C57   1.207184 T    
C38   C134  1.513211 S    
C50   C62   1.207607 T    
H13   C45   1.085018 S    
O13   C5    1.281421 A    
O33   Cu9   1.944049 S    
C102  C105  1.402538 A    
O3    C3    1.286155 A    
O6    C2    1.286539 A    
O7    Cu4   1.941900 S    
C55   C59   1.207190 T    
C125  H39   1.109684 S    
C25   C29   1.416154 A    
C20   C24   1.351208 D    
C3    C59   1.436961 S    
O10   Cu1   1.965297 S    
C137  H78   1.110350 S    
Cu5   Cu6   2.647681 S    
O38   Cu10  1.943344 S    
C129  H51   1.110512 S    
C9    H1    1.086830 S    
C82   C122  1.520705 S    
C37   C41   1.410406 A    
C83   C88   1.419748 A    
O25   Cu6   1.966513 S    
C11   C19   1.478626 S    
C106  C114  1.448812 S    
C101  O53   1.384976 S    
O42   C76   1.294892 A    
C135  H71   1.108630 S    
C14   C68   1.456083 S    
C132  H59   1.110510 S    
C18   C126  1.509532 S    
Cu6   O30   1.943554 S    
C82   C89   1.419781 A    
C116  C118  1.207926 T    
O55   H35   0.989142 S    
C134  H68   1.108645 S    
