data_mof_unit_pretest_1444.cif
_audit_creation_date              2012-12-11T14:39:31-0500
_audit_creation_method            fapswitch 2.2
_symmetry_space_group_name_H-M    P1
_symmetry_Int_Tables_number       1
_space_group_crystal_system       triclinic
_cell_length_a                    7.20485
_cell_length_b                    14.131987
_cell_length_c                    16.298776
_cell_angle_alpha                 89.999924
_cell_angle_beta                  96.799483
_cell_angle_gamma                 90.000118
_cell_volume                      1647.85044717

loop_
_atom_site_label
_atom_site_type_symbol
_atom_type_description
_atom_site_fract_x
_atom_site_fract_y
_atom_site_fract_z
_atom_type_partial_charge
O1    O     O_R   0.525340 0.338340 0.164530 -0.498364
O2    O     O_R   0.474660 0.661660 0.835470 -0.499744
O3    O     O_R   0.974660 0.838340 0.835470 -0.498366
O4    O     O_R   0.025340 0.161660 0.164530 -0.499743
O5    O     O_R   0.253520 0.352000 0.336710 -0.550183
O6    O     O_R   0.746480 0.648000 0.663290 -0.549406
O7    O     O_R   0.246480 0.852000 0.663290 -0.550183
O8    O     O_R   0.753520 0.148000 0.336710 -0.549406
O9    O     O_R   0.083330 0.168380 0.337300 -0.540256
O10   O     O_R   0.916670 0.831620 0.662700 -0.536573
O11   O     O_R   0.416670 0.668380 0.662700 -0.540256
O12   O     O_R   0.583330 0.331620 0.337300 -0.536574
C1    C     C_R   0.431915 0.368730 0.363774 0.670381
C2    C     C_R   0.568090 0.631280 0.636209 0.667448
C3    C     C_R   0.068085 0.868730 0.636226 0.670384
C4    C     C_R   0.931910 0.131280 0.363791 0.667449
O13   O     O_R   0.195840 0.349670 0.165140 -0.541178
O14   O     O_R   0.804160 0.650330 0.834860 -0.548659
O15   O     O_R   0.304160 0.849670 0.834860 -0.541178
O16   O     O_R   0.695840 0.150330 0.165140 -0.548657
C5    C     C_R   0.359127 0.373745 0.139194 0.798713
C6    C     C_R   0.642254 0.630112 0.863772 0.785120
C7    C     C_R   0.140873 0.873745 0.860806 0.798714
C8    C     C_R   0.857746 0.130112 0.136227 0.785121
O17   O     O_3   0.387830 0.193120 0.250910 -0.376315
O18   O     O_3   0.612170 0.806880 0.749090 -0.366892
O19   O     O_3   0.112170 0.693120 0.749090 -0.376317
O20   O     O_3   0.887830 0.306880 0.250910 -0.366892
V1    V     V_3+5 0.113010 0.264540 0.250910 1.480761
V2    V     V_3+5 0.886990 0.735460 0.749090 1.473823
V3    V     V_3+5 0.386990 0.764540 0.749090 1.480760
V4    V     V_3+5 0.613010 0.235460 0.250910 1.473827
C9    C     C_R   0.075939 0.195181 0.526991 -0.145196
C10   C     C_R   0.924011 0.804821 0.473072 -0.145393
C11   C     C_R   0.424053 0.695180 0.473010 -0.145195
C12   C     C_R   0.575996 0.304822 0.526927 -0.145392
C13   C     C_R   0.145734 0.227888 0.605225 -0.106739
C14   C     C_R   0.853982 0.772116 0.394872 -0.105249
C15   C     C_R   0.354252 0.727886 0.394776 -0.106738
C16   C     C_R   0.646031 0.272118 0.605126 -0.105249
C17   C     C_R   0.178535 0.164917 0.670789 -0.131215
C18   C     C_R   0.820898 0.835097 0.329334 -0.132535
C19   C     C_R   0.321449 0.664915 0.329213 -0.131216
C20   C     C_R   0.679117 0.335099 0.670664 -0.132534
C21   C     C_R   0.141768 0.068798 0.658567 -0.132323
C22   C     C_R   0.857729 0.931218 0.341536 -0.140993
C23   C     C_R   0.358220 0.568797 0.341435 -0.132327
C24   C     C_R   0.642282 0.431220 0.658462 -0.140995
C25   C     C_R   0.072528 0.033404 0.579549 0.062881
C26   C     C_R   0.927272 0.966610 0.420515 0.064232
C27   C     C_R   0.427467 0.533404 0.420452 0.062882
C28   C     C_R   0.572733 0.466611 0.579484 0.064232
C29   C     C_R   0.038920 0.097728 0.512513 0.053012
C30   C     C_R   0.961004 0.902282 0.487539 0.053412
C31   C     C_R   0.461076 0.597728 0.487487 0.053014
C32   C     C_R   0.539000 0.402282 0.512460 0.053414
C33   C     C_R   0.033515 0.935892 0.566869 -0.169018
C34   C     C_R   0.966438 0.064119 0.433171 -0.169100
C35   C     C_R   0.466485 0.435892 0.433131 -0.169019
C36   C     C_R   0.533562 0.564119 0.566829 -0.169101
H1    H     H_    0.173579 0.302575 0.615076 0.130839
H2    H     H_    0.826125 0.697427 0.385032 0.132370
H3    H     H_    0.326403 0.802573 0.384926 0.130840
H4    H     H_    0.673891 0.197429 0.614966 0.132372
H5    H     H_    0.167221 0.022894 0.711822 0.101673
H6    H     H_    0.832062 0.977131 0.288296 0.100181
H7    H     H_    0.332765 0.522893 0.288180 0.101673
H8    H     H_    0.667951 0.477133 0.711702 0.100182
C37   C     C_2   0.141938 0.946289 0.926850 -0.358509
C38   C     C_2   0.854721 0.063660 0.065549 -0.353735
C39   C     C_2   0.358064 0.446292 0.073151 -0.358509
C40   C     C_2   0.645278 0.563658 0.934450 -0.353730
C41   C     C_2   0.984050 0.990477 0.945767 0.279100
C42   C     C_2   0.994120 0.059909 0.015821 0.287718
C43   C     C_2   0.515954 0.490476 0.054232 0.279093
C44   C     C_2   0.505885 0.559910 0.984181 0.287713
H9    H     H_    0.734624 0.017043 0.053827 0.097356
H10   H     H_    0.275855 0.962504 0.961964 0.101524
H11   H     H_    0.765368 0.517038 0.946168 0.097358
H12   H     H_    0.224146 0.462511 0.038040 0.101524
H13   H     H_    0.767341 0.809293 0.268583 0.118412
H14   H     H_    0.231835 0.190719 0.731575 0.115770
H15   H     H_    0.732679 0.309296 0.731415 0.118413
H16   H     H_    0.268142 0.690716 0.268428 0.115770
H17   H     H_    0.050205 0.247350 0.478418 0.116915
H18   H     H_    0.949903 0.752647 0.521632 0.116374
H19   H     H_    0.449788 0.747349 0.521583 0.116915
H20   H     H_    0.550102 0.252647 0.478367 0.116374
O21   O     O_3   0.142710 0.122475 0.028613 -0.630563
H21   H     H_    0.213216 0.120698 0.980017 0.271272
O22   O     O_3   0.814376 0.972700 0.898980 -0.625910
H22   H     H_    0.722746 0.021092 0.911957 0.274757
O23   O     O_3   0.357303 0.622481 0.971393 -0.630565
H23   H     H_    0.286802 0.620703 0.019990 0.271271
O24   O     O_3   0.685634 0.472691 0.101014 -0.625909
H24   H     H_    0.777258 0.521085 0.088040 0.274759

loop_
_geom_bond_atom_site_label_1
_geom_bond_atom_site_label_2
_ccdc_geom_bond_type
O1    C5    A    
O23   H23   S    
O13   V1    S    
C41   C42   S    
C7    C37   S    
O3    C7    A    
O24   H24   S    
C40   C44   D    
C20   H15   S    
O15   V3    S    
C8    C38   S    
C12   H20   S    
C26   C30   A    
C5    C39   S    
C42   O21   S    
O20   V1    S    
O9    C4    A    
C22   H6    S    
C40   H11   S    
O10   C3    A    
C10   H18   S    
O4    C8    A    
O11   C2    A    
C25   C33   A    
C18   C22   A    
C23   H7    S    
C9    H17   S    
C28   C36   A    
C11   H19   S    
O16   C8    A    
C38   C42   D    
C37   C41   D    
O14   V2    S    
O5    C1    A    
O4    V1    S    
O9    V1    S    
O17   V4    S    
O7    C3    A    
O11   V3    S    
O18   V3    S    
O8    C4    A    
C10   C14   A    
C31   C36   A    
O12   V4    S    
C38   H9    S    
C19   H16   S    
C3    C33   S    
C37   H10   S    
C18   H13   S    
C6    C40   S    
C39   H12   S    
O5    V1    S    
C9    C29   A    
O7    V3    S    
C43   O24   S    
C26   C34   A    
C12   C16   A    
C41   O22   S    
O22   H22   S    
O19   V2    S    
O15   C7    A    
C23   C27   A    
C11   C31   A    
O1    V4    S    
O13   C5    A    
O2    V3    S    
O8    V4    S    
O3    V2    S    
C11   C15   A    
C43   C44   S    
O2    C6    A    
C12   C32   A    
C44   O23   S    
O6    C2    A    
O10   V2    S    
C21   C25   A    
C4    C34   S    
C24   H8    S    
O6    V2    S    
C10   C30   A    
C21   H5    S    
C27   C35   A    
C15   H3    S    
O16   V4    S    
O14   C6    A    
C13   H1    S    
C29   C34   A    
C14   C18   A    
C1    C35   S    
C2    C36   S    
C22   C26   A    
C16   H4    S    
C32   C35   A    
C39   C43   D    
C25   C29   A    
C17   H14   S    
C27   C31   A    
C13   C17   A    
C9    C13   A    
C28   C32   A    
C16   C20   A    
O12   C1    A    
C15   C19   A    
C17   C21   A    
O21   H21   S    
C24   C28   A    
C19   C23   A    
C20   C24   A    
C14   H2    S    
C30   C33   A    
