data_mof_unit_pretest_839.cif
_audit_creation_date              2012-12-10T17:22:08-0500
_audit_creation_method            fapswitch 2.2
_symmetry_space_group_name_H-M    P1
_symmetry_Int_Tables_number       1
_space_group_crystal_system       triclinic
_cell_length_a                    15.965412
_cell_length_b                    10.931528
_cell_length_c                    9.746234
_cell_angle_alpha                 89.111515
_cell_angle_beta                  89.601559
_cell_angle_gamma                 94.675897
_cell_volume                      1695.05192342

loop_
_atom_site_label
_atom_site_type_symbol
_atom_type_description
_atom_site_fract_x
_atom_site_fract_y
_atom_site_fract_z
_atom_type_partial_charge
C1    C     C_R   0.496473 0.262151 0.501108 0.773852
C2    C     C_3   0.947029 0.423798 0.631138 0.326879
C3    C     C_3   0.916026 0.482817 0.490791 0.079694
C4    C     C_3   0.958191 0.616625 0.463070 -0.195249
C5    C     C_3   0.057388 0.618416 0.457691 0.252096
C6    C     C_1   0.823346 0.486302 0.491700 -0.036462
C7    C     C_1   0.175697 0.481764 0.489756 -0.014488
C8    C     C_1   0.251072 0.486956 0.495971 -0.129284
C9    C     C_R   0.424338 0.110509 0.736832 0.002340
C10   C     C_R   0.423161 0.046338 0.862856 0.116320
C11   C     C_R   0.416817 0.918111 0.860626 -0.049928
C12   C     C_R   0.340713 0.495344 0.499684 0.843662
C13   C     C_R   0.416194 0.861337 0.733039 -0.102781
C14   C     C_R   0.453276 0.926621 0.617587 0.009556
C15   C     C_R   0.457521 0.056291 0.620225 -0.004132
C16   C     C_R   0.487927 0.126396 0.503235 -0.086669
C17   C     C_R   0.512589 0.065656 0.385998 -0.199168
C18   C     C_R   0.510820 0.938749 0.384495 -0.185559
C19   C     C_R   0.483687 0.868204 0.499918 -0.069727
C20   C     C_R   0.627617 0.632781 0.144299 -0.220288
C21   C     C_R   0.704855 0.664572 0.083617 -0.040115
C22   C     C_R   0.713596 0.650240 0.942495 0.109444
C23   C     C_R   0.494507 0.736051 0.499515 0.770160
C24   C     C_R   0.639230 0.630097 0.864941 0.190990
C25   C     C_R   0.567926 0.559687 0.926364 0.113257
C26   C     C_R   0.564788 0.562406 0.074492 0.130102
C27   C     C_R   0.435400 0.444510 0.075417 0.222112
C28   C     C_R   0.431797 0.457808 0.929888 0.006474
C29   C     C_R   0.659213 0.498509 0.499186 0.803802
C30   C     C_3   0.046756 0.436269 0.632437 -0.088468
C31   C     C_3   0.041952 0.387797 0.379694 -0.056815
C32   C     C_3   0.944847 0.401964 0.368601 -0.217332
C33   C     C_1   0.748359 0.491959 0.495881 -0.165560
C34   C     C_3   0.083141 0.481488 0.487148 0.196010
Cu1   Cu    Cu3+1 0.499990 0.499990 0.640660 0.965603
Cu2   Cu    Cu3+1 0.500010 0.500010 0.359340 0.947260
H1    H     H_    0.068096 0.507324 0.706745 0.186091
H2    H     H_    0.936100 0.645033 0.360780 0.172830
H3    H     H_    0.536371 0.116766 0.295901 0.164333
H4    H     H_    0.533940 0.895947 0.293718 0.163463
H5    H     H_    0.618078 0.664831 0.245760 0.203693
H6    H     H_    0.046391 0.294787 0.424428 0.170896
H7    H     H_    0.911076 0.309243 0.376062 0.135786
N1    N     N_R   0.500800 0.501210 0.147910 -0.179356
N2    N     N_R   0.500820 0.501290 0.852040 -0.222155
O1    O     O_R   0.499990 0.319640 0.618810 -0.573401
O2    O     O_R   0.500000 0.319660 0.381240 -0.589765
O3    O     O_R   0.379430 0.499990 0.618840 -0.550083
O4    O     O_R   0.379440 0.500020 0.381260 -0.587076
O5    O     O_R   0.500000 0.680340 0.618760 -0.590767
O6    O     O_R   0.500010 0.680360 0.381190 -0.587989
O7    O     O_R   0.620560 0.499980 0.618740 -0.570239
O8    O     O_R   0.620570 0.500010 0.381160 -0.583974
C35   C     C_3   0.909074 0.287374 0.646980 -0.785630
H8    H     H_    0.919282 0.249757 0.751528 0.239076
H9    H     H_    0.840052 0.280051 0.631295 0.226809
H10   H     H_    0.936760 0.224788 0.574424 0.207918
C36   C     C_3   0.915636 0.488305 0.759315 -0.843192
H11   H     H_    0.940782 0.585328 0.762977 0.223860
H12   H     H_    0.845991 0.480974 0.764008 0.253713
H13   H     H_    0.937961 0.443865 0.854042 0.250988
C37   C     C_1   0.355358 0.184707 0.711724 0.252110
N3    N     N_1   0.298400 0.239692 0.687248 -0.312669
C38   C     C_3   0.418776 0.112900 0.995536 -0.851590
H14   H     H_    0.436251 0.211644 0.977783 0.235468
H15   H     H_    0.354534 0.098058 0.040157 0.237233
H16   H     H_    0.464775 0.079058 0.068961 0.233879
C39   C     C_1   0.400453 0.845604 0.985266 0.240682
N4    N     N_1   0.387561 0.787565 0.084632 -0.278534
C40   C     C_1   0.350915 0.764458 0.714702 0.288089
N5    N     N_1   0.295711 0.690440 0.703945 -0.298579
C41   C     C_3   0.361473 0.375045 0.148468 -0.781766
H17   H     H_    0.313743 0.439172 0.175306 0.240267
H18   H     H_    0.328456 0.305923 0.081806 0.183012
H19   H     H_    0.381172 0.321873 0.237847 0.265898
C42   C     C_3   0.086293 0.322770 0.694787 -0.833978
H20   H     H_    0.154692 0.342174 0.707362 0.279130
H21   H     H_    0.060424 0.302029 0.799380 0.241541
H22   H     H_    0.076274 0.239345 0.632238 0.235231
C43   C     C_1   0.771083 0.723981 0.165327 0.266464
N6    N     N_1   0.823855 0.772258 0.230582 -0.307726
C44   C     C_3   0.794770 0.696398 0.873310 -0.825766
H23   H     H_    0.847803 0.654945 0.923895 0.255881
H24   H     H_    0.792752 0.671789 0.763516 0.253444
H25   H     H_    0.805126 0.797697 0.881605 0.242363
C45   C     C_3   0.625915 0.742836 0.779277 -0.727217
H26   H     H_    0.640963 0.728024 0.670007 0.236803
H27   H     H_    0.563037 0.773466 0.801250 0.234549
H28   H     H_    0.667271 0.824876 0.808655 0.199663
C46   C     C_1   0.348110 0.451456 0.875485 0.352967
N7    N     N_1   0.278956 0.448381 0.840092 -0.277333
C47   C     C_3   0.089461 0.375246 0.242070 -0.846851
H29   H     H_    0.154792 0.351738 0.260913 0.234747
H30   H     H_    0.057900 0.298593 0.183240 0.233726
H31   H     H_    0.092213 0.457533 0.175213 0.252480
C48   C     C_1   0.919543 0.447662 0.232452 0.272915
N8    N     N_1   0.899441 0.483187 0.126216 -0.316934
C49   C     C_3   0.100011 0.712485 0.560707 -0.797655
H32   H     H_    0.078544 0.697174 0.668174 0.213455
H33   H     H_    0.169176 0.712620 0.555832 0.253052
H34   H     H_    0.085616 0.807681 0.533799 0.235024
C50   C     C_3   0.088756 0.667655 0.313699 -0.798258
H35   H     H_    0.083778 0.768238 0.303810 0.231589
H36   H     H_    0.155461 0.650676 0.294975 0.241072
H37   H     H_    0.049810 0.628405 0.229506 0.226359
C51   C     C_1   0.925455 0.713513 0.547957 0.253920
N9    N     N_1   0.900950 0.791836 0.611585 -0.301571

loop_
_geom_bond_atom_site_label_1
_geom_bond_atom_site_label_2
_ccdc_geom_bond_type
C31   H6    S    
Cu1   Cu2   S    
C42   H22   S    
C12   O3    A    
C3    C6    S    
C12   O4    A    
C26   N1    A    
C7    C8    T    
C20   C26   A    
C50   H37   S    
C44   H25   S    
C22   C44   S    
C42   H21   S    
C45   H27   S    
C1    O1    A    
C13   C40   S    
C36   H12   S    
C15   C16   A    
C49   H32   S    
C29   C33   S    
Cu2   O2    S    
C18   C19   A    
C17   H3    S    
C18   H4    S    
Cu2   O8    S    
C5    C50   S    
C27   N1    A    
C39   N4    T    
C40   N5    T    
C9    C10   A    
C36   H13   S    
C21   C22   A    
C5    C34   S    
C3    C32   S    
C41   H19   S    
Cu1   O3    S    
C20   H5    S    
C35   H9    S    
C28   N2    A    
C30   C34   S    
C9    C37   S    
C38   H16   S    
C42   H20   S    
C41   H18   S    
C2    C35   S    
C45   H26   S    
C41   H17   S    
C23   O5    A    
C25   C26   A    
C4    C51   S    
C47   H31   S    
C30   H1    S    
C38   H15   S    
C19   C23   S    
C37   N3    T    
C30   C42   S    
C23   O6    A    
C31   C32   S    
C8    C12   S    
C48   N8    T    
C20   C21   A    
Cu1   O5    S    
C47   H30   S    
C17   C18   A    
C31   C34   S    
C1    C16   S    
C24   C25   A    
C50   H36   S    
Cu2   O6    S    
C32   C48   S    
C4    H2    S    
C44   H23   S    
C44   H24   S    
C7    C34   S    
C22   C24   A    
Cu2   N1    S    
C3    C4    S    
Cu1   N2    S    
C25   N2    A    
Cu1   O7    S    
C11   C39   S    
C35   H8    S    
C14   C19   A    
C1    O2    A    
C43   N6    T    
C45   H28   S    
C2    C36   S    
C49   H34   S    
C10   C38   S    
C6    C33   T    
C2    C30   S    
C38   H14   S    
C2    C3    S    
C36   H11   S    
C11   C13   A    
C46   N7    T    
C16   C17   A    
C29   O8    A    
C21   C43   S    
C47   H29   S    
C32   H7    S    
C9    C15   A    
C50   H35   S    
C49   H33   S    
C10   C11   A    
C27   C41   S    
C4    C5    S    
C5    C49   S    
C31   C47   S    
C51   N9    T    
C27   C28   A    
C14   C15   A    
C28   C46   S    
C13   C14   A    
Cu1   O1    S    
C24   C45   S    
C35   H10   S    
Cu2   O4    S    
C29   O7    A    
