data_mof_unit_pretest_1760.cif
_audit_creation_date              2012-12-10T18:24:39-0500
_audit_creation_method            fapswitch 2.2
_symmetry_space_group_name_H-M    P1
_symmetry_Int_Tables_number       1
_space_group_crystal_system       triclinic
_cell_length_a                    30.166447
_cell_length_b                    30.850101
_cell_length_c                    24.561779
_cell_angle_alpha                 89.934388
_cell_angle_beta                  128.034479
_cell_angle_gamma                 89.995832
_cell_volume                      18003.9544793

loop_
_atom_site_label
_atom_site_type_symbol
_atom_type_description
_atom_site_fract_x
_atom_site_fract_y
_atom_site_fract_z
_atom_type_partial_charge
C1    C     C_R   0.812385 0.810294 0.503040 0.924528
C2    C     C_R   0.187730 0.810296 0.497188 0.927093
C3    C     C_R   0.312379 0.310293 0.503027 0.923727
C4    C     C_R   0.687679 0.310297 0.497083 0.923003
C5    C     C_R   0.650284 0.755905 0.290172 -0.141873
C6    C     C_R   0.350016 0.755221 0.709918 -0.142830
C7    C     C_R   0.150260 0.255875 0.290172 -0.141133
C8    C     C_R   0.850035 0.255200 0.709920 -0.142771
C9    C     C_R   0.460925 0.755770 0.929999 0.336039
C10   C     C_R   0.536147 0.757350 0.069398 0.342181
C11   C     C_R   0.960919 0.255711 0.930001 0.335808
C12   C     C_R   0.036112 0.257279 0.069403 0.341973
C13   C     C_3   0.902205 0.825067 0.521193 -0.351607
C14   C     C_3   0.098110 0.825048 0.479503 -0.350301
C15   C     C_3   0.402191 0.325063 0.521156 -0.351554
C16   C     C_3   0.597873 0.325095 0.478919 -0.350817
C17   C     C_3   0.936940 0.860892 0.519728 0.041409
C18   C     C_3   0.063264 0.860903 0.480685 0.040767
C19   C     C_3   0.436928 0.360889 0.519696 0.041108
C20   C     C_3   0.563118 0.360908 0.480362 0.040258
C21   C     C_3   0.812606 0.863599 0.429976 -0.507380
C22   C     C_3   0.187640 0.863603 0.570256 -0.511984
C23   C     C_3   0.312596 0.363606 0.429963 -0.507579
C24   C     C_3   0.687455 0.363394 0.570265 -0.509301
C25   C     C_3   0.860158 0.881715 0.554880 0.249186
C26   C     C_3   0.139903 0.881690 0.445261 0.278300
C27   C     C_3   0.360152 0.381707 0.554868 0.249155
C28   C     C_3   0.640067 0.381841 0.445435 0.249923
C29   C     C_3   0.847081 0.844111 0.503808 -0.089580
C30   C     C_3   0.153097 0.844101 0.496518 -0.099996
C31   C     C_3   0.347073 0.344108 0.503789 -0.089530
C32   C     C_3   0.653030 0.344106 0.496393 -0.089070
C33   C     C_3   0.905112 0.905040 0.499940 -0.092130
C34   C     C_3   0.094969 0.905047 0.500159 -0.112592
C35   C     C_3   0.405110 0.405039 0.499935 -0.092319
C36   C     C_3   0.594947 0.405019 0.500186 -0.092587
C37   C     C_3   0.846394 0.899825 0.427214 0.103434
C38   C     C_3   0.153786 0.899867 0.572854 0.103739
C39   C     C_3   0.346386 0.399835 0.427212 0.103375
C40   C     C_3   0.653661 0.399675 0.572937 0.103550
C41   C     C_3   0.895634 0.916518 0.553354 -0.361735
C42   C     C_3   0.104238 0.916462 0.446485 -0.326842
C43   C     C_3   0.395646 0.416503 0.553365 -0.361238
C44   C     C_3   0.604428 0.416577 0.446764 -0.360109
C45   C     C_R   0.685362 0.752554 0.365792 0.970267
C46   C     C_R   0.314697 0.752427 0.634237 0.967925
C47   C     C_R   0.185351 0.252543 0.365791 0.968090
C48   C     C_R   0.814707 0.252418 0.634238 0.967529
C49   C     C_R   0.834389 0.765063 0.743871 -0.239336
C50   C     C_R   0.164536 0.767859 0.256192 -0.242442
C51   C     C_R   0.334616 0.265183 0.743977 -0.238777
C52   C     C_R   0.664912 0.267348 0.256246 -0.236419
C53   C     C_R   0.867847 0.767473 0.815477 0.322556
C54   C     C_R   0.130271 0.771831 0.184803 0.316900
C55   C     C_R   0.368158 0.267562 0.815596 0.322456
C56   C     C_R   0.630744 0.271227 0.184843 0.322304
C57   C     C_R   0.925265 0.755932 0.855538 -0.070878
C58   C     C_R   0.073507 0.760224 0.145734 -0.071582
C59   C     C_R   0.425535 0.255933 0.855545 -0.070882
C60   C     C_R   0.573891 0.259884 0.145721 -0.069411
C61   C     C_R   0.946921 0.741085 0.822143 -0.234470
C62   C     C_R   0.051555 0.744518 0.177987 -0.242561
C63   C     C_R   0.447093 0.241059 0.822059 -0.234028
C64   C     C_R   0.551767 0.244467 0.177913 -0.237498
C65   C     C_R   0.913432 0.737892 0.750433 0.462658
C66   C     C_R   0.085640 0.739642 0.249630 0.467900
C67   C     C_R   0.413525 0.237886 0.750343 0.462772
C68   C     C_R   0.585751 0.239676 0.249559 0.470661
C69   C     C_R   0.856144 0.750564 0.710484 -0.196471
C70   C     C_R   0.143249 0.751820 0.289569 -0.199390
C71   C     C_R   0.356256 0.250619 0.710486 -0.196792
C72   C     C_R   0.643427 0.251648 0.289563 -0.199829
C73   C     C_R   0.036795 0.761667 0.070922 0.351952
C74   C     C_R   0.964072 0.758126 0.931570 0.350567
C75   C     C_R   0.537199 0.261395 0.070917 0.351503
C76   C     C_R   0.464386 0.258030 0.931567 0.350115
C77   C     C_3   0.638260 0.619310 0.437982 0.220310
C78   C     C_3   0.361740 0.619217 0.561952 0.219259
C79   C     C_3   0.137842 0.119528 0.437564 0.220495
C80   C     C_3   0.861900 0.119309 0.562098 0.218605
C81   C     C_3   0.611375 0.579030 0.446815 0.204198
C82   C     C_3   0.388605 0.578948 0.553111 0.204182
C83   C     C_3   0.111131 0.079157 0.446483 0.198267
C84   C     C_3   0.888702 0.079010 0.553226 0.204143
C85   C     C_3   0.684978 0.635503 0.563464 -0.585541
C86   C     C_3   0.314956 0.635600 0.436437 -0.584674
C87   C     C_3   0.185164 0.135260 0.563346 -0.582288
C88   C     C_3   0.814889 0.135516 0.436468 -0.585059
C89   C     C_R   0.686508 0.689906 0.494857 0.949998
C90   C     C_R   0.313459 0.689895 0.505068 0.950237
C91   C     C_R   0.186516 0.189909 0.494893 0.942230
C92   C     C_R   0.813453 0.189897 0.505046 0.948928
C93   C     C_3   0.593276 0.673178 0.474082 0.312083
C94   C     C_3   0.406651 0.673136 0.525744 0.311005
C95   C     C_3   0.093480 0.173219 0.474727 0.250815
C96   C     C_3   0.906576 0.173163 0.525487 0.310616
C97   C     C_3   0.649592 0.656094 0.489696 -0.179177
C98   C     C_3   0.350363 0.656077 0.510195 -0.179429
C99   C     C_3   0.149582 0.156116 0.489743 -0.151275
C100  C     C_3   0.850367 0.156092 0.510165 -0.176124
C101  C     C_3   0.595077 0.592079 0.495074 -0.120392
C102  C     C_3   0.404866 0.592066 0.504806 -0.120256
C103  C     C_3   0.095111 0.092040 0.495081 -0.088880
C104  C     C_3   0.904863 0.092066 0.504795 -0.116020
C105  C     C_3   0.650362 0.601620 0.568251 -0.428259
C106  C     C_3   0.349567 0.601717 0.431637 -0.428549
C107  C     C_3   0.150555 0.101403 0.568197 -0.426266
C108  C     C_3   0.849504 0.101646 0.431646 -0.430565
C109  C     C_3   0.558799 0.633863 0.467610 -0.436861
C110  C     C_3   0.441125 0.633808 0.532213 -0.436653
C111  C     C_3   0.058951 0.133873 0.468031 -0.483765
C112  C     C_3   0.941075 0.133829 0.532032 -0.439693
C113  C     C_R   0.061075 0.939323 0.500300 0.917512
C114  C     C_R   0.938971 0.939308 0.499744 0.918265
C115  C     C_R   0.561048 0.439294 0.500310 0.918611
C116  C     C_R   0.438970 0.439308 0.499744 0.918664
C117  C     C_R   0.437136 0.558298 0.500550 0.907427
C118  C     C_R   0.562840 0.558303 0.499402 0.907362
C119  C     C_R   0.937128 0.058288 0.500550 0.907042
C120  C     C_R   0.062881 0.058253 0.499402 0.902816
C121  C     C_R   0.817651 0.750000 0.634623 0.961367
C122  C     C_R   0.182213 0.750241 0.365382 0.962342
C123  C     C_R   0.317678 0.250019 0.634624 0.960724
C124  C     C_R   0.682271 0.250185 0.365381 0.959095
C125  C     C_R   0.627047 0.795944 0.255669 0.206834
C126  C     C_R   0.374277 0.794884 0.745116 0.207467
C127  C     C_R   0.127047 0.295911 0.255652 0.208531
C128  C     C_R   0.874304 0.294856 0.745135 0.207552
C129  C     C_R   0.590734 0.797263 0.182946 0.278539
C130  C     C_R   0.410707 0.795467 0.817802 0.278797
C131  C     C_R   0.090728 0.297214 0.182928 0.278993
C132  C     C_R   0.910731 0.295426 0.817822 0.278718
C133  C     C_R   0.577271 0.758430 0.145149 -0.047160
C134  C     C_R   0.422017 0.756655 0.854648 -0.044533
C135  C     C_R   0.077231 0.258368 0.145152 -0.046499
C136  C     C_R   0.922029 0.256607 0.854650 -0.044269
C137  C     C_R   0.603396 0.719585 0.180240 -0.179512
C138  C     C_R   0.396478 0.717964 0.819341 -0.183696
C139  C     C_R   0.103324 0.219520 0.180261 -0.179904
C140  C     C_R   0.896491 0.217920 0.819323 -0.183760
C141  C     C_R   0.639969 0.718456 0.251903 -0.137045
C142  C     C_R   0.360084 0.717400 0.747642 -0.132187
C143  C     C_R   0.139905 0.218407 0.251925 -0.138065
C144  C     C_R   0.860102 0.217369 0.747625 -0.132584
H1    H     H_    0.852822 0.890433 0.388765 0.180847
H2    H     H_    0.147485 0.890533 0.611458 0.182101
H3    H     H_    0.352804 0.390453 0.388751 0.180721
H4    H     H_    0.647211 0.390279 0.611387 0.180522
H5    H     H_    0.819420 0.897106 0.535521 0.151914
H6    H     H_    0.180586 0.897150 0.464621 0.145792
H7    H     H_    0.319416 0.397108 0.535495 0.152324
H8    H     H_    0.680833 0.397254 0.465042 0.152480
H9    H     H_    0.937002 0.920181 0.605166 0.261599
H10   H     H_    0.062853 0.920042 0.394571 0.287052
H11   H     H_    0.437016 0.420149 0.605182 0.261756
H12   H     H_    0.563070 0.420221 0.394904 0.261962
H13   H     H_    0.873437 0.948100 0.540023 0.212803
H14   H     H_    0.126269 0.948073 0.459521 0.207239
H15   H     H_    0.373457 0.448088 0.540054 0.212994
H16   H     H_    0.626511 0.448178 0.459994 0.213118
H17   H     H_    0.771882 0.876455 0.414564 0.258109
H18   H     H_    0.228368 0.876392 0.585601 0.256963
H19   H     H_    0.271873 0.376460 0.414557 0.258055
H20   H     H_    0.728307 0.376110 0.585919 0.256748
H21   H     H_    0.790401 0.773986 0.713981 0.205791
H22   H     H_    0.208314 0.777231 0.285691 0.206567
H23   H     H_    0.290652 0.274159 0.714168 0.206126
H24   H     H_    0.708759 0.276532 0.285811 0.206606
H25   H     H_    0.990771 0.731919 0.852422 0.220691
H26   H     H_    0.007706 0.735012 0.146435 0.213501
H27   H     H_    0.490925 0.231847 0.852283 0.220809
H28   H     H_    0.507847 0.235156 0.146321 0.212268
H29   H     H_    0.680313 0.607549 0.456232 0.127280
H30   H     H_    0.319705 0.607493 0.543766 0.127401
H31   H     H_    0.179740 0.107797 0.455218 0.124905
H32   H     H_    0.819921 0.107590 0.544122 0.127082
H33   H     H_    0.645967 0.554857 0.477607 0.094662
H34   H     H_    0.354009 0.554835 0.522344 0.094781
H35   H     H_    0.145782 0.055005 0.477065 0.091800
H36   H     H_    0.854084 0.054906 0.522530 0.094389
H37   H     H_    0.723603 0.619749 0.576241 0.232007
H38   H     H_    0.276349 0.619870 0.423706 0.232246
H39   H     H_    0.223580 0.119416 0.575646 0.229819
H40   H     H_    0.776361 0.119748 0.423914 0.232070
H41   H     H_    0.675670 0.571474 0.592358 0.232298
H42   H     H_    0.324273 0.571608 0.407570 0.232433
H43   H     H_    0.175769 0.071194 0.592064 0.229778
H44   H     H_    0.824248 0.071512 0.407670 0.232733
H45   H     H_    0.606235 0.691382 0.520969 0.139355
H46   H     H_    0.393653 0.691409 0.478826 0.139132
H47   H     H_    0.106733 0.191166 0.521937 0.139336
H48   H     H_    0.893461 0.191342 0.478447 0.132688
H49   H     H_    0.521432 0.628438 0.413151 0.262905
H50   H     H_    0.478508 0.628296 0.586669 0.262911
H51   H     H_    0.021539 0.128606 0.413544 0.259749
H52   H     H_    0.978485 0.128373 0.586492 0.264121
H53   H     H_    0.594442 0.689661 0.152117 0.183529
H54   H     H_    0.404642 0.688115 0.847457 0.178532
H55   H     H_    0.094340 0.189585 0.152152 0.182882
H56   H     H_    0.904648 0.188065 0.847424 0.178314
H57   H     H_    0.542567 0.640725 0.497009 0.162021
H58   H     H_    0.457331 0.640712 0.502781 0.161949
H59   H     H_    0.042817 0.140590 0.497578 0.148314
H60   H     H_    0.957234 0.140688 0.502534 0.147630
H61   H     H_    0.699334 0.660839 0.603496 0.210808
H62   H     H_    0.300570 0.661000 0.396382 0.210690
H63   H     H_    0.199866 0.160456 0.603669 0.210348
H64   H     H_    0.800372 0.160864 0.396304 0.210209
H65   H     H_    0.640682 0.614104 0.602425 0.234683
H66   H     H_    0.359225 0.614247 0.397434 0.234349
H67   H     H_    0.141089 0.113845 0.602600 0.234840
H68   H     H_    0.859081 0.114163 0.397359 0.231724
H69   H     H_    0.658931 0.687834 0.277538 0.206536
H70   H     H_    0.340707 0.687023 0.721541 0.206838
H71   H     H_    0.158846 0.187786 0.277583 0.206626
H72   H     H_    0.840718 0.186999 0.721505 0.206927
H73   H     H_    0.891975 0.799878 0.482562 0.175147
H74   H     H_    0.108582 0.799998 0.518513 0.175114
H75   H     H_    0.391950 0.299881 0.482512 0.175040
H76   H     H_    0.608075 0.299828 0.517528 0.174956
H77   H     H_    0.926967 0.808476 0.571859 0.272350
H78   H     H_    0.073348 0.808220 0.429102 0.273206
H79   H     H_    0.426959 0.308463 0.571813 0.272489
H80   H     H_    0.573142 0.308583 0.428264 0.273530
H81   H     H_    0.941783 0.852575 0.479562 0.150878
H82   H     H_    0.058410 0.852648 0.520881 0.152191
H83   H     H_    0.441763 0.352579 0.479520 0.151321
H84   H     H_    0.558237 0.352510 0.520493 0.151518
H85   H     H_    0.802159 0.837887 0.391920 0.190538
H86   H     H_    0.198149 0.837905 0.608454 0.190537
H87   H     H_    0.302145 0.337899 0.391898 0.190272
H88   H     H_    0.697712 0.337587 0.608205 0.189306
N1    N     N_R   0.543525 0.730097 0.032217 -0.147386
N2    N     N_R   0.506512 0.729327 0.963595 -0.128404
N3    N     N_R   0.043491 0.230016 0.032231 -0.148187
N4    N     N_R   0.006490 0.229252 0.963607 -0.129002
N5    N     N_R   0.452548 0.781998 0.967093 -0.095722
N6    N     N_R   0.489402 0.782575 0.035649 -0.085578
N7    N     N_R   0.952538 0.281946 0.967085 -0.094801
N8    N     N_R   0.989379 0.282518 0.035643 -0.083920
N9    N     N_R   0.013971 0.736698 0.967350 -0.142165
N10   N     N_R   0.987179 0.783190 0.035729 -0.116273
N11   N     N_R   0.513973 0.236166 0.967263 -0.142066
N12   N     N_R   0.487900 0.283360 0.035802 -0.110543
N13   N     N_R   0.049698 0.738342 0.035825 -0.102694
N14   N     N_R   0.951723 0.781785 0.967130 -0.084051
N15   N     N_R   0.549746 0.237725 0.035743 -0.105026
N16   N     N_R   0.452402 0.282040 0.967200 -0.082936
O1    O     O_R   0.822450 0.770150 0.500010 -0.628860
O2    O     O_R   0.177550 0.770150 0.499990 -0.627753
O3    O     O_R   0.322450 0.270150 0.500010 -0.628959
O4    O     O_R   0.677550 0.270150 0.499990 -0.628233
O5    O     O_R   0.017620 0.953670 0.442560 -0.557134
O6    O     O_R   0.982380 0.953670 0.557440 -0.558098
O7    O     O_R   0.517620 0.453670 0.442560 -0.558001
O8    O     O_R   0.482380 0.453670 0.557440 -0.557952
O9    O     O_R   0.482370 0.546310 0.557450 -0.549299
O10   O     O_R   0.517630 0.546310 0.442550 -0.549382
O11   O     O_R   0.982370 0.046310 0.557450 -0.548972
O12   O     O_R   0.017630 0.046310 0.442550 -0.550875
O13   O     O_R   0.424900 0.546280 0.442440 -0.625823
O14   O     O_R   0.575100 0.546280 0.557560 -0.625737
O15   O     O_R   0.924900 0.046280 0.442440 -0.626818
O16   O     O_R   0.075100 0.046280 0.557560 -0.626117
O17   O     O_R   0.770150 0.822430 0.500030 -0.606189
O18   O     O_R   0.229850 0.822430 0.499970 -0.605700
O19   O     O_R   0.270150 0.322430 0.500030 -0.605825
O20   O     O_R   0.729850 0.322430 0.499970 -0.606052
O21   O     O_R   0.725220 0.723850 0.398140 -0.620109
O22   O     O_R   0.274780 0.723850 0.601860 -0.621549
O23   O     O_R   0.225220 0.223850 0.398140 -0.621011
O24   O     O_R   0.774780 0.223850 0.601860 -0.621754
O25   O     O_R   0.672910 0.776140 0.398150 -0.543249
O26   O     O_R   0.327090 0.776140 0.601850 -0.542551
O27   O     O_R   0.172910 0.276140 0.398150 -0.542969
O28   O     O_R   0.827090 0.276140 0.601850 -0.542337
O29   O     O_R   0.729840 0.677550 0.499990 -0.624895
O30   O     O_R   0.270160 0.677550 0.500010 -0.624650
O31   O     O_R   0.229840 0.177550 0.499990 -0.626406
O32   O     O_R   0.770160 0.177550 0.500010 -0.625366
O33   O     O_R   0.677530 0.729830 0.500000 -0.588804
O34   O     O_R   0.322470 0.729830 0.500000 -0.588584
O35   O     O_R   0.177530 0.229830 0.500000 -0.588663
O36   O     O_R   0.822470 0.229830 0.500000 -0.587487
O37   O     O_R   0.827070 0.723850 0.601870 -0.560828
O38   O     O_R   0.172930 0.723850 0.398130 -0.559390
O39   O     O_R   0.327070 0.223850 0.601870 -0.560790
O40   O     O_R   0.672930 0.223850 0.398130 -0.559951
O41   O     O_R   0.774770 0.776130 0.601880 -0.602631
O42   O     O_R   0.225230 0.776130 0.398120 -0.603161
O43   O     O_R   0.274770 0.276130 0.601880 -0.602003
O44   O     O_R   0.725230 0.276130 0.398120 -0.602377
O45   O     O_R   0.075080 0.953700 0.557570 -0.605837
O46   O     O_R   0.924920 0.953700 0.442430 -0.606349
O47   O     O_R   0.575080 0.453700 0.557570 -0.606575
O48   O     O_R   0.424920 0.453700 0.442430 -0.606673
Zn1   Zn    Zn3+2 0.784920 0.715080 0.500000 1.084057
Zn2   Zn    Zn3+2 0.215080 0.715080 0.500000 1.083913
Zn3   Zn    Zn3+2 0.284920 0.215080 0.500000 1.081967
Zn4   Zn    Zn3+2 0.715080 0.215080 0.500000 1.082451
Zn5   Zn    Zn3+2 0.715070 0.784900 0.500020 1.145120
Zn6   Zn    Zn3+2 0.284930 0.784900 0.499980 1.143893
Zn7   Zn    Zn3+2 0.215070 0.284900 0.500020 1.153165
Zn8   Zn    Zn3+2 0.784930 0.284900 0.499980 1.149097
Zn9   Zn    Zn3+2 0.538360 0.500010 0.576800 1.144350
Zn10  Zn    Zn3+2 0.461640 0.500010 0.423200 1.144088
Zn11  Zn    Zn3+2 0.038360 0.000010 0.576800 1.143500
Zn12  Zn    Zn3+2 0.961640 0.000010 0.423200 1.147657
Br1   Br    Br    0.647463 0.849503 0.306791 -0.368935
Br2   Br    Br    0.355655 0.848866 0.695308 -0.365094
Br3   Br    Br    0.147505 0.349483 0.306750 -0.362939
Br4   Br    Br    0.855693 0.348847 0.695353 -0.363171
S1    S     S_3+6 0.892656 0.866781 0.643336 0.065644
O49   O     O_2   0.852843 0.840369 0.646819 -0.260104
O50   O     O_2   0.946105 0.841643 0.675249 -0.232417
O51   O     O_3   0.907337 0.912309 0.689408 -0.487865
H89   H     H_    0.947247 0.918958 0.711511 0.381459
S2    S     S_3+6 0.107688 0.866707 0.356984 0.049836
O52   O     O_2   0.148911 0.842270 0.353729 -0.300227
O53   O     O_2   0.055715 0.839915 0.326180 -0.221113
O54   O     O_3   0.089758 0.912381 0.310170 -0.510246
H90   H     H_    0.072873 0.902413 0.262731 0.400947
S3    S     S_3+6 0.392612 0.366768 0.643309 0.066004
O55   O     O_2   0.352692 0.340507 0.646776 -0.259832
O56   O     O_2   0.445941 0.341478 0.675162 -0.232703
O57   O     O_3   0.407508 0.412302 0.689445 -0.487296
H91   H     H_    0.447541 0.418681 0.711888 0.381951
S4    S     S_3+6 0.607968 0.367103 0.357073 0.065097
O58   O     O_2   0.648510 0.341585 0.353852 -0.259525
O59   O     O_2   0.555194 0.341130 0.325307 -0.235200
O60   O     O_3   0.592129 0.412756 0.310679 -0.487121
H92   H     H_    0.551787 0.418328 0.287481 0.382621
Br5   Br    Br    0.802275 0.953610 0.392632 -0.454303
Br6   Br    Br    0.197726 0.953668 0.606932 -0.459127
Br7   Br    Br    0.302277 0.453625 0.392664 -0.453876
Br8   Br    Br    0.697794 0.453381 0.607418 -0.456213
Br9   Br    Br    0.830189 0.784624 0.852873 -0.369603
Br10  Br    Br    0.162383 0.794747 0.143369 -0.375143
Br11  Br    Br    0.330683 0.284728 0.853218 -0.367997
Br12  Br    Br    0.663100 0.293675 0.143454 -0.359708
Br13  Br    Br    0.563590 0.852685 0.136540 -0.285893
Br14  Br    Br    0.447403 0.848762 0.866430 -0.287002
Br15  Br    Br    0.063623 0.352631 0.136494 -0.282640
Br16  Br    Br    0.947436 0.348712 0.866475 -0.286004
S5    S     S_3+6 0.945837 0.717818 0.714788 0.090728
O61   O     O_2   0.008696 0.715721 0.768947 -0.243312
O62   O     O_2   0.923999 0.672969 0.687164 -0.273937
O63   O     O_3   0.930821 0.750109 0.650285 -0.506599
H93   H     H_    0.944250 0.734028 0.628065 0.378221
S6    S     S_3+6 0.053900 0.717775 0.285088 0.089700
O64   O     O_2   0.991045 0.715483 0.231080 -0.243936
O65   O     O_2   0.076376 0.672796 0.311331 -0.272944
O66   O     O_3   0.068807 0.748731 0.350679 -0.508249
H94   H     H_    0.054969 0.732032 0.371959 0.378970
S7    S     S_3+6 0.445817 0.217736 0.714591 0.090617
O67   O     O_2   0.508682 0.215594 0.768674 -0.243041
O68   O     O_2   0.423906 0.172896 0.687003 -0.274575
O69   O     O_3   0.430773 0.249991 0.650042 -0.506640
H95   H     H_    0.444150 0.233876 0.627790 0.378091
S8    S     S_3+6 0.553786 0.218256 0.284977 0.090206
O70   O     O_2   0.490920 0.216192 0.230917 -0.243907
O71   O     O_2   0.575940 0.173234 0.311387 -0.274992
O72   O     O_3   0.568865 0.249460 0.350423 -0.507868
H96   H     H_    0.555134 0.232899 0.371940 0.378506
S9    S     S_3+6 0.607770 0.638348 0.350841 0.108136
O73   O     O_2   0.545972 0.629722 0.298467 -0.156689
O74   O     O_2   0.616124 0.686039 0.350643 -0.303105
O75   O     O_3   0.641990 0.613427 0.325593 -0.517914
H97   H     H_    0.617252 0.616760 0.274672 0.380356
S10   S     S_3+6 0.392298 0.638127 0.649091 0.109098
O76   O     O_2   0.454111 0.629432 0.701409 -0.154661
O77   O     O_2   0.383913 0.685818 0.649227 -0.301888
O78   O     O_3   0.358158 0.613167 0.674452 -0.519282
H98   H     H_    0.383111 0.616157 0.725419 0.381058
S11   S     S_3+6 0.106651 0.138872 0.350376 0.106851
O79   O     O_2   0.044681 0.130635 0.298811 -0.157572
O80   O     O_2   0.115445 0.186513 0.350492 -0.304694
O81   O     O_3   0.139808 0.113849 0.323754 -0.519620
H99   H     H_    0.114700 0.117545 0.272884 0.379875
S12   S     S_3+6 0.892684 0.138342 0.649244 0.108938
O82   O     O_2   0.954529 0.129692 0.701354 -0.154986
O83   O     O_2   0.884265 0.186040 0.649280 -0.301572
O84   O     O_3   0.858788 0.113433 0.674980 -0.519937
H100  H     H_    0.883907 0.116434 0.725949 0.380949
S13   S     S_3+6 0.560724 0.548322 0.368143 0.087661
O85   O     O_2   0.555427 0.503540 0.386898 -0.340726
O86   O     O_2   0.503550 0.569255 0.325695 -0.220544
O87   O     O_3   0.583050 0.542860 0.320462 -0.460660
H101  H     H_    0.553221 0.525965 0.279413 0.394853
S14   S     S_3+6 0.439261 0.548099 0.631797 0.087390
O88   O     O_2   0.444549 0.503349 0.613042 -0.341505
O89   O     O_2   0.496441 0.568938 0.674237 -0.219591
O90   O     O_3   0.416946 0.542564 0.679489 -0.461601
H102  H     H_    0.446770 0.525583 0.720531 0.394707
S15   S     S_3+6 0.060344 0.048490 0.367803 0.096886
O91   O     O_2   0.055359 0.003617 0.386597 -0.324273
O92   O     O_2   0.003094 0.069286 0.325721 -0.221586
O93   O     O_3   0.082267 0.043297 0.319662 -0.459142
H103  H     H_    0.052124 0.026765 0.278337 0.399715
S16   S     S_3+6 0.939387 0.048168 0.631908 0.086885
O94   O     O_2   0.944551 0.003383 0.613135 -0.341857
O95   O     O_2   0.996600 0.068949 0.674233 -0.220072
O96   O     O_3   0.917190 0.042742 0.679742 -0.462210
H104  H     H_    0.947023 0.025757 0.720771 0.394220
S17   S     S_3+6 0.546742 0.711135 0.404134 0.088678
O97   O     O_2   0.577130 0.745207 0.394933 -0.213259
O98   O     O_2   0.506154 0.688111 0.336638 -0.206392
O99   O     O_3   0.509208 0.736243 0.424457 -0.535566
H105  H     H_    0.482095 0.754835 0.384048 0.399453
S18   S     S_3+6 0.453213 0.710986 0.595643 0.089793
O100  O     O_2   0.422865 0.745049 0.604904 -0.212116
O101  O     O_2   0.493870 0.687857 0.663144 -0.204555
O102  O     O_3   0.490664 0.736124 0.575195 -0.535507
H106  H     H_    0.517802 0.754647 0.615578 0.400145
S19   S     S_3+6 0.046842 0.211536 0.405347 0.110811
O103  O     O_2   0.077109 0.245238 0.395380 -0.169581
O104  O     O_2   0.005215 0.189078 0.337593 -0.200458
O105  O     O_3   0.010503 0.237517 0.426708 -0.490297
H107  H     H_    0.986857 0.214921 0.426082 0.354029
S20   S     S_3+6 0.953177 0.211138 0.595157 0.086861
O106  O     O_2   0.922892 0.245237 0.604458 -0.209062
O107  O     O_2   0.994007 0.188129 0.662729 -0.204107
O108  O     O_3   0.990411 0.236212 0.574335 -0.549632
H108  H     H_    0.017628 0.254769 0.614624 0.402617
Br17  Br    Br    0.013540 0.861118 0.607343 -0.432538
Br18  Br    Br    0.986704 0.861084 0.393000 -0.419580
Br19  Br    Br    0.513534 0.361102 0.607304 -0.432129
Br20  Br    Br    0.486554 0.361276 0.392675 -0.432235

loop_
_geom_bond_atom_site_label_1
_geom_bond_atom_site_label_2
_ccdc_geom_bond_type
O17   Zn5   S    
C55   C59   A    
C90   O34   A    
O19   Zn7   S    
C34   C42   S    
C136  C140  A    
C133  C137  A    
C33   C114  S    
C46   O26   A    
O12   Zn12  S    
N9    N13   A    
C79   C99   S    
S20   O106  D    
O45   Zn11  S    
C95   C99   S    
C73   N13   A    
C106  H66   S    
C84   H36   S    
C68   S8    S    
O2    Zn2   S    
C12   C135  S    
O4    Zn4   S    
C77   H29   S    
O57   H91   S    
C23   H19   S    
O22   Zn2   S    
C49   C69   A    
C72   C124  S    
C76   N16   A    
C143  H71   S    
C51   C71   A    
C88   H64   S    
O26   Zn6   S    
O75   H97   S    
C25   C29   S    
C62   H26   S    
C27   C31   S    
S3    O55   D    
C28   C32   S    
C27   S3    S    
C106  H42   S    
C25   C41   S    
O11   Zn11  S    
S14   O89   D    
O8    Zn9   S    
C120  O12   A    
C21   C29   S    
C28   C44   S    
O51   H89   S    
C23   C31   S    
C135  C139  A    
C94   H46   S    
C52   C72   A    
C78   C82   S    
S7    O67   D    
C22   H86   S    
C16   C20   S    
C82   H34   S    
C1    C29   S    
O40   Zn4   S    
O72   H96   S    
C50   C54   A    
S5    O63   S    
C3    C31   S    
C4    C32   S    
C129  C133  A    
S4    O59   D    
C19   Br19  S    
O32   Zn4   S    
C17   Br17  S    
C16   H80   S    
C61   H25   S    
C112  H60   S    
C125  Br1   S    
O84   H100  S    
C104  C112  S    
C116  O8    A    
C10   N1    A    
S2    O54   S    
C108  H44   S    
S20   O108  S    
C124  O44   A    
C79   S11   S    
S11   O79   D    
C57   C61   A    
C118  O10   A    
O90   H102  S    
C59   C63   A    
C60   C64   A    
C110  H58   S    
C50   C70   A    
C19   C35   S    
C11   C136  S    
O30   Zn2   S    
C22   H18   S    
O63   H93   S    
C56   Br12  S    
C51   C55   A    
O14   Zn9   S    
C140  H56   S    
S6    O64   D    
C127  C131  A    
C85   C97   S    
O34   Zn6   S    
C61   C65   A    
C12   N8    A    
O46   Zn12  S    
O54   H90   S    
C126  C130  A    
C14   H74   S    
C103  C107  S    
O81   H99   S    
S17   O97   D    
C37   Br5   S    
C23   H87   S    
S12   O82   D    
S13   O86   D    
C39   Br7   S    
C49   C53   A    
C132  Br16  S    
C51   H23   S    
C122  O42   A    
C94   S18   S    
C7    C143  A    
S10   O76   D    
C85   H61   S    
C81   C101  S    
C83   C103  S    
C101  C118  S    
C64   C68   A    
C71   C123  S    
C42   H10   S    
C3    O3    A    
C43   H15   S    
C87   H39   S    
C1    O1    A    
C88   H40   S    
C2    O18   A    
C54   Br10  S    
O31   Zn3   S    
C25   H5    S    
C80   S12   S    
C19   H83   S    
C38   H2    S    
S2    O53   D    
C17   H81   S    
C8    C128  A    
C73   N10   A    
O87   H101  S    
O18   Zn6   S    
S19   O104  D    
C77   C97   S    
C35   C43   S    
N1    N2    A    
C104  C119  S    
C10   N6    A    
C26   S2    S    
C46   O22   A    
N5    N6    A    
C86   C106  S    
C4    O4    A    
S8    O70   D    
C108  H68   S    
C41   H9    S    
C113  O45   A    
C62   C66   A    
C115  O47   A    
C44   H12   S    
C76   N11   A    
S9    O75   S    
C144  H72   S    
S3    O56   D    
C92   O32   A    
C139  H55   S    
C125  C129  A    
C70   C122  S    
C132  C136  A    
C89   O29   A    
C82   C102  S    
C87   C107  S    
C91   O31   A    
O16   Zn11  S    
S18   O100  D    
C102  C117  S    
S12   O84   S    
C48   O28   A    
S7    O68   D    
C111  H59   S    
C26   C30   S    
C9    N5    A    
C84   C104  S    
C6    C142  A    
C15   H75   S    
C93   C97   S    
O21   Zn1   S    
C26   C42   S    
S11   O81   S    
C85   H37   S    
C22   C30   S    
C13   H77   S    
S16   O94   D    
C40   Br8   S    
C15   C31   S    
C93   S17   S    
C93   H45   S    
C16   C32   S    
C66   C70   A    
C20   H84   S    
C13   C17   S    
C66   S6    S    
C96   H48   S    
S20   O107  D    
C81   H33   S    
C92   O36   A    
C45   O25   A    
C96   C100  S    
C16   H76   S    
C47   O27   A    
C18   Br18  S    
C130  C134  A    
C126  Br2   S    
C47   O23   A    
C48   O24   A    
C5    C125  A    
C91   C99   S    
O9    Zn9   S    
C59   C76   S    
S8    O72   S    
C93   C109  S    
C22   C38   S    
C58   C62   A    
C12   N3    A    
C119  O11   A    
O102  H106  S    
O41   Zn5   S    
N7    N8    A    
C10   C133  S    
C80   C84   S    
O43   Zn7   S    
O66   H94   S    
C24   H20   S    
C34   C113  S    
C15   C19   S    
N10   N14   A    
O39   Zn3   S    
C13   C29   S    
O15   Zn12  S    
S16   O96   S    
C74   N14   A    
S15   O93   S    
C107  H67   S    
C94   C98   S    
C101  C109  S    
C105  H65   S    
C103  C111  S    
C112  H52   S    
C75   N12   A    
C50   H22   S    
N3    N4    A    
S5    O62   D    
C123  O43   A    
O24   Zn4   S    
C117  O13   A    
C42   H14   S    
C17   C33   S    
S4    O60   S    
C43   H11   S    
S8    O71   D    
C113  O5    A    
C40   H4    S    
C26   H6    S    
C3    O19   A    
C6    C126  A    
C138  C142  A    
C53   C57   A    
S4    O58   D    
S6    O66   S    
C5    C45   S    
C94   C110  S    
O3    Zn3   S    
C56   C60   A    
C7    C47   S    
C64   H28   S    
C35   C39   S    
O60   H92   S    
C8    C48   S    
C49   H21   S    
C63   H27   S    
C77   C81   S    
C21   H85   S    
C35   C116  S    
C121  O37   A    
S6    O65   D    
C142  H70   S    
C88   C100  S    
C123  O39   A    
C41   H13   S    
C124  O40   A    
O47   Zn9   S    
C114  O46   A    
N11   N15   A    
C44   H16   S    
C102  C110  S    
C84   S16   S    
C131  Br15  S    
C104  C108  S    
C114  O6    A    
C75   N15   A    
S12   O83   D    
S13   O85   D    
C11   N4    A    
C137  C141  A    
C116  O48   A    
C27   H7    S    
O37   Zn1   S    
C9    N2    A    
C140  C144  A    
C24   H88   S    
S10   O77   D    
S15   O91   D    
S14   O88   D    
C83   H35   S    
C4    O20   A    
C60   C75   S    
C89   O33   A    
C2    C30   S    
C90   O30   A    
C33   C41   S    
C109  H57   S    
O23   Zn3   S    
C79   C83   S    
S1    O49   D    
C25   S1    S    
C65   C69   A    
C103  C120  S    
C67   C71   A    
C15   H79   S    
C86   C98   S    
C33   C37   S    
S10   O78   S    
S1    O50   D    
C20   C36   S    
C88   C108  S    
C27   C43   S    
C21   C37   S    
O99   H105  S    
C86   H38   S    
C38   Br6   S    
S9    O73   D    
C13   H73   S    
C55   Br11  S    
C82   S14   S    
O1    Zn1   S    
C23   C39   S    
C14   C18   S    
C81   S13   S    
O96   H104  S    
O20   Zn8   S    
C86   H62   S    
S14   O90   S    
C24   C32   S    
C78   S10   S    
C77   S9    S    
C96   C112  S    
C20   Br20  S    
O25   Zn5   S    
C130  Br14  S    
C131  C135  A    
S9    O74   D    
O27   Zn7   S    
S17   O98   D    
C11   N7    A    
C107  H43   S    
C105  H41   S    
O10   Zn10  S    
O7    Zn10  S    
C119  O15   A    
C120  O16   A    
C78   C98   S    
O44   Zn8   S    
O42   Zn6   S    
C18   H82   S    
S18   O101  D    
C68   C72   A    
S13   O87   S    
C9    C134  S    
C80   C100  S    
C74   N9    A    
C139  C143  A    
C14   C30   S    
C85   C105  S    
C128  C132  A    
C83   S15   S    
C87   C99   S    
S11   O80   D    
C101  C105  S    
C63   C67   A    
C21   H17   S    
C79   H31   S    
C36   C40   S    
C80   H32   S    
S18   O102  S    
S16   O95   D    
C141  H69   S    
O108  H108  S    
S1    O51   S    
C89   C97   S    
C57   C74   S    
C65   S5    S    
C110  H50   S    
S2    O52   D    
C2    O2    A    
C117  O9    A    
C5    C141  A    
S19   O103  D    
C118  O14   A    
C69   C121  S    
N12   N16   A    
O5    Zn12  S    
S19   O105  S    
C115  O7    A    
O6    Zn11  S    
C8    C144  A    
C109  H49   S    
C18   C34   S    
C87   H63   S    
S17   O99   S    
O28   Zn8   S    
O29   Zn1   S    
C138  H54   S    
C28   H8    S    
C129  Br13  S    
C95   S19   S    
O13   Zn10  S    
C39   H3    S    
O33   Zn5   S    
C92   C100  S    
C53   Br9   S    
O105  H107  S    
C54   C58   A    
O35   Zn7   S    
O36   Zn8   S    
C121  O41   A    
C6    C46   S    
C34   C38   S    
C14   H78   S    
C137  H53   S    
C134  C138  A    
C95   H47   S    
C127  Br3   S    
C128  Br4   S    
C67   S7    S    
S3    O57   S    
C7    C127  A    
C122  O38   A    
C95   C111  S    
O78   H98   S    
C52   H24   S    
C91   O35   A    
S15   O92   D    
C28   S4    S    
O48   Zn10  S    
C24   C40   S    
C45   O21   A    
O69   H95   S    
C36   C44   S    
C96   S20   S    
S7    O69   S    
C1    O17   A    
C102  C106  S    
C111  H51   S    
C78   H30   S    
O93   H103  S    
O38   Zn2   S    
C37   H1    S    
S5    O61   D    
C36   C115  S    
C90   C98   S    
C52   C56   A    
C58   C73   S    
