data_mof_unit_pretest_334.cif
_audit_creation_date              2013-03-05T16:10:19-0500
_audit_creation_method            fapswitch 2.2
_symmetry_space_group_name_H-M    P1
_symmetry_Int_Tables_number       1
_space_group_crystal_system       triclinic
_cell_length_a                    8.189725
_cell_length_b                    15.093413
_cell_length_c                    18.747913
_cell_angle_alpha                 101.757846
_cell_angle_beta                  91.086785
_cell_angle_gamma                 99.0543
_cell_volume                      2237.42672367

loop_
_atom_site_label
_atom_site_type_symbol
_atom_site_description
_atom_site_fract_x
_atom_site_fract_y
_atom_site_fract_z
_atom_type_partial_charge
P1    P     P_3+3 0.039430 0.410940 0.333230 0.489450
O1    O     O_2   0.871960 0.437280 0.322960 -0.361680
O2    O     O_3   0.121410 0.444460 0.412450 -0.349109
O3    O     O_3   0.661450 0.607570 0.372550 -0.366958
O4    O     O_2   0.775256 0.541426 0.246221 -0.365246
O5    O     O_3   0.963771 0.293566 0.327321 -0.552617
O6    O     O_3   0.723223 0.710065 0.265387 -0.508876
H1    H     H_    0.555251 0.756102 0.342219 0.059886
C1    C     C_3   0.698330 0.867724 0.305493 -0.805869
H2    H     H_    0.796412 0.878799 0.349616 0.280947
H3    H     H_    0.755420 0.883726 0.255372 0.259992
P2    P     P_3+3 0.676770 0.715000 0.563590 0.513955
P3    P     P_3+3 0.126624 0.774633 0.414947 0.488652
O7    O     O_2   0.852310 0.726980 0.542430 -0.334390
O8    O     O_3   0.084010 0.657370 0.410280 -0.384636
O9    O     O_2   0.988971 0.818373 0.457015 -0.365316
O10   O     O_3   0.720049 0.745805 0.658549 -0.552199
O11   O     O_3   0.100226 0.794701 0.327058 -0.524126
C2    C     C_3   0.140123 0.720385 0.276065 0.527090
H4    H     H_    0.044609 0.658764 0.273344 0.148928
H5    H     H_    0.262517 0.704112 0.290300 -0.065931
C3    C     C_3   0.144723 0.744905 0.201298 -0.954144
H6    H     H_    0.021751 0.759191 0.185323 0.285937
H7    H     H_    0.239389 0.806643 0.202497 0.262194
C4    C     C_3   0.107608 0.762039 0.708738 0.820097
H8    H     H_    0.979871 0.725722 0.697928 0.013048
C5    C     C_3   0.150047 0.788234 0.791084 -0.986056
H9    H     H_    0.285856 0.808033 0.801993 0.291462
H10   H     H_    0.089483 0.846443 0.817424 0.294934
H11   H     H_    0.103012 0.730926 0.817237 0.200913
Ba1   Ba    Ba6+2 0.853520 0.540910 0.466490 1.632917
C6    C     C_3   0.045531 0.233877 0.278111 0.818751
H12   H     H_    0.149773 0.270336 0.253300 -0.064945
C7    C     C_3   0.923008 0.179064 0.216279 -0.940034
H13   H     H_    0.813201 0.143305 0.238911 0.257152
H14   H     H_    0.982514 0.127086 0.179868 0.261251
H15   H     H_    0.882041 0.223978 0.182344 0.208245
C8    C     C_3   0.620824 0.686750 0.694507 0.231391
H16   H     H_    0.625015 0.613796 0.669624 0.101487
H17   H     H_    0.495805 0.703274 0.692701 0.162668
C9    C     C_3   0.678369 0.702632 0.775023 -0.174594
H18   H     H_    0.808377 0.692846 0.780943 0.091957
H19   H     H_    0.603815 0.649968 0.799967 0.092596
P4    P     P_3+3 0.150290 0.589140 0.666780 0.465336
O12   O     O_2   0.317750 0.562750 0.677090 -0.392206
O13   O     O_3   0.068300 0.555620 0.587560 -0.346320
O14   O     O_3   0.528270 0.392500 0.627460 -0.391416
O15   O     O_3   0.218024 0.707243 0.673493 -0.591611
P5    P     P_3+3 0.067162 0.225343 0.588950 0.480588
O16   O     O_3   0.609290 0.386840 0.459690 -0.379048
O17   O     O_3   0.105700 0.342700 0.589730 -0.376383
O18   O     O_2   0.201192 0.181208 0.544418 -0.375093
O19   O     O_3   0.104493 0.209471 0.677376 -0.531685
Ba2   Ba    Ba6+2 0.336320 0.459170 0.533520 1.625292
P6    P     P_3+3 0.646326 0.600221 0.279151 0.467494
C10   C     C_3   0.609942 0.768794 0.290584 0.343766
H20   H     H_    0.510485 0.760240 0.247540 0.059743
H21   H     H_    0.608406 0.914806 0.322974 0.203958
O20   O     O_3   0.580430 0.613240 0.540320 -0.396754
C11   C     C_3   0.491636 0.298363 0.302089 0.266016
H22   H     H_    0.380288 0.329167 0.318283 0.027744
H23   H     H_    0.600684 0.353099 0.313831 0.144077
C12   C     C_3   0.479913 0.254204 0.220530 -0.167025
H24   H     H_    0.382898 0.192260 0.209392 0.187180
H25   H     H_    0.598597 0.231236 0.204751 0.131649
P7    P     P_3+3 0.520678 0.271127 0.434266 0.504267
O21   O     O_2   0.337390 0.273050 0.457610 -0.319772
O22   O     O_3   0.507968 0.229029 0.339888 -0.561787
H26   H     H_    0.176319 0.687281 0.160008 0.211283
C13   C     C_3   0.051899 0.280656 0.727534 0.443566
H27   H     H_    0.132057 0.347102 0.727356 0.150098
H28   H     H_    0.921587 0.286225 0.715010 0.007384
C14   C     C_3   0.064038 0.260871 0.803615 -0.876938
H29   H     H_    0.194393 0.257635 0.818768 0.282298
H30   H     H_    0.021075 0.315904 0.843839 0.213710
H31   H     H_    0.985241 0.194398 0.805256 0.267940
P8    P     P_3+3 0.545365 0.403587 0.721749 0.422623
C15   C     C_3   0.529332 0.228432 0.683709 0.438244
H32   H     H_    0.660621 0.244880 0.670674 -0.001031
O23   O     O_2   0.409822 0.457618 0.754387 -0.405759
O24   O     O_3   0.487388 0.294757 0.741513 -0.527118
H33   H     H_    0.449224 0.223595 0.634312 0.153292
H34   H     H_    0.532906 0.082176 0.659185 0.220522
C16   C     C_3   0.502855 0.135419 0.704949 -0.842941
H35   H     H_    0.371656 0.116704 0.717754 0.293143
H36   H     H_    0.584431 0.137650 0.753505 0.255810
C17   C     C_R   0.993827 0.456553 0.046395 0.017349
C18   C     C_R   0.900307 0.406796 0.092063 -0.118986
C19   C     C_R   0.763512 0.428045 0.952055 -0.195536
C20   C     C_R   0.930483 0.461988 0.976237 0.047263
C21   C     C_R   0.704867 0.429508 0.882339 -0.142425
C22   C     C_R   0.809111 0.465558 0.833284 -0.023678
C23   C     C_R   0.974252 0.506205 0.857370 0.010970
C24   C     C_R   0.035141 0.504984 0.929279 0.040938
C25   C     C_R   0.753244 0.461982 0.760739 0.169803
C26   C     C_R   0.860452 0.499431 0.713575 -0.498655
C27   C     C_R   0.020960 0.543602 0.736644 0.147164
C28   C     C_R   0.078663 0.547784 0.809553 -0.041132
C29   C     C_R   0.156943 0.500141 0.071440 0.039000
C30   C     C_R   0.216058 0.499885 0.143846 0.056575
C31   C     C_R   0.112640 0.455532 0.190748 0.002416
C32   C     C_R   0.957445 0.407474 0.162495 -0.046937
H37   H     H_    0.817531 0.494800 0.657793 0.182933
H38   H     H_    0.575806 0.402222 0.867791 0.187020
H39   H     H_    0.876219 0.370476 0.194705 0.157464
C33   C     C_R   0.236823 0.593035 0.836446 -0.068234
C34   C     C_R   0.296467 0.592395 0.906093 -0.156000
C35   C     C_R   0.200031 0.546692 0.953527 0.035496
C36   C     C_R   0.261505 0.543881 0.024748 0.052083
C37   C     C_R   0.425778 0.582239 0.050778 -0.190722
C38   C     C_R   0.378588 0.544002 0.169167 0.030720
C39   C     C_R   0.482129 0.582642 0.121141 -0.141644
C40   C     C_R   0.433878 0.547292 0.241603 0.195250
C41   C     C_R   0.327452 0.506989 0.287961 -0.453372
C42   C     C_R   0.168641 0.459816 0.263963 0.125917
H40   H     H_    0.316391 0.631489 0.804449 0.158028
H41   H     H_    0.608983 0.613802 0.137064 0.170390
H42   H     H_    0.370580 0.510574 0.343533 0.169246
H43   H     H_    0.672786 0.401235 0.986416 0.160151
H44   H     H_    0.782233 0.364763 0.074311 0.166491
H45   H     H_    0.419241 0.630003 0.921108 0.145801
H46   H     H_    0.516136 0.612476 0.018056 0.139614
C43   C     C_R   0.858975 0.172324 0.547545 0.210977
C44   C     C_R   0.789798 0.079202 0.543148 -0.051870
C45   C     C_R   0.647677 0.891747 0.531732 -0.061862
C46   C     C_R   0.801170 0.928933 0.569252 -0.024153
C47   C     C_R   0.872013 0.020302 0.574145 -0.134920
C48   C     C_R   0.577697 0.797774 0.523657 0.240800
H47   H     H_    0.869837 0.887778 0.594636 0.218004
H48   H     H_    0.991817 0.043870 0.602642 0.202122
C49   C     C_R   0.421854 0.765649 0.487786 -0.394769
C50   C     C_R   0.615792 0.194862 0.481383 0.208227
C51   C     C_R   0.546192 0.101983 0.475105 -0.064774
C52   C     C_R   0.632307 0.044069 0.506764 0.023844
C53   C     C_R   0.392921 0.065322 0.437645 -0.042461
C54   C     C_R   0.321538 0.975117 0.433773 -0.160071
C55   C     C_R   0.403712 0.916273 0.464700 -0.025912
C56   C     C_R   0.561373 0.950529 0.501004 0.041425
C57   C     C_R   0.333323 0.823875 0.459446 0.199371
C58   C     C_R   0.769755 0.228865 0.517663 -0.404503
H49   H     H_    0.201309 0.952757 0.405668 0.200467
H50   H     H_    0.324105 0.105764 0.411360 0.229261
H51   H     H_    0.367253 0.694449 0.483007 0.173541
H52   H     H_    0.823214 0.299844 0.520380 0.179489
N1    N     N_R   0.104695 0.168988 0.316758 0.223346
O25   O     O_R   0.187277 0.107702 0.282750 -0.448911
O26   O     O_R   0.049106 0.160720 0.380078 -0.382479
N2    N     N_R   0.659679 0.794048 0.814519 0.277182
O27   O     O_R   0.744694 0.866600 0.797735 -0.304196
O28   O     O_R   0.569341 0.803242 0.871044 -0.404120
N3    N     N_R   0.442977 0.317288 0.175637 0.226877
O29   O     O_R   0.309777 0.296613 0.132719 -0.408197
O30   O     O_R   0.558018 0.383162 0.166714 -0.435830
N4    N     N_R   0.121420 0.846129 0.680081 0.239615
O31   O     O_R   0.039384 0.910815 0.708269 -0.395831
O32   O     O_R   0.219953 0.858762 0.628109 -0.403760

loop_
_geom_bond_atom_site_label_1
_geom_bond_atom_site_label_2
_geom_bond_distance
_ccdc_geom_bond_type
P7    O22   1.749084 S    
C17   C18   1.410504 A    
C12   H25   1.107978 S    
C31   C32   1.396380 A    
C5    H10   1.109679 S    
C7    H15   1.102778 S    
C9    H19   1.110361 S    
C14   H29   1.110565 S    
O5    C6    1.409154 S    
C2    H4    1.108905 S    
O6    P6    1.750367 S    
C21   H38   1.080494 S    
H1    C10   1.113306 S    
C41   C42   1.398837 A    
C43   C44   1.415512 A    
C10   H20   1.109441 S    
C55   C57   1.405613 A    
C24   C35   1.420932 A    
C23   C24   1.433170 A    
P3    O11   1.750445 S    
C11   C12   1.533116 S    
P3    C57   1.847079 S    
C2    H5    1.109211 S    
N2    O28   1.300686 A    
C7    H13   1.111346 S    
N1    O25   1.300956 A    
C39   H41   1.080205 S    
O2    Ba2   2.796281 S    
C33   C34   1.387824 A    
C29   C36   1.421786 A    
C27   C28   1.423616 A    
P1    Ba1   3.390439 S    
C35   C36   1.429134 A    
C32   H39   1.074605 S    
C11   H23   1.102159 S    
P1    O1    1.506328 D    
C9    H18   1.104301 S    
Ba1   O20   2.894801 S    
C30   C31   1.424211 A    
P2    O20   1.582498 S    
C53   H50   1.073976 S    
C19   H43   1.077296 S    
C50   C51   1.408081 A    
P5    O17   1.746621 S    
Ba1   O13   2.795643 S    
P2    O10   1.760139 S    
C45   C48   1.420033 A    
C34   C35   1.412665 A    
C13   H27   1.109508 S    
C18   H44   1.075632 S    
C1    H2    1.110696 S    
O7    Ba1   2.879947 S    
C3    H26   1.107560 S    
C17   C29   1.418288 A    
P7    O21   1.574506 D    
C5    H11   1.100958 S    
C14   H30   1.108702 S    
O6    C10   1.405136 S    
O19   C13   1.404795 S    
N1    O26   1.301959 A    
P4    O13   1.568979 S    
C20   C24   1.420309 A    
P7    C50   1.839190 S    
Ba2   O20   2.797675 S    
C8    H16   1.111048 S    
P1    O5    1.762554 S    
C53   C54   1.381408 A    
C2    C3    1.520613 S    
N2    O27   1.300657 A    
C8    C9    1.532378 S    
C21   C22   1.399380 A    
C15   H32   1.108213 S    
O11   C2    1.403236 S    
Ba2   O21   2.880248 S    
P6    C40   1.856837 S    
C46   H47   1.071851 S    
C4    H8    1.096410 S    
C43   C58   1.397005 A    
P8    C25   1.851360 S    
C22   C25   1.414469 A    
C33   H40   1.076595 S    
C11   H22   1.107394 S    
P1    O2    1.568952 S    
C6    C7    1.529332 S    
C54   H49   1.079042 S    
C15   C16   1.520437 S    
C1    H3    1.110648 S    
P4    C27   1.870890 S    
C15   H33   1.108041 S    
H34   C16   1.109846 S    
P8    O24   1.752194 S    
N3    O29   1.300776 A    
P5    O18   1.543989 D    
C26   C27   1.394480 A    
O13   Ba2   2.907362 S    
C13   C14   1.520237 S    
C38   C40   1.412048 A    
C1    C10   1.521109 S    
O16   Ba2   2.893970 S    
C16   H35   1.110779 S    
O2    Ba1   2.906464 S    
O16   P7    1.747229 S    
C4    O15   1.404883 S    
C12   N3    1.453985 S    
N4    O31   1.301358 A    
C41   H42   1.081777 S    
O14   Ba2   2.775019 S    
P2    C48   1.859267 S    
P2    O7    1.491940 D    
O12   Ba2   2.843863 S    
P3    O8    1.733007 S    
P2    Ba1   3.414861 S    
C51   C52   1.415407 A    
C31   C42   1.424524 A    
C14   H31   1.110665 S    
C3    H7    1.110548 S    
C17   C20   1.427372 A    
C19   C21   1.389537 A    
O14   P8    1.742156 S    
Ba1   O16   2.798248 S    
C48   C49   1.398613 A    
C5    H9    1.109076 S    
C49   H51   1.082064 S    
P4    O12   1.506701 D    
C40   C41   1.400851 A    
P8    O23   1.542412 D    
C1    H21   1.110720 S    
C38   C39   1.398994 A    
C4    N4    1.465377 S    
N4    O32   1.301556 A    
O4    P6    1.542706 D    
C58   H52   1.082261 S    
C16   H36   1.110645 S    
C54   C55   1.400389 A    
C52   C56   1.421175 A    
C18   C32   1.390043 A    
O8    Ba1   2.747656 S    
C6    N1    1.464317 S    
C45   C56   1.417342 A    
C50   C58   1.391924 A    
C55   C56   1.418064 A    
C28   C33   1.398182 A    
C29   C30   1.433501 A    
C44   C52   1.419165 A    
O17   Ba2   2.748381 S    
C6    H12   1.104324 S    
C47   H48   1.080491 S    
O3    P6    1.732637 S    
C36   C37   1.413542 A    
C37   H46   1.075757 S    
C8    H17   1.092775 S    
C15   O24   1.405255 S    
C45   C46   1.404833 A    
C9    N2    1.459413 S    
C46   C47   1.393356 A    
P5    O19   1.750686 S    
C22   C23   1.418522 A    
C7    H14   1.110707 S    
O10   C8    1.395349 S    
N3    O30   1.297355 A    
Ba1   Ba2   4.551284 S    
C37   C39   1.387796 A    
O3    Ba1   2.775531 S    
C49   C57   1.398784 A    
C12   H24   1.108763 S    
P4    Ba2   3.390985 S    
C11   O22   1.399250 S    
C30   C38   1.417308 A    
P3    O9    1.544189 D    
C44   C47   1.401962 A    
C25   C26   1.396126 A    
C51   C53   1.401654 A    
C34   H45   1.075616 S    
C3    H6    1.110717 S    
O1    Ba1   2.843343 S    
C13   H28   1.108113 S    
P1    C42   1.883409 S    
C19   C20   1.413941 A    
C26   H37   1.081975 S    
C23   C28   1.420620 A    
P4    O15   1.759491 S    
C4    C5    1.532367 S    
P5    C43   1.848554 S    
