data_mof_unit_pretest_1343.cif
_audit_creation_date              2012-12-10T17:31:08-0500
_audit_creation_method            fapswitch 2.2
_symmetry_space_group_name_H-M    P1
_symmetry_Int_Tables_number       1
_space_group_crystal_system       triclinic
_cell_length_a                    11.983922
_cell_length_b                    12.898586
_cell_length_c                    15.412941
_cell_angle_alpha                 87.196248
_cell_angle_beta                  115.421609
_cell_angle_gamma                 93.341313
_cell_volume                      2147.36703737

loop_
_atom_site_label
_atom_site_type_symbol
_atom_type_description
_atom_site_fract_x
_atom_site_fract_y
_atom_site_fract_z
_atom_type_partial_charge
C1    C     C_R   0.477287 0.299443 0.498378 0.891340
C2    C     C_R   0.522706 0.700565 0.501605 0.892847
C3    C     C_R   0.628316 0.390002 0.109233 -0.294704
C4    C     C_R   0.339483 0.419778 0.886916 -0.296969
C5    C     C_R   0.717761 0.387121 0.073946 0.185463
C6    C     C_R   0.251001 0.426193 0.922783 0.195030
C7    C     C_R   0.535908 0.811865 0.502169 -0.057396
C8    C     C_R   0.464054 0.188166 0.497749 -0.054260
C9    C     C_R   0.352866 0.029434 0.505513 -0.220379
C10   C     C_R   0.647066 0.970611 0.494354 -0.220533
C11   C     C_R   0.360783 0.136904 0.502928 -0.203336
C12   C     C_R   0.639173 0.863137 0.496980 -0.203984
C13   C     C_R   0.558539 0.132726 0.493968 -0.280853
C14   C     C_R   0.441396 0.867316 0.505899 -0.280659
C15   C     C_R   0.551724 0.026010 0.496943 0.187191
C16   C     C_R   0.448203 0.974034 0.502910 0.187092
C17   C     C_R   0.004669 0.601752 0.412780 -0.348616
C18   C     C_R   0.995127 0.397834 0.586879 -0.354321
C19   C     C_R   0.125146 0.591678 0.421100 0.015591
C20   C     C_R   0.874633 0.407961 0.578554 0.020471
C21   C     C_R   0.160050 0.455649 0.537737 -0.057242
C22   C     C_R   0.839965 0.544277 0.462242 -0.058133
C23   C     C_R   0.575844 0.492833 0.680678 0.877364
C24   C     C_R   0.423466 0.502448 0.319336 0.875002
C25   C     C_R   0.039260 0.462764 0.531581 0.095299
C26   C     C_R   0.960661 0.536985 0.468257 0.096366
C27   C     C_R   0.618862 0.471016 0.783696 -0.063397
C28   C     C_R   0.374606 0.486003 0.216168 -0.062293
C29   C     C_R   0.774435 0.417957 0.939364 -0.185937
C30   C     C_R   0.206083 0.464224 0.058592 -0.185516
C31   C     C_R   0.741175 0.446947 0.843302 -0.217065
C32   C     C_R   0.247987 0.485840 0.155604 -0.212744
C33   C     C_R   0.530604 0.464497 0.820173 -0.243532
C34   C     C_R   0.457930 0.462064 0.179869 -0.243298
C35   C     C_R   0.559694 0.430010 0.914156 0.062973
C36   C     C_R   0.418178 0.435984 0.084206 0.062806
C37   C     C_R   0.685046 0.411278 0.976380 0.132917
C38   C     C_R   0.290453 0.440872 0.021484 0.132762
C39   C     C_R   0.467527 0.421129 0.948712 0.035679
C40   C     C_R   0.504898 0.414654 0.048448 0.034925
H1    H     H_    0.841259 0.357722 0.621368 0.128733
H2    H     H_    0.158256 0.641611 0.377912 0.130894
H3    H     H_    0.946414 0.659503 0.363170 0.145799
H4    H     H_    0.053228 0.339827 0.636236 0.148562
H5    H     H_    0.555381 0.468211 0.226705 0.161627
H6    H     H_    0.438821 0.489403 0.774553 0.160925
H7    H     H_    0.181871 0.503367 0.182876 0.157430
H8    H     H_    0.810637 0.450453 0.815785 0.165854
H9    H     H_    0.870055 0.401151 0.984226 0.168248
H10   H     H_    0.108051 0.467972 0.012719 0.166263
H11   H     H_    0.657285 0.371291 0.184705 0.152163
H12   H     H_    0.305648 0.410148 0.810430 0.143081
H13   H     H_    0.361679 0.827743 0.510596 0.162088
H14   H     H_    0.638253 0.172302 0.489267 0.161010
H15   H     H_    0.712618 0.820459 0.493996 0.159980
H16   H     H_    0.287357 0.179585 0.505943 0.159487
H17   H     H_    0.273098 0.989824 0.509937 0.138639
H18   H     H_    0.726833 0.010224 0.489929 0.138037
H19   H     H_    0.778548 0.601039 0.413830 0.123719
H20   H     H_    0.221552 0.398988 0.586256 0.120019
N1    N     N_R   0.799120 0.480200 0.517090 -0.095856
N2    N     N_R   0.200880 0.519800 0.482910 -0.095307
O1    O     O_R   0.580150 0.341050 0.504560 -0.627539
O2    O     O_R   0.419850 0.658950 0.495440 -0.625085
O3    O     O_R   0.388090 0.353760 0.493600 -0.624178
O4    O     O_R   0.611910 0.646240 0.506400 -0.622084
O5    O     O_R   0.650890 0.490020 0.640860 -0.615877
O6    O     O_R   0.349110 0.509980 0.359140 -0.618188
O7    O     O_R   0.458830 0.502730 0.629890 -0.620762
O8    O     O_R   0.541170 0.497270 0.370110 -0.622164
Zn1   Zn    Zn3+2 0.628240 0.491510 0.507320 0.937307
Zn2   Zn    Zn3+2 0.371760 0.508490 0.492680 0.935915
N3    N     N_2   0.841267 0.363607 0.138130 -0.314445
H21   H     H_    0.846036 0.304907 0.187393 0.230987
C41   C     C_3   0.918352 0.453457 0.184165 -0.809632
H22   H     H_    0.013577 0.429098 0.230762 0.245124
H23   H     H_    0.881283 0.490392 0.229456 0.248556
H24   H     H_    0.922829 0.510986 0.129602 0.243618
N4    N     N_2   0.123114 0.424363 0.858209 -0.318707
H25   H     H_    0.105200 0.455754 0.790915 0.235269
C42   C     C_3   0.060173 0.324204 0.853413 -0.827570
H26   H     H_    0.960366 0.330284 0.805215 0.233286
H27   H     H_    0.069304 0.297619 0.925722 0.255273
H28   H     H_    0.099125 0.265965 0.824387 0.243553

loop_
_geom_bond_atom_site_label_1
_geom_bond_atom_site_label_2
_ccdc_geom_bond_type
C8    C13   A    
C5    C37   A    
C1    C8    S    
N3    H21   S    
C23   O7    A    
C2    C7    S    
C20   H1    S    
C24   O8    A    
C29   H9    S    
C27   C33   A    
C4    H12   S    
C17   C26   A    
C35   C37   A    
C9    C16   A    
C10   C15   A    
C19   N2    A    
C15   C16   A    
C30   C38   A    
C18   C20   A    
C23   O5    A    
C20   N1    A    
C33   C35   A    
C7    C14   A    
C1    O3    A    
C6    C38   A    
O8    Zn1   S    
C23   C27   S    
C9    H17   S    
C19   H2    S    
N1    Zn1   S    
C30   H10   S    
C28   C34   A    
C33   H6    S    
N3    C41   S    
C18   C25   A    
C1    O1    A    
C42   H27   S    
C2    O2    A    
C42   H26   S    
C7    C12   A    
C27   C31   A    
C36   C40   A    
C21   H20   S    
C4    C6    A    
C22   H19   S    
N4    C42   S    
C3    H11   S    
C2    O4    A    
C25   C26   A    
O7    Zn2   S    
C35   C39   A    
C41   H22   S    
C17   H3    S    
C18   H4    S    
C41   H23   S    
O4    Zn1   S    
C4    C39   A    
C28   C32   A    
O6    Zn2   S    
N2    Zn2   S    
C34   H5    S    
C9    C11   A    
C21   N2    A    
C10   C12   A    
O1    Zn1   S    
C3    C40   A    
C31   H8    S    
C13   C15   A    
C32   H7    S    
C14   C16   A    
C39   C40   A    
C42   H28   S    
C13   H14   S    
C21   C25   A    
C10   H18   S    
C24   C28   S    
C3    C5    A    
O3    Zn2   S    
C36   C38   A    
C29   C31   A    
C22   N1    A    
C30   C32   A    
C6    N4    S    
C8    C11   A    
C17   C19   A    
C34   C36   A    
O5    Zn1   S    
O2    Zn2   S    
C5    N3    S    
C41   H24   S    
C12   H15   S    
C24   O6    A    
N4    H25   S    
C14   H13   S    
C22   C26   A    
C29   C37   A    
C11   H16   S    
