data_mof_unit_pretest_663.cif
_audit_creation_date              2012-12-10T17:14:09-0500
_audit_creation_method            fapswitch 2.2
_symmetry_space_group_name_H-M    P1
_symmetry_Int_Tables_number       1
_space_group_crystal_system       triclinic
_cell_length_a                    15.865163
_cell_length_b                    13.006221
_cell_length_c                    11.668492
_cell_angle_alpha                 100.302157
_cell_angle_beta                  93.331609
_cell_angle_gamma                 90.039177
_cell_volume                      2364.77348502

loop_
_atom_site_label
_atom_site_type_symbol
_atom_type_description
_atom_site_fract_x
_atom_site_fract_y
_atom_site_fract_z
_atom_type_partial_charge
C1    C     C_R   0.499235 0.298990 0.478239 0.808717
C2    C     C_3   0.953975 0.417240 0.566614 -0.484789
C3    C     C_3   0.917057 0.501178 0.499389 0.266364
C4    C     C_3   0.951809 0.610298 0.561319 0.358667
C5    C     C_3   0.049936 0.611836 0.560452 -0.417001
C6    C     C_1   0.824857 0.498782 0.497663 -0.071540
C7    C     C_1   0.174885 0.503960 0.503405 -0.093779
C8    C     C_1   0.250466 0.502730 0.502808 -0.202364
C9    C     C_R   0.501324 0.815332 0.536055 -0.156628
C10   C     C_R   0.499602 0.185506 0.465472 -0.055339
C11   C     C_R   0.494100 0.013630 0.344159 -0.204136
C12   C     C_R   0.340097 0.500772 0.500888 0.829200
C13   C     C_R   0.494140 0.121873 0.354530 -0.190163
C14   C     C_R   0.505502 0.140320 0.565759 -0.245225
C15   C     C_R   0.504868 0.032459 0.556094 0.104150
C16   C     C_R   0.498991 0.968514 0.444646 0.177800
C17   C     C_R   0.498069 0.860574 0.435440 -0.337041
C18   C     C_R   0.504903 0.879957 0.647803 0.446043
C19   C     C_R   0.509286 0.987996 0.656567 -0.293536
C20   C     C_R   0.425555 0.397943 0.020500 -0.411596
C21   C     C_R   0.429637 0.408891 0.144260 0.684879
C22   C     C_R   0.532381 0.544895 0.157823 -0.043923
C23   C     C_R   0.500935 0.701242 0.522047 0.816520
C24   C     C_R   0.527571 0.538483 0.034895 -0.025767
C25   C     C_R   0.473398 0.463585 0.965911 -0.053585
C26   C     C_R   0.468243 0.455553 0.843060 0.019764
C27   C     C_R   0.568595 0.592289 0.855822 -0.021146
C28   C     C_R   0.575000 0.604911 0.979208 0.331781
C29   C     C_R   0.659828 0.499342 0.499156 0.824601
C30   C     C_3   0.051666 0.419820 0.569844 -0.392560
C31   C     C_3   0.044512 0.478201 0.375232 -0.390066
C32   C     C_3   0.946872 0.477349 0.373222 -0.349049
C33   C     C_1   0.749328 0.498451 0.497588 -0.185643
C34   C     C_3   0.082632 0.503691 0.502467 0.276543
Cu1   Cu    Cu3+1 0.506190 0.507730 0.615930 0.937893
Cu2   Cu    Cu3+1 0.493810 0.492270 0.384070 0.971880
H1    H     H_    0.930443 0.338248 0.523706 0.188033
H2    H     H_    0.077455 0.437245 0.662105 0.169344
H3    H     H_    0.932853 0.431244 0.657367 0.167745
H4    H     H_    0.494622 0.811950 0.349442 0.171109
H5    H     H_    0.489784 0.965413 0.257994 0.125876
H6    H     H_    0.515231 0.037093 0.742161 0.144285
H7    H     H_    0.489769 0.155595 0.275999 0.173378
H8    H     H_    0.509861 0.188918 0.651776 0.153501
H9    H     H_    0.426283 0.398329 0.789503 0.133956
H10   H     H_    0.075035 0.341484 0.530503 0.174985
H11   H     H_    0.606344 0.641188 0.812427 0.158024
H12   H     H_    0.386381 0.338800 0.965634 0.138582
H13   H     H_    0.574274 0.601420 0.212447 0.181883
H14   H     H_    0.066206 0.537054 0.324559 0.173982
H15   H     H_    0.066612 0.400455 0.332133 0.172323
H16   H     H_    0.922308 0.399498 0.328100 0.156535
H17   H     H_    0.921478 0.536147 0.322128 0.203123
H18   H     H_    0.077469 0.632627 0.651640 0.122752
H19   H     H_    0.071266 0.673041 0.512656 0.185193
H20   H     H_    0.934187 0.620835 0.654125 0.047609
N1    N     N_R   0.515490 0.519350 0.790130 -0.207306
N2    N     N_R   0.484510 0.480650 0.209890 -0.220950
O1    O     O_R   0.504390 0.354460 0.582000 -0.595921
O2    O     O_R   0.493940 0.341410 0.386200 -0.540855
O3    O     O_R   0.384660 0.506540 0.597940 -0.588750
O4    O     O_R   0.374210 0.493480 0.402140 -0.548202
O5    O     O_R   0.506060 0.658590 0.613800 -0.558230
O6    O     O_R   0.495610 0.645540 0.418000 -0.601894
O7    O     O_R   0.625790 0.506520 0.597860 -0.579524
O8    O     O_R   0.615340 0.493460 0.402060 -0.577499
O9    O     O_3   0.917680 0.688820 0.502037 -0.610809
C35   C     C_3   0.892296 0.777833 0.580503 0.046329
H21   H     H_    0.896396 0.846080 0.535780 0.171600
H22   H     H_    0.935074 0.795890 0.660968 0.116663
C36   C     C_3   0.800444 0.765146 0.610799 -0.350336
H23   H     H_    0.759778 0.744659 0.528970 0.233557
H24   H     H_    0.795643 0.700888 0.661355 0.204548
C37   C     C_3   0.767782 0.865200 0.682786 -0.915960
H25   H     H_    0.806422 0.886229 0.766227 0.251846
H26   H     H_    0.701269 0.853128 0.702698 0.278037
H27   H     H_    0.769996 0.930524 0.633332 0.258505
O10   O     O_3   0.509453 0.838655 0.749306 -0.625772
C38   C     C_3   0.427040 0.824319 0.785027 0.086469
H28   H     H_    0.427583 0.752098 0.823530 0.169531
H29   H     H_    0.377534 0.811436 0.711593 0.118135
C39   C     C_3   0.403298 0.916448 0.878537 -0.393423
H30   H     H_    0.454754 0.932088 0.948328 0.219761
H31   H     H_    0.394622 0.987532 0.838954 0.211904
C40   C     C_3   0.321654 0.894045 0.932978 -0.928496
H32   H     H_    0.268925 0.879027 0.865017 0.255390
H33   H     H_    0.305703 0.962597 0.999239 0.255431
H34   H     H_    0.329299 0.825030 0.976503 0.252776
O11   O     O_3   0.631929 0.675989 0.044684 -0.623981
C41   C     C_3   0.609874 0.779836 0.035234 0.029658
H35   H     H_    0.596631 0.822057 0.123770 0.153876
H36   H     H_    0.552151 0.786745 0.977863 0.144796
C42   C     C_3   0.684371 0.833416 0.991524 -0.302264
H37   H     H_    0.740921 0.830507 0.051693 0.223987
H38   H     H_    0.698853 0.791163 0.903574 0.219365
C43   C     C_3   0.665411 0.947277 0.984728 -0.921534
H39   H     H_    0.611358 0.952145 0.921240 0.282742
H40   H     H_    0.721464 0.984228 0.955390 0.254701
H41   H     H_    0.650407 0.991086 0.071772 0.250504
O12   O     O_3   0.384171 0.344889 0.203012 -0.591972
C44   C     C_3   0.302401 0.315506 0.152084 0.021716
H42   H     H_    0.274569 0.264187 0.206883 0.168913
H43   H     H_    0.304397 0.265718 0.064622 0.124764
C45   C     C_3   0.243500 0.409462 0.151940 -0.359132
H44   H     H_    0.237792 0.450972 0.242910 0.235005
H45   H     H_    0.269304 0.465299 0.100894 0.208310
C46   C     C_3   0.155839 0.374193 0.098677 -0.942749
H46   H     H_    0.159612 0.336814 0.005780 0.258535
H47   H     H_    0.113861 0.442903 0.103133 0.255494
H48   H     H_    0.128079 0.317585 0.147140 0.250562

loop_
_geom_bond_atom_site_label_1
_geom_bond_atom_site_label_2
_ccdc_geom_bond_type
C42   H37   S    
Cu1   Cu2   S    
C3    C6    S    
C45   H45   S    
C7    C8    T    
C40   H32   S    
C15   C19   A    
C44   H42   S    
C37   H26   S    
Cu2   N2    S    
C1    O1    A    
Cu2   O8    S    
C20   C25   A    
Cu1   O7    S    
C15   C16   A    
C43   H41   S    
C29   C33   S    
C30   H2    S    
Cu1   O1    S    
C18   C19   A    
C32   H16   S    
C26   H9    S    
C35   H21   S    
C2    H3    S    
C16   C17   A    
C37   H27   S    
C43   H40   S    
C46   H46   S    
C28   O11   S    
C19   H6    S    
C18   O10   S    
C23   O5    A    
C44   H43   S    
C5    C34   S    
C46   H47   S    
Cu2   O4    S    
C45   H44   S    
C5    H19   S    
C40   H33   S    
C37   H25   S    
C30   C34   S    
O9    C35   S    
C5    H18   S    
C24   C25   A    
C27   N1    A    
C1    O2    A    
C36   H24   S    
C21   O12   S    
O10   C38   S    
C9    C23   S    
C25   C26   A    
C38   H28   S    
C17   H4    S    
C36   C37   S    
C12   O4    A    
C11   C16   A    
C41   H36   S    
C31   C32   S    
C8    C12   S    
C43   H39   S    
C31   C34   S    
Cu1   O3    S    
C20   H12   S    
C22   H13   S    
C29   O7    A    
C9    C17   A    
C23   O6    A    
C42   C43   S    
C39   H31   S    
C10   C14   A    
C7    C34   S    
C22   C24   A    
C31   H14   S    
C3    C4    S    
C32   H17   S    
C13   H7    S    
C41   C42   S    
C14   H8    S    
C40   H34   S    
C27   H11   S    
C30   H10   S    
C1    C10   S    
C24   C28   A    
C31   H15   S    
C4    C5    S    
Cu2   O2    S    
C10   C13   A    
C22   N2    A    
C38   C39   S    
C44   C45   S    
C39   C40   S    
C38   H29   S    
C6    C33   T    
Cu1   N1    S    
C2    C30   S    
C2    C3    S    
C21   N2    A    
C12   O3    A    
C11   C13   A    
C2    H1    S    
C41   H35   S    
C35   C36   S    
O12   C44   S    
C46   H48   S    
C11   H5    S    
C3    C32   S    
C26   N1    A    
C29   O8    A    
C9    C18   A    
C36   H23   S    
C20   C21   A    
C42   H38   S    
C39   H30   S    
C27   C28   A    
C35   H22   S    
C14   C15   A    
Cu1   O5    S    
O11   C41   S    
Cu2   O6    S    
C45   C46   S    
C4    H20   S    
C4    O9    S    
