data_mof_unit_pretest_1305.cif
_audit_creation_date              2012-12-10T16:49:24-0500
_audit_creation_method            fapswitch 2.2
_symmetry_space_group_name_H-M    P1
_symmetry_Int_Tables_number       1
_space_group_crystal_system       triclinic
_cell_length_a                    19.294279
_cell_length_b                    8.760297
_cell_length_c                    7.606131
_cell_angle_alpha                 103.67083
_cell_angle_beta                  95.733321
_cell_angle_gamma                 96.198129
_cell_volume                      1231.38028644

loop_
_atom_site_label
_atom_site_type_symbol
_atom_type_description
_atom_site_fract_x
_atom_site_fract_y
_atom_site_fract_z
_atom_type_partial_charge
C1    C     C_R   0.497300 0.200182 0.453325 0.865572
C2    C     C_R   0.502700 0.799817 0.546675 0.865571
C3    C     C_2   0.485009 0.031634 0.433817 -0.215912
C4    C     C_2   0.514991 0.968366 0.566183 -0.215912
C5    C     C_R   0.367730 0.501007 0.500054 0.846947
C6    C     C_R   0.632270 0.498993 0.499946 0.846947
C7    C     C_R   0.265684 0.554229 0.670117 -0.142922
C8    C     C_R   0.734316 0.445771 0.329883 -0.142922
C9    C     C_R   0.193796 0.562785 0.676882 0.002410
C10   C     C_R   0.806204 0.437215 0.323118 0.002410
C11   C     C_R   0.147313 0.518324 0.511491 -0.041484
C12   C     C_R   0.852687 0.481676 0.488509 -0.041484
C13   C     C_R   0.174102 0.474142 0.344575 -0.101485
C14   C     C_R   0.825898 0.525858 0.655425 -0.101485
C15   C     C_R   0.245737 0.468787 0.340067 -0.085569
C16   C     C_R   0.754263 0.531213 0.659933 -0.085569
C17   C     C_R   0.291960 0.507054 0.502798 -0.090304
C18   C     C_R   0.708040 0.492946 0.497202 -0.090305
C19   C     C_R   0.929222 0.488738 0.492222 0.381091
C20   C     C_R   0.070778 0.511262 0.507777 0.381091
Cu1   Cu    Cu3+1 0.507710 0.517380 0.684380 1.037467
Cu2   Cu    Cu3+1 0.492290 0.482620 0.315620 1.037467
H1    H     H_    0.301627 0.588003 0.795984 0.197461
H2    H     H_    0.698373 0.411996 0.204015 0.197461
H3    H     H_    0.139153 0.440308 0.216992 0.168844
H4    H     H_    0.860847 0.559692 0.783008 0.168844
H5    H     H_    0.264733 0.432602 0.209281 0.190015
H6    H     H_    0.735267 0.567398 0.790719 0.190015
N1    N     N_R   0.032569 0.566537 0.382601 -0.210804
N2    N     N_R   0.967431 0.433462 0.617398 -0.210804
N3    N     N_R   0.963041 0.556511 0.375885 -0.241105
N4    N     N_R   0.036959 0.443489 0.624115 -0.241105
N5    N     N_2   0.480680 0.456420 0.038530 -0.216667
N6    N     N_2   0.519320 0.543580 0.961470 -0.216667
O1    O     O_R   0.505010 0.286130 0.619770 -0.523376
O2    O     O_R   0.494990 0.713870 0.380230 -0.523377
O3    O     O_R   0.491990 0.256780 0.308370 -0.597338
O4    O     O_R   0.508010 0.743220 0.691630 -0.597338
O5    O     O_R   0.406650 0.514660 0.655750 -0.568589
O6    O     O_R   0.593350 0.485340 0.344250 -0.568589
O7    O     O_R   0.393640 0.485310 0.344340 -0.545308
O8    O     O_R   0.606360 0.514690 0.655660 -0.545307
C21   C     C_2   0.169285 0.626273 0.855821 0.368848
H7    H     H_    0.116635 0.657472 0.862997 0.102170
O9    O     O_2   0.208333 0.647658 0.998574 -0.536570
C22   C     C_2   0.830714 0.373726 0.144179 0.368848
H8    H     H_    0.883365 0.342527 0.137003 0.102170
O10   O     O_2   0.791667 0.352342 0.001427 -0.536570
C23   C     C_2   0.427792 0.944664 0.285954 0.394364
H9    H     H_    0.424437 0.972512 0.153957 0.106537
O11   O     O_2   0.381705 0.849379 0.313688 -0.519569
C24   C     C_2   0.572208 0.055336 0.714046 0.394363
H10   H     H_    0.575564 0.027487 0.846043 0.106538
O12   O     O_2   0.618294 0.150623 0.686313 -0.519568
C25   C     C_2   0.424444 0.330633 0.951276 1.030090
O13   O     O_2   0.393805 0.260579 0.047932 -0.612769
O14   O     O_R   0.401790 0.282661 0.765878 -0.754035
H11   H     H_    0.361576 0.191972 0.731058 0.311991
C26   C     C_2   0.575556 0.669367 0.048724 1.030090
O15   O     O_2   0.606195 0.739421 0.952068 -0.612769
O16   O     O_R   0.598210 0.717339 0.234122 -0.754035
H12   H     H_    0.638424 0.808028 0.268942 0.311991

loop_
_geom_bond_atom_site_label_1
_geom_bond_atom_site_label_2
_ccdc_geom_bond_type
C10   C22   S    
C2    C4    S    
C21   H7    S    
N5    C25   S    
Cu1   O1    S    
C9    C11   A    
C2    O4    A    
C15   H5    S    
C16   H6    S    
Cu1   O5    S    
C1    O3    A    
C25   O13   D    
Cu2   O6    S    
C13   C15   A    
N5    N6    D    
C3    C23   S    
C19   N3    A    
C26   O15   D    
N1    N3    A    
C25   O14   S    
Cu1   Cu2   S    
C14   H4    S    
N2    N4    A    
C21   O9    D    
C13   H3    S    
O14   H11   S    
N6    C26   S    
C10   C12   A    
C4    C24   S    
C7    H1    S    
C12   C19   S    
C8    C10   A    
C8    H2    S    
C24   O12   D    
C14   C16   A    
C20   N1    A    
C5    O5    A    
C6    O8    A    
O16   H12   S    
C6    C18   S    
C22   O10   D    
C11   C20   S    
C9    C21   S    
Cu2   O7    S    
C5    C17   S    
Cu1   O8    S    
C11   C13   A    
C6    O6    A    
Cu2   O2    S    
C24   H10   S    
C1    O1    A    
C16   C18   A    
C23   H9    S    
C20   N4    A    
C26   O16   S    
C2    O2    A    
C1    C3    S    
C7    C9    A    
Cu2   N5    S    
C5    O7    A    
C22   H8    S    
Cu1   N6    S    
C7    C17   A    
C15   C17   A    
C19   N2    A    
Cu2   O3    S    
C8    C18   A    
Cu1   O4    S    
C3    C4    D    
C12   C14   A    
C23   O11   D    
