data_mof_unit_pretest_1977.cif
_audit_creation_date              2012-12-10T20:23:25-0500
_audit_creation_method            fapswitch 2.2
_symmetry_space_group_name_H-M    P1
_symmetry_Int_Tables_number       1
_space_group_crystal_system       monoclinic
_cell_length_a                    35.513757
_cell_length_b                    35.513766
_cell_length_c                    47.066835
_cell_angle_alpha                 90.0
_cell_angle_beta                  90.0
_cell_angle_gamma                 89.891183
_cell_volume                      59361.8680901

loop_
_atom_site_label
_atom_site_type_symbol
_atom_type_description
_atom_site_fract_x
_atom_site_fract_y
_atom_site_fract_z
_atom_type_partial_charge
C1    C     C_R   0.573415 0.999968 1.000000 0.910402
C2    C     C_R   0.999967 0.573415 0.000000 0.910402
C3    C     C_R   0.426585 0.000032 1.000000 0.910403
C4    C     C_R   0.000033 0.426585 0.000000 0.910403
C5    C     C_R   0.073415 0.499967 0.500000 0.910402
C6    C     C_R   0.499968 0.073415 0.500000 0.910402
C7    C     C_R   0.926585 0.500033 0.500000 0.910403
C8    C     C_R   0.500032 0.926585 0.500000 0.910403
C9    C     C_R   0.500000 0.000000 0.913523 -0.145440
C10   C     C_R   1.000000 0.500000 0.913523 -0.145372
C11   C     C_R   0.500000 0.000000 0.086477 -0.145438
C12   C     C_R   0.000000 0.500000 0.086477 -0.145433
C13   C     C_R   0.000000 0.500000 0.413523 -0.145433
C14   C     C_R   0.500000 0.000000 0.413523 -0.145437
C15   C     C_R   0.000000 0.500000 0.586477 -0.145373
C16   C     C_R   0.500000 0.000000 0.586477 -0.145441
C17   C     C_R   0.500000 0.000000 0.854145 0.153207
C18   C     C_R   1.000000 0.500000 0.854146 0.153172
C19   C     C_R   0.500000 1.000000 0.145854 0.153150
C20   C     C_R   1.000000 0.500000 0.145855 0.153160
C21   C     C_R   0.000000 0.500000 0.354145 0.153160
C22   C     C_R   0.500000 0.000000 0.354146 0.153150
C23   C     C_R   1.000000 0.500000 0.645854 0.153172
C24   C     C_R   0.500000 0.000000 0.645855 0.153207
C25   C     C_R   0.826556 0.999785 0.025885 0.281579
C26   C     C_R   0.999910 0.826555 0.025885 0.281580
C27   C     C_R   0.173444 0.000215 0.025885 0.281579
C28   C     C_R   0.000090 0.173445 0.025885 0.281580
C29   C     C_R   0.826556 0.999841 0.974115 0.281580
C30   C     C_R   0.000323 0.173444 0.974115 0.281578
C31   C     C_R   0.173444 0.000159 0.974115 0.281579
C32   C     C_R   0.999677 0.826556 0.974115 0.281578
C33   C     C_R   0.326556 0.499677 0.525884 0.281578
C34   C     C_R   0.499841 0.326556 0.525885 0.281579
C35   C     C_R   0.673444 0.500323 0.525884 0.281578
C36   C     C_R   0.500159 0.673444 0.525885 0.281580
C37   C     C_R   0.326555 0.499910 0.474115 0.281579
C38   C     C_R   0.500215 0.673444 0.474115 0.281579
C39   C     C_R   0.673445 0.500090 0.474115 0.281580
C40   C     C_R   0.499785 0.326556 0.474115 0.281579
C41   C     C_R   0.865733 0.999866 0.025783 -0.196108
C42   C     C_R   0.999996 0.865733 0.025783 -0.196110
C43   C     C_R   0.134267 0.000134 0.025783 -0.196108
C44   C     C_R   0.000004 0.134267 0.025783 -0.196110
C45   C     C_R   0.865733 0.999921 0.974217 -0.196111
C46   C     C_R   0.000232 0.134266 0.974218 -0.196112
C47   C     C_R   0.134266 0.000079 0.974217 -0.196110
C48   C     C_R   0.999768 0.865734 0.974218 -0.196112
C49   C     C_R   0.365734 0.499768 0.525782 -0.196112
C50   C     C_R   0.499921 0.365733 0.525783 -0.196110
C51   C     C_R   0.634266 0.500232 0.525782 -0.196112
C52   C     C_R   0.500079 0.634266 0.525783 -0.196111
C53   C     C_R   0.365733 0.499996 0.474217 -0.196110
C54   C     C_R   0.500134 0.634266 0.474217 -0.196108
C55   C     C_R   0.634267 0.500004 0.474217 -0.196110
C56   C     C_R   0.499866 0.365733 0.474217 -0.196108
C57   C     C_R   0.885552 0.999935 1.000000 -0.153202
C58   C     C_R   0.999928 0.885552 0.000000 -0.153202
C59   C     C_R   0.114448 0.000065 1.000000 -0.153202
C60   C     C_R   0.000072 0.114448 0.000000 -0.153202
C61   C     C_R   0.385552 0.499928 0.500000 -0.153202
C62   C     C_R   0.499935 0.385552 0.500000 -0.153202
C63   C     C_R   0.614448 0.500072 0.500000 -0.153202
C64   C     C_R   0.500065 0.614448 0.500000 -0.153202
C65   C     C_R   0.806967 0.999773 1.000000 -0.038323
C66   C     C_R   0.999749 0.806967 0.000000 -0.038326
C67   C     C_R   0.193033 0.000227 1.000000 -0.038323
C68   C     C_R   0.000250 0.193033 0.000000 -0.038326
C69   C     C_R   0.306967 0.499749 0.499999 -0.038326
C70   C     C_R   0.499773 0.306967 0.500000 -0.038323
C71   C     C_R   0.693033 0.500250 0.499999 -0.038326
C72   C     C_R   0.500227 0.693033 0.500000 -0.038323
C73   C     C_1   0.766902 0.999737 1.000000 0.148663
C74   C     C_1   0.999710 0.766902 0.000000 0.148661
C75   C     C_1   0.233098 0.000263 1.000000 0.148664
C76   C     C_1   0.000290 0.233098 0.000000 0.148661
C77   C     C_1   0.266902 0.499710 0.499999 0.148661
C78   C     C_1   0.499737 0.266902 0.500000 0.148664
C79   C     C_1   0.733098 0.500290 0.499999 0.148661
C80   C     C_1   0.500263 0.733098 0.500000 0.148664
C81   C     C_1   0.733280 0.999741 1.000000 0.148698
C82   C     C_1   0.999715 0.733280 0.000001 0.148692
C83   C     C_1   0.266720 0.000259 1.000000 0.148698
C84   C     C_1   0.000285 0.266720 0.000001 0.148692
C85   C     C_1   0.233280 0.499715 0.499999 0.148692
C86   C     C_1   0.499741 0.233280 0.500000 0.148698
C87   C     C_1   0.766720 0.500285 0.499999 0.148692
C88   C     C_1   0.500259 0.766720 0.500000 0.148698
C89   C     C_R   0.673609 0.034121 0.999994 0.282223
C90   C     C_R   0.965494 0.673637 0.999724 0.281700
C91   C     C_R   0.326390 0.965879 0.999994 0.282223
C92   C     C_R   0.034505 0.326363 0.999723 0.281700
C93   C     C_R   0.673643 0.965509 0.000005 0.281091
C94   C     C_R   0.965897 0.326385 0.000278 0.281630
C95   C     C_R   0.326357 0.034491 0.000005 0.281091
C96   C     C_R   0.034103 0.673615 0.000278 0.281630
C97   C     C_R   0.173615 0.534103 0.499722 0.281630
C98   C     C_R   0.465509 0.173643 0.499995 0.281091
C99   C     C_R   0.826385 0.465897 0.499722 0.281630
C100  C     C_R   0.534491 0.826357 0.499995 0.281091
C101  C     C_R   0.173637 0.465494 0.500276 0.281700
C102  C     C_R   0.465879 0.826390 0.500005 0.282223
C103  C     C_R   0.826363 0.534505 0.500276 0.281700
C104  C     C_R   0.534121 0.173610 0.500005 0.282223
C105  C     C_R   0.634433 0.034041 0.999995 -0.197817
C106  C     C_R   0.965693 0.634457 0.999728 -0.195832
C107  C     C_R   0.365567 0.965958 0.999995 -0.197817
C108  C     C_R   0.034307 0.365543 0.999728 -0.195832
C109  C     C_R   0.634463 0.965701 0.000005 -0.193639
C110  C     C_R   0.965970 0.365561 0.000273 -0.195654
C111  C     C_R   0.365537 0.034299 0.000005 -0.193639
C112  C     C_R   0.034030 0.634438 0.000273 -0.195654
C113  C     C_R   0.134438 0.534030 0.499727 -0.195655
C114  C     C_R   0.465701 0.134463 0.499995 -0.193639
C115  C     C_R   0.865561 0.465970 0.499727 -0.195655
C116  C     C_R   0.534299 0.865537 0.499995 -0.193639
C117  C     C_R   0.134457 0.465693 0.500272 -0.195832
C118  C     C_R   0.465958 0.865567 0.500005 -0.197817
C119  C     C_R   0.865542 0.534307 0.500272 -0.195832
C120  C     C_R   0.534041 0.134433 0.500005 -0.197817
C121  C     C_R   0.500000 1.000000 0.944547 0.915503
C122  C     C_R   1.000000 0.500000 0.944547 0.915473
C123  C     C_R   0.500000 0.000000 0.055453 0.915488
C124  C     C_R   0.000000 0.500000 0.055453 0.915501
C125  C     C_R   0.000000 0.500000 0.444547 0.915500
C126  C     C_R   0.500000 0.000000 0.444547 0.915487
C127  C     C_R   0.000000 0.500000 0.555453 0.915473
C128  C     C_R   0.500000 0.000000 0.555453 0.915503
C129  C     C_R   0.614631 0.999900 1.000000 -0.151864
C130  C     C_R   0.999894 0.614631 0.000000 -0.151829
C131  C     C_R   0.385368 0.000100 1.000000 -0.151864
C132  C     C_R   0.000106 0.385368 0.000000 -0.151829
C133  C     C_R   0.114631 0.499894 0.499999 -0.151829
C134  C     C_R   0.499900 0.114631 0.500000 -0.151864
C135  C     C_R   0.885368 0.500106 0.499999 -0.151829
C136  C     C_R   0.500100 0.885368 0.500000 -0.151864
C137  C     C_R   0.693215 0.999788 1.000000 -0.038653
C138  C     C_R   0.999768 0.693215 0.000001 -0.038659
C139  C     C_R   0.306785 0.000212 1.000000 -0.038653
C140  C     C_R   0.000232 0.306785 0.000001 -0.038659
C141  C     C_R   0.193215 0.499768 0.499999 -0.038658
C142  C     C_R   0.499788 0.193215 0.500000 -0.038653
C143  C     C_R   0.806785 0.500232 0.499999 -0.038658
C144  C     C_R   0.500212 0.806785 0.500000 -0.038653
C145  C     C_R   0.476844 0.024490 0.690381 0.598383
C146  C     C_R   0.975551 0.476893 0.690381 0.598380
C147  C     C_R   0.523156 0.975510 0.690381 0.598383
C148  C     C_R   0.024448 0.523107 0.690381 0.598379
C149  C     C_R   0.523154 0.975508 0.309619 0.598373
C150  C     C_R   0.024490 0.476844 0.309619 0.598373
C151  C     C_R   0.476846 0.024492 0.309619 0.598373
C152  C     C_R   0.975510 0.523156 0.309619 0.598373
C153  C     C_R   0.976844 0.524490 0.190381 0.598374
C154  C     C_R   0.475508 0.023154 0.190381 0.598372
C155  C     C_R   0.023156 0.475510 0.190381 0.598374
C156  C     C_R   0.524492 0.976846 0.190381 0.598373
C157  C     C_R   0.023107 0.524448 0.809619 0.598379
C158  C     C_R   0.524490 0.976844 0.809619 0.598383
C159  C     C_R   0.976893 0.475552 0.809619 0.598378
C160  C     C_R   0.475509 0.023156 0.809619 0.598383
C161  C     C_R   0.524031 0.975360 0.720114 -0.031611
C162  C     C_R   0.024596 0.523984 0.720114 -0.031611
C163  C     C_R   0.475968 0.024640 0.720114 -0.031611
C164  C     C_R   0.975404 0.476016 0.720114 -0.031611
C165  C     C_R   0.475969 0.024641 0.279886 -0.031511
C166  C     C_R   0.975360 0.524031 0.279886 -0.031503
C167  C     C_R   0.524031 0.975359 0.279886 -0.031511
C168  C     C_R   0.024640 0.475968 0.279886 -0.031504
C169  C     C_R   0.024031 0.475360 0.220114 -0.031503
C170  C     C_R   0.524641 0.975969 0.220114 -0.031511
C171  C     C_R   0.975969 0.524640 0.220114 -0.031503
C172  C     C_R   0.475359 0.024031 0.220114 -0.031511
C173  C     C_R   0.976016 0.475404 0.779886 -0.031610
C174  C     C_R   0.475360 0.024031 0.779886 -0.031611
C175  C     C_R   0.023984 0.524595 0.779886 -0.031611
C176  C     C_R   0.524640 0.975968 0.779886 -0.031611
C177  C     C_R   0.500000 0.000000 0.735039 -0.007607
C178  C     C_R   1.000000 0.500000 0.735039 -0.007610
C179  C     C_R   0.500000 0.000000 0.264961 -0.007592
C180  C     C_R   1.000000 0.500000 0.264961 -0.007590
C181  C     C_R   1.000000 0.500000 0.235039 -0.007590
C182  C     C_R   0.500000 1.000000 0.235039 -0.007592
C183  C     C_R   0.000000 0.500000 0.764961 -0.007610
C184  C     C_R   0.500000 0.000000 0.764961 -0.007608
C185  C     C_R   0.548252 0.951283 0.735195 -0.110788
C186  C     C_R   0.048626 0.548158 0.735195 -0.110788
C187  C     C_R   0.451748 0.048716 0.735195 -0.110787
C188  C     C_R   0.951374 0.451842 0.735195 -0.110789
C189  C     C_R   0.451749 0.048717 0.264805 -0.110862
C190  C     C_R   0.951284 0.548252 0.264805 -0.110867
C191  C     C_R   0.548251 0.951283 0.264805 -0.110862
C192  C     C_R   0.048716 0.451748 0.264805 -0.110867
C193  C     C_R   0.048252 0.451283 0.235195 -0.110867
C194  C     C_R   0.548717 0.951749 0.235195 -0.110862
C195  C     C_R   0.951748 0.548716 0.235195 -0.110867
C196  C     C_R   0.451283 0.048251 0.235195 -0.110862
C197  C     C_R   0.951841 0.451375 0.764805 -0.110788
C198  C     C_R   0.451283 0.048252 0.764805 -0.110787
C199  C     C_R   0.048159 0.548625 0.764805 -0.110788
C200  C     C_R   0.548717 0.951748 0.764805 -0.110787
C201  C     C_R   0.000008 0.073229 0.000000 0.912816
C202  C     C_R   0.926771 0.999993 1.000000 0.912818
C203  C     C_R   0.999992 0.926771 0.000000 0.912816
C204  C     C_R   0.073229 0.000007 1.000000 0.912818
C205  C     C_R   0.500007 0.573229 0.500000 0.912818
C206  C     C_R   0.426771 0.499992 0.500000 0.912816
C207  C     C_R   0.499993 0.426771 0.500000 0.912818
C208  C     C_R   0.573229 0.500008 0.500000 0.912816
C209  C     C_R   0.516927 0.029794 0.869057 0.306298
C210  C     C_R   0.970165 0.516968 0.869058 0.306331
C211  C     C_R   0.483073 0.970206 0.869057 0.306297
C212  C     C_R   0.029835 0.483031 0.869058 0.306330
C213  C     C_R   0.483084 0.970199 0.130942 0.306289
C214  C     C_R   0.970206 0.483072 0.130942 0.306280
C215  C     C_R   0.516916 0.029800 0.130942 0.306289
C216  C     C_R   0.029794 0.516928 0.130942 0.306280
C217  C     C_R   0.016928 0.529794 0.369057 0.306280
C218  C     C_R   0.529801 0.016916 0.369058 0.306289
C219  C     C_R   0.983072 0.470206 0.369057 0.306280
C220  C     C_R   0.470199 0.983084 0.369058 0.306289
C221  C     C_R   0.016968 0.470165 0.630942 0.306330
C222  C     C_R   0.470206 0.983073 0.630943 0.306297
C223  C     C_R   0.983032 0.529835 0.630942 0.306330
C224  C     C_R   0.529794 0.016927 0.630943 0.306297
C225  C     C_R   0.516460 0.029900 0.898639 -0.218125
C226  C     C_R   0.970060 0.516500 0.898640 -0.218140
C227  C     C_R   0.483540 0.970100 0.898639 -0.218124
C228  C     C_R   0.029940 0.483500 0.898640 -0.218140
C229  C     C_R   0.483552 0.970094 0.101360 -0.218161
C230  C     C_R   0.970101 0.483539 0.101361 -0.218172
C231  C     C_R   0.516448 0.029906 0.101360 -0.218161
C232  C     C_R   0.029899 0.516461 0.101361 -0.218172
C233  C     C_R   0.016461 0.529899 0.398639 -0.218173
C234  C     C_R   0.529906 0.016448 0.398640 -0.218162
C235  C     C_R   0.983539 0.470101 0.398639 -0.218172
C236  C     C_R   0.470094 0.983552 0.398640 -0.218161
C237  C     C_R   0.016500 0.470060 0.601360 -0.218140
C238  C     C_R   0.470100 0.983540 0.601361 -0.218123
C239  C     C_R   0.983500 0.529940 0.601360 -0.218140
C240  C     C_R   0.529899 0.016460 0.601361 -0.218125
H1    H     H_    0.619572 0.060700 0.999991 0.203190
H2    H     H_    0.939083 0.619614 0.999508 0.203430
H3    H     H_    0.380428 0.939300 0.999991 0.203190
H4    H     H_    0.060917 0.380386 0.999508 0.203430
H5    H     H_    0.619624 0.939087 0.000009 0.203821
H6    H     H_    0.939311 0.380419 0.000493 0.203534
H7    H     H_    0.380376 0.060913 0.000009 0.203821
H8    H     H_    0.060689 0.619581 0.000493 0.203534
H9    H     H_    0.119581 0.560689 0.499507 0.203534
H10   H     H_    0.439087 0.119624 0.499991 0.203821
H11   H     H_    0.880419 0.439311 0.499507 0.203534
H12   H     H_    0.560913 0.880376 0.499991 0.203821
H13   H     H_    0.119613 0.439083 0.500491 0.203430
H14   H     H_    0.439300 0.880428 0.500009 0.203190
H15   H     H_    0.880386 0.560917 0.500491 0.203430
H16   H     H_    0.560700 0.119572 0.500009 0.203190
N1    N     N_R   0.500000 0.000000 0.676243 -0.340827
N2    N     N_R   1.000000 0.500000 0.676243 -0.340827
N3    N     N_R   0.500000 0.000000 0.323757 -0.340818
N4    N     N_R   0.000000 0.500000 0.323757 -0.340818
N5    N     N_R   1.000000 0.500000 0.176243 -0.340818
N6    N     N_R   0.500000 1.000000 0.176243 -0.340818
N7    N     N_R   1.000000 0.500000 0.823757 -0.340827
N8    N     N_R   0.500000 0.000000 0.823757 -0.340827
O1    O     O_R   0.555440 0.968650 0.000000 -0.613358
O2    O     O_R   0.031350 0.555440 0.000000 -0.616270
O3    O     O_R   0.444560 0.031350 0.000000 -0.613358
O4    O     O_R   0.968650 0.444560 0.000000 -0.616270
O5    O     O_R   0.555440 0.031350 0.000000 -0.619370
O6    O     O_R   0.031350 0.444560 0.000000 -0.616450
O7    O     O_R   0.444560 0.968650 0.000000 -0.619369
O8    O     O_R   0.968650 0.555440 0.000000 -0.616451
O9    O     O_R   0.055440 0.468650 0.500000 -0.616451
O10   O     O_R   0.531350 0.055440 0.500000 -0.619370
O11   O     O_R   0.944560 0.531350 0.500000 -0.616450
O12   O     O_R   0.468650 0.944560 0.500000 -0.619369
O13   O     O_R   0.055440 0.531350 0.500000 -0.616270
O14   O     O_R   0.531350 0.944560 0.500000 -0.613358
O15   O     O_R   0.944560 0.468650 0.500000 -0.616270
O16   O     O_R   0.468650 0.055440 0.500000 -0.613358
O17   O     O_R   0.499980 0.968650 0.958070 -0.611161
O18   O     O_R   0.031350 0.499980 0.958070 -0.611141
O19   O     O_R   0.500020 0.031350 0.958070 -0.611162
O20   O     O_R   0.968650 0.500020 0.958070 -0.611140
O21   O     O_R   0.499980 0.031350 0.041930 -0.611152
O22   O     O_R   0.031350 0.500020 0.041930 -0.611167
O23   O     O_R   0.500020 0.968650 0.041930 -0.611152
O24   O     O_R   0.968650 0.499980 0.041930 -0.611167
O25   O     O_R   0.999980 0.468650 0.458070 -0.611167
O26   O     O_R   0.531350 0.999980 0.458070 -0.611153
O27   O     O_R   0.000020 0.531350 0.458070 -0.611168
O28   O     O_R   0.468650 0.000020 0.458070 -0.611152
O29   O     O_R   0.999980 0.531350 0.541930 -0.611141
O30   O     O_R   0.531350 0.000020 0.541930 -0.611161
O31   O     O_R   0.000020 0.468650 0.541930 -0.611140
O32   O     O_R   0.468650 0.999980 0.541930 -0.611161
O33   O     O_2   0.454776 0.048533 0.675650 -0.503438
O34   O     O_2   0.951547 0.454873 0.675650 -0.503439
O35   O     O_2   0.545224 0.951467 0.675650 -0.503438
O36   O     O_2   0.048453 0.545127 0.675650 -0.503438
O37   O     O_2   0.545220 0.951463 0.324350 -0.503568
O38   O     O_2   0.048533 0.454776 0.324350 -0.503586
O39   O     O_2   0.454779 0.048537 0.324350 -0.503567
O40   O     O_2   0.951467 0.545224 0.324350 -0.503586
O41   O     O_2   0.954776 0.548533 0.175649 -0.503586
O42   O     O_2   0.451463 0.045220 0.175650 -0.503567
O43   O     O_2   0.045224 0.451467 0.175649 -0.503587
O44   O     O_2   0.548537 0.954780 0.175650 -0.503567
O45   O     O_2   0.045127 0.548452 0.824350 -0.503438
O46   O     O_2   0.548533 0.954776 0.824350 -0.503438
O47   O     O_2   0.954873 0.451548 0.824350 -0.503438
O48   O     O_2   0.451467 0.045224 0.824350 -0.503438
O49   O     O_R   0.000020 0.055270 0.976310 -0.614609
O50   O     O_R   0.944730 0.000020 0.976310 -0.614610
O51   O     O_R   0.999980 0.944730 0.976310 -0.614609
O52   O     O_R   0.055270 0.999980 0.976310 -0.614610
O53   O     O_R   0.000020 0.944730 0.023690 -0.614609
O54   O     O_R   0.944730 0.999980 0.023690 -0.614609
O55   O     O_R   0.999980 0.055270 0.023690 -0.614609
O56   O     O_R   0.055270 0.000020 0.023690 -0.614609
O57   O     O_R   0.500020 0.555270 0.476310 -0.614609
O58   O     O_R   0.444730 0.500020 0.476310 -0.614609
O59   O     O_R   0.499980 0.444730 0.476310 -0.614609
O60   O     O_R   0.555270 0.499980 0.476310 -0.614609
O61   O     O_R   0.500020 0.444730 0.523690 -0.614610
O62   O     O_R   0.444730 0.499980 0.523690 -0.614609
O63   O     O_R   0.499980 0.555270 0.523690 -0.614610
O64   O     O_R   0.555270 0.500020 0.523690 -0.614609
Zn1   Zn    Zn3+2 0.500000 0.958160 0.000000 1.041698
Zn2   Zn    Zn3+2 0.041840 0.500000 0.000000 1.041705
Zn3   Zn    Zn3+2 0.500000 0.041840 0.000000 1.041698
Zn4   Zn    Zn3+2 0.958160 0.500000 0.000000 1.041706
Zn5   Zn    Zn3+2 1.000000 0.458160 0.500000 1.041706
Zn6   Zn    Zn3+2 0.541840 0.000000 0.500000 1.041698
Zn7   Zn    Zn3+2 0.000000 0.541840 0.500000 1.041705
Zn8   Zn    Zn3+2 0.458160 0.000000 0.500000 1.041698
Zn9   Zn    Zn3+2 1.000000 0.000000 0.968380 1.036926
Zn10  Zn    Zn3+2 0.000000 0.000000 0.031620 1.036929
Zn11  Zn    Zn3+2 0.500000 0.500000 0.468380 1.036929
Zn12  Zn    Zn3+2 0.500000 0.500000 0.531620 1.036926
H17   H     H_    0.567038 0.932162 0.724184 0.206012
H18   H     H_    0.067713 0.566907 0.724184 0.206009
H19   H     H_    0.432962 0.067838 0.724184 0.206012
H20   H     H_    0.932287 0.433092 0.724184 0.206009
H21   H     H_    0.432963 0.067839 0.275816 0.205885
H22   H     H_    0.932162 0.567038 0.275816 0.205878
H23   H     H_    0.567037 0.932161 0.275816 0.205885
H24   H     H_    0.067838 0.432962 0.275816 0.205878
H25   H     H_    0.067038 0.432161 0.224184 0.205878
H26   H     H_    0.567839 0.932963 0.224184 0.205885
H27   H     H_    0.932962 0.567839 0.224184 0.205878
H28   H     H_    0.432161 0.067037 0.224184 0.205885
H29   H     H_    0.933092 0.432288 0.775816 0.206009
H30   H     H_    0.432161 0.067038 0.775816 0.206012
H31   H     H_    0.066908 0.567712 0.775816 0.206009
H32   H     H_    0.567838 0.932962 0.775816 0.206012
Br1   Br    Br    0.541556 0.070279 0.849605 -0.373231
Br2   Br    Br    0.929621 0.541657 0.849607 -0.373216
Br3   Br    Br    0.458444 0.929720 0.849605 -0.373231
Br4   Br    Br    0.070379 0.458343 0.849607 -0.373216
Br5   Br    Br    0.458467 0.929706 0.150394 -0.372910
Br6   Br    Br    0.929721 0.458443 0.150395 -0.372879
Br7   Br    Br    0.541533 0.070294 0.150394 -0.372910
Br8   Br    Br    0.070278 0.541557 0.150395 -0.372880
Br9   Br    Br    0.041557 0.570278 0.349605 -0.372879
Br10  Br    Br    0.570294 0.041533 0.349606 -0.372911
Br11  Br    Br    0.958442 0.429721 0.349605 -0.372879
Br12  Br    Br    0.429706 0.958467 0.349606 -0.372911
Br13  Br    Br    0.041656 0.429621 0.650393 -0.373216
Br14  Br    Br    0.429721 0.958444 0.650395 -0.373232
Br15  Br    Br    0.958344 0.570379 0.650393 -0.373215
Br16  Br    Br    0.570279 0.041556 0.650395 -0.373231
H33   H     H_    0.529574 0.052953 0.909983 0.199803
H34   H     H_    0.946975 0.529645 0.909985 0.199744
H35   H     H_    0.470426 0.947047 0.909983 0.199804
H36   H     H_    0.053025 0.470355 0.909985 0.199744
H37   H     H_    0.470447 0.947036 0.090016 0.199798
H38   H     H_    0.947048 0.470425 0.090017 0.199806
H39   H     H_    0.529553 0.052964 0.090016 0.199798
H40   H     H_    0.052952 0.529575 0.090017 0.199806
H41   H     H_    0.029575 0.552952 0.409983 0.199806
H42   H     H_    0.552964 0.029553 0.409984 0.199798
H43   H     H_    0.970425 0.447048 0.409983 0.199806
H44   H     H_    0.447036 0.970447 0.409984 0.199798
H45   H     H_    0.029645 0.446975 0.590015 0.199744
H46   H     H_    0.447047 0.970426 0.590017 0.199803
H47   H     H_    0.970355 0.553025 0.590015 0.199744
H48   H     H_    0.552953 0.029574 0.590017 0.199803
Br17  Br    Br    0.800900 0.999700 0.061800 -0.373813
Br18  Br    Br    0.000026 0.800899 0.061801 -0.373800
Br19  Br    Br    0.199100 0.000300 0.061800 -0.373814
Br20  Br    Br    0.999974 0.199101 0.061801 -0.373800
Br21  Br    Br    0.800900 0.999833 0.938199 -0.373806
Br22  Br    Br    0.000541 0.199099 0.938200 -0.373806
Br23  Br    Br    0.199100 0.000167 0.938199 -0.373806
Br24  Br    Br    0.999459 0.800901 0.938200 -0.373806
Br25  Br    Br    0.300901 0.499459 0.561800 -0.373805
Br26  Br    Br    0.499833 0.300900 0.561801 -0.373806
Br27  Br    Br    0.699099 0.500541 0.561800 -0.373805
Br28  Br    Br    0.500167 0.699100 0.561801 -0.373806
Br29  Br    Br    0.300899 0.500026 0.438199 -0.373801
Br30  Br    Br    0.500300 0.699100 0.438200 -0.373813
Br31  Br    Br    0.699101 0.499974 0.438199 -0.373801
Br32  Br    Br    0.499700 0.300900 0.438200 -0.373813
H49   H     H_    0.880581 0.999872 0.045882 0.203267
H50   H     H_    0.000118 0.880581 0.045882 0.203267
H51   H     H_    0.119419 0.000128 0.045882 0.203267
H52   H     H_    0.999881 0.119419 0.045882 0.203267
H53   H     H_    0.880581 0.999970 0.954118 0.203266
H54   H     H_    0.000293 0.119418 0.954118 0.203266
H55   H     H_    0.119419 0.000030 0.954118 0.203266
H56   H     H_    0.999707 0.880582 0.954118 0.203266
H57   H     H_    0.380582 0.499707 0.545882 0.203266
H58   H     H_    0.499970 0.380581 0.545882 0.203266
H59   H     H_    0.619418 0.500293 0.545882 0.203266
H60   H     H_    0.500030 0.619419 0.545882 0.203266
H61   H     H_    0.380581 0.500118 0.454118 0.203267
H62   H     H_    0.500128 0.619419 0.454118 0.203267
H63   H     H_    0.619419 0.499881 0.454118 0.203267
H64   H     H_    0.499872 0.380581 0.454118 0.203267
Br33  Br    Br    0.699239 0.081686 0.999987 -0.371754
Br34  Br    Br    0.917859 0.699309 0.999330 -0.372675
Br35  Br    Br    0.300761 0.918314 0.999987 -0.371754
Br36  Br    Br    0.082141 0.300691 0.999329 -0.372675
Br37  Br    Br    0.699323 0.917875 0.000013 -0.372852
Br38  Br    Br    0.918340 0.300746 0.000673 -0.371903
Br39  Br    Br    0.300676 0.082125 0.000013 -0.372852
Br40  Br    Br    0.081660 0.699254 0.000672 -0.371903
Br41  Br    Br    0.199254 0.581660 0.499328 -0.371903
Br42  Br    Br    0.417875 0.199323 0.499987 -0.372852
Br43  Br    Br    0.800746 0.418340 0.499328 -0.371903
Br44  Br    Br    0.582125 0.800676 0.499987 -0.372852
Br45  Br    Br    0.199309 0.417859 0.500670 -0.372675
Br46  Br    Br    0.418314 0.800760 0.500013 -0.371754
Br47  Br    Br    0.800691 0.582141 0.500670 -0.372675
Br48  Br    Br    0.581686 0.199239 0.500013 -0.371754

loop_
_geom_bond_atom_site_label_1
_geom_bond_atom_site_label_2
_ccdc_geom_bond_type
C37   C69   A    
C233  H41   S    
C117  C133  A    
C42   C58   A    
C79   C87   T    
C176  C200  A    
C213  C229  A    
C128  O30   A    
O29   Zn7   S    
C45   C57   A    
O1    Zn1   S    
C3    C131  S    
O31   Zn5   S    
C127  O31   A    
C18   C210  A    
C1    C129  S    
C225  H33   S    
C145  O33   S    
O23   Zn1   S    
C45   H53   S    
C15   C239  A    
C215  Br7   S    
C176  C184  A    
C191  H23   S    
C234  H42   S    
C34   Br26  S    
C205  O57   A    
C28   Br20  S    
C149  C167  A    
C57   C202  S    
C9    C121  S    
O32   Zn8   S    
C168  C192  A    
C33   C69   A    
C61   C206  S    
C13   C125  S    
C188  H20   S    
C6    O16   A    
C209  Br1   S    
C237  H45   S    
C158  O46   S    
C107  H3    S    
C7    O15   A    
C73   C81   T    
C103  Br47  S    
C154  O42   S    
C208  O60   A    
C11   C123  S    
C101  Br45  S    
C145  N1    A    
C91   C107  A    
C99   Br43  S    
C171  C195  A    
C100  C144  A    
O50   Zn9   S    
C217  C233  A    
C169  C193  A    
C164  C188  A    
C168  C180  A    
C95   Br39  S    
C28   C44   A    
C29   C45   A    
C113  H9    S    
C31   C67   A    
C155  C169  A    
C18   C212  A    
C150  C168  A    
O9    Zn5   S    
C5    O13   A    
C128  O32   A    
C12   C230  A    
O56   Zn10  S    
C214  Br6   S    
C156  N6    A    
C148  O36   S    
C155  O43   S    
C32   Br24  S    
C174  C198  A    
C149  O37   S    
C63   C208  S    
C35   C51   A    
O49   Zn9   S    
C186  C199  A    
C172  C196  A    
C5    O9    A    
C161  C177  A    
O20   Zn4   S    
C20   C216  A    
C118  C136  A    
C175  C183  A    
O63   Zn12  S    
C206  O58   A    
C99   C143  A    
C106  C130  A    
C11   C231  A    
C46   C60   A    
C171  C181  A    
C147  C161  A    
O51   Zn9   S    
C10   C122  S    
C103  C143  A    
O21   Zn3   S    
C177  C184  A    
O30   Zn6   S    
C64   C205  S    
C15   C237  A    
C95   C139  A    
C14   C126  S    
C148  C162  A    
C48   H56   S    
C191  C194  A    
C80   C88   T    
C223  C239  A    
C90   Br34  S    
C189  C196  A    
C156  C170  A    
C19   C215  A    
C111  H7    S    
C46   H54   S    
O57   Zn11  S    
C40   Br32  S    
C47   C59   A    
C155  N5    A    
C113  C133  A    
C82   C138  S    
C39   C71   A    
C31   Br23  S    
C125  O25   A    
C232  H40   S    
C69   C77   S    
C71   C79   S    
C151  N3    A    
C4    C132  S    
C5    C133  S    
C40   C70   A    
C35   Br27  S    
C28   C68   A    
C185  H17   S    
C96   C138  A    
C187  H19   S    
C1    O5    A    
C227  H35   S    
C2    O2    A    
C207  O59   A    
C2    C130  S    
C117  H13   S    
C59   C204  S    
O16   Zn8   S    
C224  Br16  S    
C115  C135  A    
C55   C63   A    
C201  O49   A    
C29   Br21  S    
C36   C52   A    
C43   C59   A    
C127  O29   A    
C37   C53   A    
C77   C85   T    
C11   C229  A    
C126  O26   A    
C98   C142  A    
C210  C226  A    
C53   H61   S    
C211  Br3   S    
C51   H59   S    
C90   C138  A    
C146  O34   S    
C42   H50   S    
C38   C72   A    
O12   Zn8   S    
C187  C198  A    
C173  C197  A    
C26   C66   A    
C219  C235  A    
O14   Zn6   S    
C85   C141  S    
C145  C163  A    
C151  C165  A    
C146  C164  A    
C19   C213  A    
C20   C214  A    
C27   C43   A    
C167  C191  A    
C121  O17   A    
O13   Zn7   S    
C193  H25   S    
C114  C134  A    
C125  O27   A    
O15   Zn5   S    
C195  H27   S    
C224  C240  A    
C114  H10   S    
C175  C199  A    
O64   Zn12  S    
C190  C195  A    
C126  O28   A    
C186  H18   S    
C111  C131  A    
O7    Zn1   S    
C147  O35   S    
C226  H34   S    
C109  C129  A    
C98   Br42  S    
C29   C65   A    
C147  N1    A    
C146  N2    A    
C166  C180  A    
C152  O40   S    
C164  C178  A    
C26   C42   A    
C13   C233  A    
C91   Br35  S    
C30   C46   A    
C23   C223  A    
C152  C166  A    
C68   C76   S    
C98   C114  A    
C2    O8    A    
C17   N8    S    
C210  Br2   S    
C18   N7    S    
C72   C80   S    
O26   Zn6   S    
C19   N6    S    
O2    Zn2   S    
C54   C64   A    
C165  C179  A    
O18   Zn2   S    
C120  C134  A    
C36   Br28  S    
C6    O10   A    
C30   C68   A    
C162  C178  A    
C27   C67   A    
C35   C71   A    
C67   C75   S    
C16   C240  A    
C159  N7    A    
C21   C219  A    
C151  O39   S    
C89   C105  A    
C160  N8    A    
C15   C127  S    
C121  O19   A    
C112  C130  A    
C122  O20   A    
C36   C72   A    
C93   C109  A    
C124  O22   A    
C167  C179  A    
C8    C136  S    
C94   C140  A    
C92   Br36  S    
C100  C116  A    
C116  H12   S    
C76   C84   T    
C83   C139  S    
O8    Zn4   S    
C104  Br48  S    
C54   H62   S    
C81   C137  S    
C205  O63   A    
C89   Br33  S    
C209  C225  A    
C207  O61   A    
O6    Zn2   S    
C106  H2    S    
C17   C209  A    
O53   Zn10  S    
C99   C115  A    
O22   Zn2   S    
C33   C49   A    
C105  H1    S    
C149  N3    A    
C161  C185  A    
C230  H38   S    
C39   C55   A    
O5    Zn3   S    
C23   N2    S    
C40   C56   A    
C163  C177  A    
C165  C189  A    
C110  C132  A    
O62   Zn12  S    
C34   C70   A    
C178  C183  A    
C13   C235  A    
C179  C182  A    
C110  H6    S    
C222  Br14  S    
C108  H4    S    
C31   C47   A    
C94   Br38  S    
C32   C48   A    
C196  H28   S    
C47   H55   S    
C74   C82   T    
O19   Zn3   S    
C203  O51   A    
C49   C61   A    
O55   Zn10  S    
C235  H43   S    
C217  Br9   S    
C51   C63   A    
C90   C106  A    
O28   Zn8   S    
C39   Br31  S    
C170  C194  A    
C37   Br29  S    
C24   N1    S    
C94   C110  A    
C119  C135  A    
C223  Br15  S    
C202  O50   A    
C52   H60   S    
C204  O56   A    
C20   N5    S    
C156  O44   S    
C38   C54   A    
O10   Zn6   S    
C109  H5    S    
C9    C227  A    
C50   H58   S    
C122  O18   A    
C169  C181  A    
C44   H52   S    
C123  O23   A    
C91   C139  A    
C124  O24   A    
C189  H21   S    
C58   C203  S    
C89   C137  A    
C96   Br40  S    
C104  C142  A    
C41   H49   S    
C25   C41   A    
C214  C230  A    
C62   C207  S    
C25   Br17  S    
C180  C181  A    
C86   C142  S    
C32   C66   A    
C22   C220  A    
C220  Br12  S    
O60   Zn11  S    
C160  C174  A    
C229  H37   S    
C17   C211  A    
C119  H15   S    
O24   Zn4   S    
C8    O14   A    
C48   C58   A    
C116  C136  A    
C24   C222  A    
C4    O4    A    
C101  C117  A    
C41   C57   A    
C221  Br13  S    
C75   C83   T    
C188  C197  A    
C44   C60   A    
C150  O38   S    
C97   Br41  S    
C192  H24   S    
C212  C228  A    
C172  C182  A    
C60   C201  S    
C115  H11   S    
C173  C183  A    
C200  H32   S    
C221  C237  A    
C95   C111  A    
C33   Br25  S    
C236  H44   S    
C104  C120  A    
C66   C74   S    
O59   Zn11  S    
C26   Br18  S    
C52   C64   A    
C70   C78   S    
O25   Zn5   S    
C14   C236  A    
C3    O7    A    
C96   C112  A    
C201  O55   A    
C157  O45   S    
C154  N6    A    
C190  H22   S    
C203  O53   A    
C56   C62   A    
C7    O11   A    
C102  Br46  S    
C153  O41   S    
C208  O64   A    
C65   C73   S    
C163  C187  A    
C123  O21   A    
C150  N4    A    
O58   Zn11  S    
C101  C141  A    
C160  O48   S    
C198  H30   S    
C118  H14   S    
C56   H64   S    
C102  C118  A    
C231  H39   S    
C78   C86   T    
O54   Zn10  S    
C55   H63   S    
C211  C227  A    
C240  H48   S    
C10   C228  A    
C53   C61   A    
C212  Br4   S    
C239  H47   S    
C92   C108  A    
C12   C232  A    
C24   C224  A    
C4    O6    A    
C216  Br8   S    
C34   C50   A    
C108  C132  A    
C25   C65   A    
C218  C234  A    
C107  C131  A    
C219  Br11  S    
C162  C186  A    
C105  C129  A    
C206  O62   A    
C222  C238  A    
C197  H29   S    
C166  C190  A    
O11   Zn7   S    
C120  H16   S    
C7    C135  S    
C228  H36   S    
O52   Zn9   S    
C152  N4    A    
C12   C124  S    
C194  H26   S    
C97   C141  A    
C153  C171  A    
C154  C172  A    
C8    O12   A    
C16   C128  S    
C3    O3    A    
C93   Br37  S    
C157  C175  A    
C158  C176  A    
O4    Zn4   S    
C50   C62   A    
C213  Br5   S    
C97   C113  A    
C14   C234  A    
C153  N5    A    
C112  H8    S    
C174  C184  A    
C38   Br30  S    
C157  N7    A    
C202  O54   A    
C43   H51   S    
C199  H31   S    
C220  C236  A    
C103  C119  A    
C148  N2    A    
C30   Br22  S    
C204  O52   A    
C100  Br44  S    
C9    C225  A    
C21   N4    S    
C238  H46   S    
C22   N3    S    
C158  N8    A    
C102  C144  A    
C192  C193  A    
C27   Br19  S    
C6    C134  S    
O61   Zn12  S    
O3    Zn3   S    
C49   H57   S    
O27   Zn7   S    
C216  C232  A    
O17   Zn1   S    
C185  C200  A    
C22   C218  A    
C93   C137  A    
C218  Br10  S    
C16   C238  A    
C23   C221  A    
C1    O1    A    
C84   C140  S    
C159  C173  A    
C10   C226  A    
C215  C231  A    
C21   C217  A    
C87   C143  S    
C88   C144  S    
C170  C182  A    
C159  O47   S    
C92   C140  A    
