data_mof_unit_pretest_1672.cif
_audit_creation_date              2013-03-05T15:40:08-0500
_audit_creation_method            fapswitch 2.2
_symmetry_space_group_name_H-M    P1
_symmetry_Int_Tables_number       1
_space_group_crystal_system       triclinic
_cell_length_a                    30.243323
_cell_length_b                    31.28193
_cell_length_c                    21.837104
_cell_angle_alpha                 89.999988
_cell_angle_beta                  135.221973
_cell_angle_gamma                 90.000016
_cell_volume                      14551.7099892

loop_
_atom_site_label
_atom_site_type_symbol
_atom_site_description
_atom_site_fract_x
_atom_site_fract_y
_atom_site_fract_z
_atom_type_partial_charge
O1    O     O_R   0.679710 0.768740 0.859430 -0.569968
O2    O     O_R   0.320290 0.768740 0.140570 -0.569966
O3    O     O_R   0.179710 0.268740 0.859430 -0.569967
O4    O     O_R   0.820290 0.268740 0.140570 -0.569966
O5    O     O_R   0.731220 0.820270 0.962460 -0.532030
O6    O     O_R   0.268780 0.820270 0.037540 -0.532030
O7    O     O_R   0.231220 0.320270 0.962460 -0.532030
O8    O     O_R   0.768780 0.320270 0.037540 -0.532030
C1    C     C_R   0.687182 0.808263 0.882015 0.898482
C2    C     C_R   0.312819 0.808263 0.117985 0.898477
C3    C     C_R   0.187182 0.308263 0.882015 0.898481
C4    C     C_R   0.812819 0.308263 0.117985 0.898476
O9    O     O_R   0.659370 0.724200 0.948480 -0.595399
O10   O     O_R   0.340630 0.724200 0.051520 -0.595397
O11   O     O_R   0.159370 0.224200 0.948480 -0.595399
O12   O     O_R   0.840630 0.224200 0.051520 -0.595397
O13   O     O_R   0.710880 0.775730 0.051510 -0.567397
O14   O     O_R   0.289120 0.775730 0.948490 -0.567396
O15   O     O_R   0.210880 0.275730 0.051510 -0.567398
O16   O     O_R   0.789120 0.275730 0.948490 -0.567396
C5    C     C_R   0.664164 0.749639 0.999764 0.774157
C6    C     C_R   0.335836 0.749639 0.000236 0.774149
C7    C     C_R   0.164164 0.249639 0.999764 0.774156
C8    C     C_R   0.835836 0.249639 0.000236 0.774147
Cu1   Cu    Cu3+1 0.719490 0.719480 0.938970 1.124710
Cu2   Cu    Cu3+1 0.280510 0.719480 0.061030 1.124710
Cu3   Cu    Cu3+1 0.219490 0.219480 0.938970 1.124710
Cu4   Cu    Cu3+1 0.780510 0.219480 0.061030 1.124711
Cu5   Cu    Cu3+1 0.780480 0.780500 0.060980 1.140616
Cu6   Cu    Cu3+1 0.219520 0.780500 0.939020 1.140616
Cu7   Cu    Cu3+1 0.280480 0.280500 0.060980 1.140616
Cu8   Cu    Cu3+1 0.719520 0.280500 0.939020 1.140617
O17   O     O_R   0.768760 0.679710 0.037490 -0.535900
O18   O     O_R   0.231240 0.679710 0.962510 -0.535900
O19   O     O_R   0.268760 0.179710 0.037490 -0.535900
O20   O     O_R   0.731240 0.179710 0.962510 -0.535900
O21   O     O_R   0.820270 0.731240 0.140520 -0.575005
O22   O     O_R   0.179730 0.731240 0.859480 -0.575005
O23   O     O_R   0.320270 0.231240 0.140520 -0.575005
O24   O     O_R   0.679730 0.231240 0.859480 -0.575005
O25   O     O_R   0.789100 0.724240 0.948440 -0.533006
O26   O     O_R   0.210900 0.724240 0.051560 -0.533006
O27   O     O_R   0.289100 0.224240 0.948440 -0.533006
O28   O     O_R   0.710900 0.224240 0.051560 -0.533006
O29   O     O_R   0.840600 0.775770 0.051470 -0.552502
O30   O     O_R   0.159400 0.775770 0.948530 -0.552502
O31   O     O_R   0.340600 0.275770 0.051470 -0.552501
O32   O     O_R   0.659400 0.275770 0.948530 -0.552502
C9    C     C_R   0.810599 0.691551 0.118167 0.890214
C10   C     C_R   0.189401 0.691551 0.881832 0.890214
C11   C     C_R   0.310599 0.191551 0.118167 0.890215
C12   C     C_R   0.689401 0.191551 0.881832 0.890214
C13   C     C_R   0.835681 0.750335 0.000240 0.904397
C14   C     C_R   0.164319 0.750335 0.999760 0.904399
C15   C     C_R   0.335681 0.250335 0.000240 0.904398
C16   C     C_R   0.664319 0.250335 0.999760 0.904399
C17   C     C_R   0.405847 0.788067 0.997290 -0.087769
C18   C     C_R   0.594158 0.788066 0.002720 -0.087760
C19   C     C_R   0.905847 0.288067 0.997290 -0.087770
C20   C     C_R   0.094158 0.288067 0.002720 -0.087761
C21   C     C_R   0.384664 0.749316 0.001107 -0.078663
C22   C     C_R   0.615336 0.749316 0.998893 -0.078668
C23   C     C_R   0.884664 0.249316 0.001108 -0.078663
C24   C     C_R   0.115336 0.249316 0.998892 -0.078668
C25   C     C_R   0.409462 0.710493 0.004450 -0.216518
C26   C     C_R   0.590533 0.710493 0.995542 -0.216520
C27   C     C_R   0.909462 0.210493 0.004449 -0.216518
C28   C     C_R   0.090533 0.210493 0.995541 -0.216520
C29   C     C_R   0.454621 0.710213 0.002245 0.165873
C30   C     C_R   0.545374 0.710213 0.997746 0.165873
C31   C     C_R   0.954621 0.210213 0.002244 0.165874
C32   C     C_R   0.045373 0.210213 0.997746 0.165872
C33   C     C_R   0.476890 0.749375 0.000311 -0.011780
C34   C     C_R   0.523110 0.749375 0.999689 -0.011780
C35   C     C_R   0.976890 0.249375 0.000311 -0.011781
C36   C     C_R   0.023110 0.249375 0.999689 -0.011781
C37   C     C_R   0.452893 0.788521 0.998849 -0.142764
C38   C     C_R   0.547112 0.788520 0.001160 -0.142768
C39   C     C_R   0.952893 0.288521 0.998850 -0.142763
C40   C     C_R   0.047112 0.288521 0.001160 -0.142766
C41   C     C_R   0.477680 0.671520 0.001506 -0.180319
C42   C     C_R   0.522311 0.671520 0.998476 -0.180319
C43   C     C_R   0.977680 0.171520 0.001505 -0.180319
C44   C     C_R   0.022310 0.171520 0.998475 -0.180319
C45   C     C_R   0.523614 0.827306 0.001021 0.557675
C46   C     C_R   0.476395 0.827306 0.998997 0.557672
C47   C     C_R   0.023615 0.327306 0.001022 0.557672
C48   C     C_R   0.976395 0.327306 0.998998 0.557673
H1    H     H_    0.386259 0.817844 0.994520 0.239951
H2    H     H_    0.613749 0.817844 0.005496 0.239954
H3    H     H_    0.886260 0.317844 0.994521 0.239950
H4    H     H_    0.113749 0.317844 0.005497 0.239953
H5    H     H_    0.392354 0.680593 0.006431 0.151783
H6    H     H_    0.607638 0.680593 0.993554 0.151787
H7    H     H_    0.892353 0.180593 0.006430 0.151783
H8    H     H_    0.107637 0.180593 0.993553 0.151787
H9    H     H_    0.460854 0.641250 0.002642 0.159557
H10   H     H_    0.539133 0.641250 0.997333 0.159557
H11   H     H_    0.960854 0.141250 0.002641 0.159557
H12   H     H_    0.039132 0.141250 0.997332 0.159557
C49   C     C_2   0.592925 0.907970 0.746899 -0.305438
C50   C     C_2   0.407073 0.907971 0.253099 -0.305439
C51   C     C_2   0.092926 0.407970 0.746900 -0.305438
C52   C     C_2   0.907072 0.407971 0.253098 -0.305439
C53   C     C_2   0.601034 0.913010 0.694059 0.130163
C54   C     C_2   0.398966 0.913009 0.305942 0.130164
C55   C     C_2   0.101034 0.413010 0.694058 0.130164
C56   C     C_2   0.898967 0.413009 0.305943 0.130166
H13   H     H_    0.557493 0.926570 0.735971 0.191345
H14   H     H_    0.442502 0.926573 0.264024 0.191344
H15   H     H_    0.057495 0.426571 0.735973 0.191344
H16   H     H_    0.942501 0.426573 0.264022 0.191342
C57   C     C_2   0.631474 0.878386 0.821891 0.370905
C58   C     C_2   0.368523 0.878387 0.178107 0.370908
C59   C     C_2   0.131475 0.378386 0.821892 0.370907
C60   C     C_2   0.868522 0.378387 0.178106 0.370908
C61   C     C_2   0.645389 0.839458 0.812496 -0.316770
C62   C     C_2   0.354612 0.839458 0.187504 -0.316773
C63   C     C_2   0.145389 0.339458 0.812496 -0.316771
C64   C     C_2   0.854612 0.339458 0.187504 -0.316774
H17   H     H_    0.623454 0.829326 0.748386 0.174693
H18   H     H_    0.376549 0.829325 0.251615 0.174692
H19   H     H_    0.123453 0.329326 0.748386 0.174693
H20   H     H_    0.876551 0.329325 0.251615 0.174692
C65   C     C_R   0.133751 0.751226 0.079079 0.293233
C66   C     C_R   0.866249 0.751226 0.920921 0.293233
C67   C     C_R   0.633751 0.251226 0.079079 0.293232
C68   C     C_R   0.366249 0.251226 0.920921 0.293233
C69   C     C_R   0.115906 0.751264 0.999541 -0.277890
C70   C     C_R   0.884094 0.751264 0.000459 -0.277890
C71   C     C_R   0.615906 0.251264 0.999541 -0.277890
C72   C     C_R   0.384094 0.251264 0.000459 -0.277890
C73   C     C_R   0.052171 0.751725 0.919899 0.274523
C74   C     C_R   0.947829 0.751725 0.080100 0.274523
C75   C     C_R   0.552171 0.251725 0.919899 0.274523
C76   C     C_R   0.447829 0.251725 0.080100 0.274523
C77   C     C_R   0.005309 0.751765 0.919407 -0.107893
C78   C     C_R   0.994691 0.751765 0.080593 -0.107893
C79   C     C_R   0.505309 0.251765 0.919407 -0.107893
C80   C     C_R   0.494691 0.251765 0.080593 -0.107893
C81   C     C_R   0.023213 0.751523 0.999636 -0.047405
C82   C     C_R   0.976787 0.751523 0.000364 -0.047405
C83   C     C_R   0.523213 0.251523 0.999636 -0.047405
C84   C     C_R   0.476787 0.251523 0.000364 -0.047405
C85   C     C_R   0.087434 0.751301 0.079257 -0.059224
C86   C     C_R   0.912566 0.751301 0.920743 -0.059224
C87   C     C_R   0.587434 0.251301 0.079257 -0.059224
C88   C     C_R   0.412566 0.251301 0.920743 -0.059224
C89   C     C_R   0.940953 0.751532 0.840992 0.659785
C90   C     C_R   0.059047 0.751532 0.159008 0.659786
C91   C     C_R   0.440953 0.251532 0.840992 0.659786
C92   C     C_R   0.559047 0.251532 0.159008 0.659786
C93   C     C_R   0.895712 0.751700 0.842129 -0.176109
C94   C     C_R   0.104288 0.751700 0.157871 -0.176109
C95   C     C_R   0.395712 0.251700 0.842129 -0.176109
C96   C     C_R   0.604288 0.251700 0.157871 -0.176109
H21   H     H_    0.847045 0.752125 0.780141 0.227934
H22   H     H_    0.152955 0.752125 0.219859 0.227934
H23   H     H_    0.347045 0.252125 0.780141 0.227934
H24   H     H_    0.652955 0.252125 0.219859 0.227934
C97   C     C_2   0.905797 0.592398 0.252339 -0.190394
C98   C     C_2   0.094203 0.592398 0.747661 -0.190394
C99   C     C_2   0.405797 0.092398 0.252339 -0.190394
C100  C     C_2   0.594203 0.092398 0.747661 -0.190394
C101  C     C_2   0.902311 0.588681 0.309959 -0.387867
C102  C     C_2   0.097689 0.588681 0.690041 -0.387866
C103  C     C_2   0.402311 0.088681 0.309959 -0.387867
C104  C     C_2   0.597689 0.088681 0.690041 -0.387867
H25   H     H_    0.936245 0.571392 0.256053 0.208077
H26   H     H_    0.063755 0.571392 0.743947 0.208077
H27   H     H_    0.436244 0.071392 0.256053 0.208077
H28   H     H_    0.563756 0.071392 0.743947 0.208078
H29   H     H_    0.867259 0.606418 0.301188 0.162024
H30   H     H_    0.132741 0.606418 0.698812 0.162024
H31   H     H_    0.367259 0.106418 0.301188 0.162024
H32   H     H_    0.632741 0.106418 0.698812 0.162024
C105  C     C_2   0.865330 0.622564 0.178971 0.683293
C106  C     C_2   0.134670 0.622564 0.821029 0.683293
C107  C     C_2   0.365330 0.122564 0.178971 0.683293
C108  C     C_2   0.634670 0.122564 0.821029 0.683292
C109  C     C_2   0.848364 0.659942 0.187558 -0.396390
C110  C     C_2   0.151635 0.659942 0.812442 -0.396390
C111  C     C_2   0.348364 0.159942 0.187558 -0.396390
C112  C     C_2   0.651635 0.159942 0.812442 -0.396390
H33   H     H_    0.867223 0.669454 0.250263 0.125856
H34   H     H_    0.132777 0.669454 0.749737 0.125856
H35   H     H_    0.367223 0.169454 0.250263 0.125856
H36   H     H_    0.632777 0.169454 0.749737 0.125856
O33   O     O_R   0.006940 0.544490 0.589000 -0.576931
O34   O     O_R   0.993060 0.544490 0.411000 -0.576932
O35   O     O_R   0.506940 0.044490 0.589000 -0.576931
O36   O     O_R   0.493060 0.044490 0.411000 -0.576932
O37   O     O_R   0.082020 0.544510 0.588970 -0.577698
O38   O     O_R   0.917980 0.544510 0.411030 -0.577698
O39   O     O_R   0.582020 0.044510 0.588970 -0.577698
O40   O     O_R   0.417980 0.044510 0.411030 -0.577698
C113  C     C_R   0.060087 0.557813 0.619235 0.874221
C114  C     C_R   0.939913 0.557813 0.380765 0.874222
C115  C     C_R   0.560087 0.057813 0.619235 0.874222
C116  C     C_R   0.439913 0.057813 0.380765 0.874222
O41   O     O_R   0.506970 0.955460 0.589020 -0.592050
O42   O     O_R   0.493030 0.955460 0.410980 -0.592050
O43   O     O_R   0.006970 0.455460 0.589020 -0.592050
O44   O     O_R   0.993030 0.455460 0.410980 -0.592049
O45   O     O_R   0.582050 0.955480 0.588990 -0.529779
O46   O     O_R   0.417950 0.955480 0.411010 -0.529779
O47   O     O_R   0.082050 0.455480 0.588990 -0.529779
O48   O     O_R   0.917950 0.455480 0.411010 -0.529780
C117  C     C_R   0.560468 0.942192 0.619600 0.781430
C118  C     C_R   0.439532 0.942192 0.380401 0.781431
C119  C     C_R   0.060468 0.442192 0.619600 0.781431
C120  C     C_R   0.939532 0.442192 0.380401 0.781431
Cu9   Cu    Cu3+1 0.455530 0.999980 0.499990 1.071836
Cu10  Cu    Cu3+1 0.544470 0.999980 0.500010 1.071836
Cu11  Cu    Cu3+1 0.955530 0.499980 0.499990 1.071836
Cu12  Cu    Cu3+1 0.044470 0.499980 0.500010 1.071836
N1    N     N_R   0.035652 0.750897 0.839983 0.187843
O49   O     O_R   0.018491 0.785964 0.795796 -0.251041
O50   O     O_R   0.045146 0.716480 0.817177 -0.320034
N2    N     N_R   0.964348 0.750897 0.160018 0.187843
O51   O     O_R   0.981509 0.785964 0.204204 -0.251041
O52   O     O_R   0.954854 0.716480 0.182823 -0.320034
N3    N     N_R   0.535652 0.250897 0.839983 0.187842
O53   O     O_R   0.518490 0.285964 0.795796 -0.251041
O54   O     O_R   0.545145 0.216480 0.817177 -0.320033
N4    N     N_R   0.464348 0.250897 0.160018 0.187843
O55   O     O_R   0.481509 0.285964 0.204204 -0.251041
O56   O     O_R   0.454854 0.216480 0.182823 -0.320034
F1    F     F_    0.920519 0.750793 0.762053 -0.576929
F2    F     F_    0.079481 0.750793 0.237947 -0.576930
F3    F     F_    0.420519 0.250793 0.762053 -0.576930
F4    F     F_    0.579481 0.250793 0.237947 -0.576930
F5    F     F_    0.849463 0.613122 0.104555 -0.597526
F6    F     F_    0.150537 0.613122 0.895445 -0.597527
F7    F     F_    0.349463 0.113122 0.104555 -0.597526
F8    F     F_    0.650537 0.113122 0.895445 -0.597526
F9    F     F_    0.545915 0.865274 0.002011 -0.566685
F10   F     F_    0.454099 0.865274 0.998016 -0.566686
F11   F     F_    0.045916 0.365274 0.002012 -0.566685
F12   F     F_    0.954099 0.365274 0.998017 -0.566686
N5    N     N_R   0.654342 0.894713 0.715246 0.137204
O57   O     O_R   0.647562 0.878308 0.654224 -0.289274
O58   O     O_R   0.710645 0.899445 0.792760 -0.293557
N6    N     N_R   0.345661 0.894710 0.284760 0.137205
O59   O     O_R   0.352445 0.878305 0.345784 -0.289276
O60   O     O_R   0.289357 0.899441 0.207247 -0.293554
N7    N     N_R   0.154340 0.394712 0.715244 0.137204
O61   O     O_R   0.147559 0.378307 0.654221 -0.289275
O62   O     O_R   0.210644 0.399444 0.792757 -0.293556
N8    N     N_R   0.845663 0.394709 0.284762 0.137204
O63   O     O_R   0.852447 0.378303 0.345787 -0.289277
O64   O     O_R   0.789358 0.399440 0.207250 -0.293553
N9    N     N_R   0.648844 0.891099 0.899987 0.161600
O65   O     O_R   0.657480 0.931387 0.920643 -0.270849
O66   O     O_R   0.644129 0.864247 0.940587 -0.351319
N10   N     N_R   0.351149 0.891101 0.100009 0.161600
O67   O     O_R   0.342506 0.931389 0.079350 -0.270849
O68   O     O_R   0.355866 0.864251 0.059408 -0.351311
N11   N     N_R   0.148846 0.391099 0.899988 0.161599
O69   O     O_R   0.157485 0.431387 0.920646 -0.270849
O70   O     O_R   0.144130 0.364248 0.940588 -0.351316
N12   N     N_R   0.851147 0.391102 0.100008 0.161601
O71   O     O_R   0.842501 0.431390 0.079347 -0.270850
O72   O     O_R   0.855865 0.364253 0.059407 -0.351308
N13   N     N_R   0.199077 0.752444 0.159594 0.126674
O73   O     O_R   0.233257 0.785355 0.178507 -0.311608
O74   O     O_R   0.225354 0.719385 0.210921 -0.300375
N14   N     N_R   0.800922 0.752444 0.840406 0.126674
O75   O     O_R   0.766743 0.785355 0.821493 -0.311612
O76   O     O_R   0.774646 0.719385 0.789079 -0.300375
N15   N     N_R   0.699077 0.252444 0.159594 0.126674
O77   O     O_R   0.733257 0.285354 0.178507 -0.311607
O78   O     O_R   0.725354 0.219385 0.210921 -0.300374
N16   N     N_R   0.300922 0.252444 0.840406 0.126674
O79   O     O_R   0.266743 0.285355 0.821493 -0.311611
O80   O     O_R   0.274646 0.219385 0.789079 -0.300375

loop_
_geom_bond_atom_site_label_1
_geom_bond_atom_site_label_2
_geom_bond_distance
_ccdc_geom_bond_type
O12   Cu4   1.976599 S    
O23   C11   1.289398 A    
C47   C48   1.397049 A    
C73   C77   1.409636 A    
O40   Cu9   1.967714 S    
C104  C115  1.456063 S    
O21   C9    1.289398 A    
C49   C57   1.478836 S    
C33   C34   1.407525 A    
C82   C86   1.414644 A    
O15   C7    1.293294 A    
N3    O53   1.301079 A    
C52   C56   1.348391 D    
C84   C88   1.414644 A    
O15   Cu7   1.969215 S    
N2    O52   1.300984 A    
C41   C42   1.397520 A    
C66   C86   1.403547 A    
C10   C110  1.456473 S    
Cu9   Cu10  2.689533 S    
C78   C90   1.410288 A    
C75   C79   1.409636 A    
C64   H20   1.087185 S    
C111  H35   1.086305 S    
C100  C104  1.340212 D    
O43   C119  1.304646 A    
C28   H8    1.084528 S    
C17   H1    1.082320 S    
C34   C38   1.412211 A    
O39   C115  1.293195 A    
C50   C58   1.478833 S    
C24   C28   1.401785 A    
O43   Cu11  1.961027 S    
C58   C62   1.350804 D    
O35   C115  1.298664 A    
C94   H22   1.081827 S    
C40   C47   1.404999 A    
C71   C75   1.407516 A    
C25   C29   1.400379 A    
N9    O65   1.301060 A    
C74   N2    1.434607 S    
C72   C76   1.407516 A    
N8    O64   1.301790 A    
C27   C31   1.400379 A    
C55   C119  1.466384 S    
C66   C70   1.406149 A    
O17   C9    1.295107 A    
C83   C84   1.415447 A    
C48   F12   1.358423 S    
O47   Cu12  1.967188 S    
C53   C117  1.466382 S    
N6    O59   1.301200 A    
Cu6   O22   1.967782 S    
C55   N7    1.442874 S    
C51   H15   1.086626 S    
N5    O57   1.301200 A    
C110  H34   1.086305 S    
C11   C111  1.456473 S    
O36   Cu10  1.960538 S    
C105  C109  1.342445 D    
C61   H17   1.087185 S    
C46   F10   1.358422 S    
C39   C48   1.404999 A    
O39   Cu10  1.967714 S    
C89   C93   1.385962 A    
N16   O80   1.301062 A    
O33   Cu11  1.960537 S    
C56   C120  1.466381 S    
C52   C60   1.478835 S    
C79   C83   1.419803 A    
C99   C107  1.473598 S    
Cu2   O18   1.960977 S    
C91   F3    1.357039 S    
C92   C96   1.385965 A    
N6    O60   1.301790 A    
C45   C46   1.397049 A    
N10   O68   1.300559 A    
C30   C34   1.412975 A    
C103  C116  1.456063 S    
C29   C33   1.412979 A    
Cu5   O29   1.976623 S    
O14   Cu6   1.969215 S    
C88   C95   1.401699 A    
C91   C95   1.385962 A    
O4    C4    1.290207 A    
C99   H27   1.086400 S    
N13   O73   1.301115 A    
C80   C92   1.410288 A    
C107  C111  1.342446 D    
O30   C14   1.292450 A    
O20   C12   1.295107 A    
C76   C80   1.409636 A    
C26   H6    1.084529 S    
C67   N15   1.436863 S    
C97   H25   1.086405 S    
O11   C7    1.295365 A    
C25   H5    1.084531 S    
N15   O77   1.301115 A    
O29   C13   1.292451 A    
O12   C8    1.295365 A    
C98   C102  1.340212 D    
O47   C119  1.290349 A    
C65   N13   1.436863 S    
Cu8   O32   1.976623 S    
C66   N14   1.436863 S    
C70   C74   1.407516 A    
O16   C8    1.293294 A    
O42   C118  1.304646 A    
C68   C72   1.406149 A    
C108  F8    1.360585 S    
O41   C117  1.304648 A    
N2    O51   1.301078 A    
O4    Cu4   1.967784 S    
O16   Cu8   1.969215 S    
O7    C3    1.295884 A    
C31   C43   1.402713 A    
O3    Cu3   1.967784 S    
N7    O62   1.301789 A    
Cu1   Cu5   2.677247 S    
O11   Cu3   1.976599 S    
C23   C27   1.401784 A    
C102  H30   1.086304 S    
C49   C53   1.348392 D    
O7    Cu7   1.960983 S    
N4    O55   1.301078 A    
C22   C26   1.401785 A    
C95   H23   1.081827 S    
O8    Cu8   1.960983 S    
O1    C1    1.290206 A    
C17   C37   1.398932 A    
Cu4   Cu8   2.677249 S    
C47   F11   1.358425 S    
O38   C114  1.293195 A    
C107  F7    1.360583 S    
C3    C63   1.459573 S    
C78   C82   1.419803 A    
C68   N16   1.436863 S    
C19   C39   1.398930 A    
O40   C116  1.293195 A    
C106  F6    1.360583 S    
C109  H33   1.086303 S    
C68   C88   1.403547 A    
C105  F5    1.360585 S    
C4    C64   1.459576 S    
O6    C2    1.295884 A    
Cu3   O19   1.960977 S    
N8    O63   1.301201 A    
O24   C12   1.289398 A    
Cu3   Cu7   2.677249 S    
Cu4   O28   1.969489 S    
C73   N1    1.434605 S    
C112  H36   1.086303 S    
C56   N8    1.442872 S    
C28   C32   1.400382 A    
C43   H11   1.083567 S    
C44   H12   1.083568 S    
C52   H16   1.086625 S    
C51   C59   1.478835 S    
C35   C36   1.407525 A    
C62   H18   1.087187 S    
O5    C1    1.295884 A    
C2    C62   1.459575 S    
C21   C25   1.401784 A    
C79   C91   1.410288 A    
C18   H2    1.082317 S    
O46   C118  1.290349 A    
N9    O66   1.300557 A    
C43   C44   1.397520 A    
C98   H26   1.086404 S    
O45   C117  1.290348 A    
C99   C103  1.340214 D    
O8    C4    1.295884 A    
O25   C13   1.291567 A    
N10   O67   1.301063 A    
O44   C120  1.304647 A    
Cu1   O17   1.960977 S    
N3    O54   1.300986 A    
C77   C81   1.419803 A    
O9    C5    1.295365 A    
C32   C36   1.412978 A    
O2    Cu2   1.967784 S    
C32   C44   1.402712 A    
O42   Cu10  1.961027 S    
C87   C96   1.401697 A    
N13   O74   1.301064 A    
C57   N9    1.438942 S    
O41   Cu9   1.961027 S    
C5    C22   1.463307 S    
C106  C110  1.342446 D    
C18   C22   1.400943 A    
C29   C41   1.402711 A    
C57   C61   1.350806 D    
C85   C94   1.401697 A    
C38   C45   1.405001 A    
O27   C15   1.291567 A    
C7    C24   1.463307 S    
C77   C89   1.410288 A    
C27   H7    1.084530 S    
N14   O76   1.301064 A    
O45   Cu10  1.967188 S    
C83   C87   1.414644 A    
O48   Cu11  1.967187 S    
N4    O56   1.300986 A    
C81   C82   1.415447 A    
C65   C69   1.406149 A    
O19   C11   1.295107 A    
C42   H10   1.083569 S    
C9    C109  1.456473 S    
C100  H28   1.086401 S    
C50   H14   1.086625 S    
C36   C40   1.412212 A    
Cu1   O25   1.969492 S    
N11   O69   1.301061 A    
O2    C2    1.290207 A    
O5    Cu5   1.960985 S    
N15   O78   1.301061 A    
O38   Cu11  1.967714 S    
Cu8   O24   1.967782 S    
C58   N10   1.438942 S    
O34   C114  1.298662 A    
O37   Cu12  1.967714 S    
O31   C15   1.292451 A    
O10   Cu2   1.976599 S    
C19   H3    1.082319 S    
C59   N11   1.438941 S    
O33   C113  1.298664 A    
O32   C16   1.292450 A    
C14   C69   1.461086 S    
C76   N4    1.434607 S    
N16   O79   1.301114 A    
C20   C40   1.398929 A    
O35   Cu9   1.960537 S    
C69   C73   1.407516 A    
O6    Cu6   1.960983 S    
O14   C6    1.293292 A    
C19   C23   1.400940 A    
Cu6   O30   1.976623 S    
C12   C112  1.456473 S    
O46   Cu9   1.967187 S    
N11   O70   1.300560 A    
C54   C118  1.466382 S    
C100  C108  1.473597 S    
C37   C46   1.404997 A    
O18   C10   1.295107 A    
N12   O72   1.300557 A    
N7    O61   1.301201 A    
O1    Cu1   1.967784 S    
C60   N12   1.438941 S    
C17   C21   1.400938 A    
N12   O71   1.301062 A    
O22   C10   1.289398 A    
C96   H24   1.081827 S    
C63   H19   1.087185 S    
C74   C78   1.409636 A    
C8    C23   1.463304 S    
C75   N3    1.434605 S    
O44   Cu12  1.961027 S    
C59   C63   1.350806 D    
C101  H29   1.086305 S    
C90   F2    1.357039 S    
C20   C24   1.400940 A    
C51   C55   1.348389 D    
C89   F1    1.357040 S    
O10   C6    1.295365 A    
C80   C84   1.419803 A    
N1    O49   1.301081 A    
C102  C113  1.456063 S    
C65   C85   1.403547 A    
O13   Cu5   1.969215 S    
O26   C14   1.291567 A    
C6    C21   1.463307 S    
C31   C35   1.412979 A    
O28   C16   1.291567 A    
C26   C30   1.400379 A    
C86   C93   1.401699 A    
C35   C39   1.412213 A    
O9    Cu1   1.976599 S    
O34   Cu12  1.960538 S    
O37   C113  1.293195 A    
O48   C120  1.290348 A    
C81   C85   1.414644 A    
C41   H9    1.083568 S    
C54   N6    1.442875 S    
Cu7   O23   1.967782 S    
C50   C54   1.348393 D    
C103  H31   1.086305 S    
C45   F9    1.358422 S    
O36   C116  1.298662 A    
Cu2   O26   1.969489 S    
C93   H21   1.081827 S    
N1    O50   1.300983 A    
C30   C42   1.402712 A    
C97   C105  1.473596 S    
C67   C71   1.406149 A    
C98   C106  1.473598 S    
C16   C71   1.461086 S    
O3    C3    1.290206 A    
Cu3   O27   1.969492 S    
C18   C38   1.398930 A    
C60   C64   1.350802 D    
Cu11  Cu12  2.689533 S    
N14   O75   1.301114 A    
Cu4   O20   1.960977 S    
C15   C72   1.461083 S    
C90   C94   1.385965 A    
Cu5   O21   1.967780 S    
C33   C37   1.412212 A    
Cu7   O31   1.976623 S    
C13   C70   1.461083 S    
C104  H32   1.086304 S    
N5    O58   1.301789 A    
C101  C114  1.456063 S    
C20   H4    1.082320 S    
C49   H13   1.086623 S    
C53   N5    1.442875 S    
C97   C101  1.340212 D    
C1    C61   1.459572 S    
C108  C112  1.342445 D    
C67   C87   1.403547 A    
C92   F4    1.357039 S    
Cu2   Cu6   2.677249 S    
O13   C5    1.293294 A    
