data_mof_unit_pretest_1692.cif
_audit_creation_date              2012-12-10T16:40:37-0500
_audit_creation_method            fapswitch 2.2
_symmetry_space_group_name_H-M    P1
_symmetry_Int_Tables_number       1
_space_group_crystal_system       triclinic
_cell_length_a                    10.808896
_cell_length_b                    10.882293
_cell_length_c                    19.521698
_cell_angle_alpha                 97.242519
_cell_angle_beta                  92.113503
_cell_angle_gamma                 98.380714
_cell_volume                      2250.03072391

loop_
_atom_site_label
_atom_site_type_symbol
_atom_type_description
_atom_site_fract_x
_atom_site_fract_y
_atom_site_fract_z
_atom_type_partial_charge
C1    C     C_R   0.475435 0.162813 0.484380 0.847424
C2    C     C_2   0.493819 0.439818 0.015710 -0.233026
C3    C     C_2   0.482552 0.538801 0.982789 -0.190392
C4    C     C_R   0.524211 0.838932 0.515373 0.860817
C5    C     C_R   0.482370 0.521603 0.763550 -0.144601
C6    C     C_2   0.531985 0.975200 0.521442 -0.094399
C7    C     C_2   0.464857 0.028893 0.477029 -0.020278
C8    C     C_2   0.972341 0.536997 0.521961 0.481596
C9    C     C_2   0.030486 0.463205 0.478336 -0.449549
C10   C     C_R   0.164298 0.472576 0.484051 0.945963
C11   C     C_R   0.836855 0.526743 0.515563 0.755281
C12   C     C_R   0.497182 0.450858 0.091454 0.196458
C13   C     C_R   0.486677 0.514293 0.688357 0.860104
C14   C     C_R   0.512375 0.486146 0.311640 0.785005
C15   C     C_R   0.509879 0.475078 0.236051 0.000374
C16   C     C_R   0.434697 0.544756 0.201213 -0.204144
C17   C     C_R   0.427792 0.532253 0.129564 -0.160642
C18   C     C_R   0.570447 0.379220 0.125905 -0.172696
C19   C     C_R   0.577464 0.391727 0.197960 -0.198028
C20   C     C_R   0.427057 0.421510 0.864389 -0.143949
C21   C     C_R   0.427684 0.417028 0.792910 -0.272581
C22   C     C_R   0.533520 0.632251 0.806692 0.640718
C23   C     C_R   0.531458 0.636783 0.878130 -0.256327
C24   C     C_R   0.480669 0.531051 0.907314 0.104670
F1    F     F_    0.038313 0.621801 0.572369 -0.642742
F2    F     F_    0.584069 0.736446 0.780055 -0.644357
H1    H     H_    0.380113 0.608340 0.229221 0.167420
H2    H     H_    0.366964 0.585372 0.104129 0.136174
H3    H     H_    0.703520 0.032801 0.569519 0.206018
H4    H     H_    0.583746 0.026031 0.622924 0.218486
H5    H     H_    0.294033 0.980510 0.427113 0.182339
H6    H     H_    0.415295 0.987381 0.374833 0.172232
H7    H     H_    0.571373 0.722438 0.910810 0.163014
H8    H     H_    0.979943 0.395394 0.437516 0.124629
H9    H     H_    0.386966 0.331233 0.760651 0.194642
H10   H     H_    0.482701 0.630559 0.012160 0.151513
H11   H     H_    0.623538 0.315136 0.097081 0.136004
H12   H     H_    0.383653 0.339895 0.885876 0.155028
H13   H     H_    0.635054 0.335951 0.223722 0.163112
H14   H     H_    0.508286 0.351355 0.986955 0.156752
N1    N     N_3   0.612316 0.052166 0.575557 -0.465447
N2    N     N_3   0.384238 0.958227 0.421118 -0.418967
O1    O     O_3   0.500000 0.500000 0.500000 -0.509580
O2    O     O_R   0.410860 0.431690 0.648970 -0.645451
O3    O     O_R   0.578570 0.421470 0.344370 -0.649796
O4    O     O_R   0.567340 0.590030 0.662290 -0.577093
O5    O     O_R   0.443230 0.556810 0.344370 -0.652144
O6    O     O_R   0.229880 0.548640 0.449830 -0.632394
O7    O     O_R   0.775840 0.445670 0.468570 -0.674475
O8    O     O_R   0.404020 0.217050 0.524780 -0.639822
O9    O     O_R   0.590260 0.788640 0.556820 -0.638616
O10   O     O_R   0.555650 0.222860 0.449830 -0.645875
O11   O     O_R   0.450070 0.771450 0.468560 -0.610040
O12   O     O_R   0.213590 0.407490 0.524780 -0.626232
O13   O     O_R   0.780700 0.598200 0.556830 -0.591358
Zn1   Zn    Zn3+2 0.407400 0.592620 0.441700 0.990371
Zn2   Zn    Zn3+2 0.384130 0.390950 0.548790 1.001067
Zn3   Zn    Zn3+2 0.607710 0.617180 0.567810 1.052740
Zn4   Zn    Zn3+2 0.600760 0.399250 0.441700 0.955048

loop_
_geom_bond_atom_site_label_1
_geom_bond_atom_site_label_2
_ccdc_geom_bond_type
C12   C17   A    
C23   C24   A    
H4    N1    S    
C6    C7    D    
C21   H9    S    
O10   Zn4   S    
C4    O11   A    
C20   H12   S    
C9    C10   S    
C5    C13   S    
C1    O8    A    
O7    Zn4   S    
O1    Zn4   S    
O2    Zn2   S    
C2    C12   S    
O11   Zn1   S    
C16   H1    S    
C14   C15   S    
C2    C3    D    
C11   O13   A    
O9    Zn3   S    
O4    Zn3   S    
C15   C19   A    
C8    F1    S    
O8    Zn2   S    
C3    C24   S    
C14   O5    A    
C19   H13   S    
C3    H10   S    
C8    C11   S    
C11   O7    A    
H5    N2    S    
C18   H11   S    
C14   O3    A    
C22   C23   A    
C10   O6    A    
C9    H8    S    
C10   O12   A    
C1    O10   A    
O13   Zn3   S    
C16   C17   A    
O1    Zn2   S    
C4    O9    A    
C15   C16   A    
C2    H14   S    
O1    Zn1   S    
C5    C21   A    
C20   C21   A    
C4    C6    S    
C18   C19   A    
C22   F2    S    
C7    N2    S    
C12   C18   A    
O6    Zn1   S    
H6    N2    S    
C13   O4    A    
C8    C9    D    
O1    Zn3   S    
H3    N1    S    
C1    C7    S    
C17   H2    S    
O12   Zn2   S    
C13   O2    A    
O3    Zn4   S    
C5    C22   A    
C20   C24   A    
O5    Zn1   S    
C23   H7    S    
C6    N1    S    
