data_mof_unit_pretest_822.cif
_audit_creation_date              2012-12-11T15:52:30-0500
_audit_creation_method            fapswitch 2.2
_symmetry_space_group_name_H-M    P1
_symmetry_Int_Tables_number       1
_space_group_crystal_system       triclinic
_cell_length_a                    6.926883
_cell_length_b                    14.551999
_cell_length_c                    16.018844
_cell_angle_alpha                 90.265188
_cell_angle_beta                  90.10109
_cell_angle_gamma                 89.916594
_cell_volume                      1614.67788688

loop_
_atom_site_label
_atom_site_type_symbol
_atom_type_description
_atom_site_fract_x
_atom_site_fract_y
_atom_site_fract_z
_atom_type_partial_charge
O1    O     O_R   0.494400 0.415640 0.412830 -0.545376
O2    O     O_R   0.823920 0.405510 0.586560 -0.518476
O3    O     O_R   0.994250 0.584360 0.587170 -0.528119
C1    C     C_R   0.655430 0.381482 0.614076 0.730205
O4    O     O_R   0.824110 0.404610 0.413450 -0.542240
O5    O     O_R   0.994440 0.583460 0.412820 -0.539334
C2    C     C_R   0.655020 0.382137 0.384372 0.684359
O6    O     O_R   0.494210 0.416540 0.587180 -0.537514
O7    O     O_3   0.660810 0.558680 0.500000 -0.358070
V1    V     V_3+5 0.935650 0.489110 0.500000 1.505527
O8    O     O_R   0.324150 0.594490 0.413440 -0.546920
C3    C     C_R   0.154951 0.616720 0.384417 0.689158
O9    O     O_R   0.323970 0.595390 0.586550 -0.543979
C4    C     C_R   0.154402 0.619269 0.614270 0.699397
V2    V     V_3+5 0.435660 0.510890 0.500000 1.469084
O10   O     O_3   0.160630 0.441320 0.500000 -0.351776
C5    C     C_3   0.929812 0.726886 0.695697 0.142677
H1    H     H_    0.832714 0.667921 0.709243 0.094774
C6    C     C_3   0.917985 0.794998 0.770187 -0.329365
H2    H     H_    0.818847 0.766423 0.818131 0.119286
H3    H     H_    0.854986 0.861661 0.749980 0.176488
H4    H     H_    0.241527 0.806020 0.606583 0.190004
H5    H     H_    0.197486 0.911846 0.712549 0.165158
C7    C     C_3   0.275274 0.774054 0.667778 -0.272903
C8    C     C_3   0.205895 0.646657 0.767884 -0.395769
C9    C     C_3   0.141247 0.690495 0.684071 0.045399
H6    H     H_    0.355091 0.618877 0.762014 0.147370
H7    H     H_    0.109939 0.587808 0.783087 0.129385
C10   C     C_3   0.120627 0.811756 0.809223 0.064430
C11   C     C_3   0.255774 0.846714 0.738660 -0.309629
C12   C     C_3   0.199674 0.718129 0.840229 -0.329381
H8    H     H_    0.107047 0.691714 0.891456 0.127746
H9    H     H_    0.347529 0.727337 0.866226 0.146730
H10   H     H_    0.427776 0.750375 0.664685 0.180854
H11   H     H_    0.401769 0.862069 0.764224 0.151983
C13   C     C_R   0.953232 0.774298 0.216097 -0.152356
H12   H     H_    0.812378 0.792886 0.192061 0.116264
C14   C     C_R   0.964115 0.711171 0.281716 -0.129815
H13   H     H_    0.831171 0.682934 0.306023 0.120243
C15   C     C_R   0.143777 0.684780 0.315289 -0.041387
C16   C     C_R   0.312231 0.723406 0.281396 -0.145986
H14   H     H_    0.453082 0.704832 0.305448 0.121655
C17   C     C_R   0.301346 0.786541 0.215784 -0.147066
H15   H     H_    0.434289 0.814803 0.191503 0.120110
C18   C     C_R   0.121698 0.812850 0.182139 -0.050497
C19   C     C_R   0.798689 0.247587 0.696079 0.263486
C20   C     C_R   0.785379 0.184929 0.761886 -0.166268
H16   H     H_    0.903185 0.137168 0.772002 0.150560
C21   C     C_R   0.620992 0.181495 0.812853 -0.101606
C22   C     C_R   0.468103 0.242293 0.796781 -0.133330
H17   H     H_    0.339114 0.241209 0.834883 0.131202
C23   C     C_R   0.481454 0.306591 0.732342 -0.151263
H18   H     H_    0.362243 0.353713 0.723021 0.148799
C24   C     C_R   0.646516 0.310959 0.681231 -0.106927
C25   C     C_R   0.812182 0.273988 0.281465 -0.140887
H19   H     H_    0.953040 0.292469 0.305602 0.120811
C26   C     C_R   0.801130 0.210138 0.215908 -0.146146
H20   H     H_    0.934025 0.181263 0.191752 0.120265
C27   C     C_R   0.621425 0.183880 0.182172 -0.048608
C28   C     C_R   0.453076 0.223244 0.215971 -0.151565
H21   H     H_    0.312219 0.204746 0.191846 0.116653
C29   C     C_R   0.464128 0.287100 0.281528 -0.139914
H22   H     H_    0.331239 0.315968 0.305698 0.119167
C30   C     C_R   0.643844 0.313401 0.315222 -0.042080
O11   O     O_R   0.771300 0.080930 0.910090 -0.541212
O12   O     O_R   0.441270 0.092800 0.083770 -0.543832
O13   O     O_R   0.271080 0.913920 0.084380 -0.540256
C31   C     C_R   0.610317 0.115239 0.112932 0.689981
O14   O     O_R   0.441580 0.091910 0.910670 -0.541207
O15   O     O_R   0.271390 0.913020 0.910040 -0.540295
C32   C     C_R   0.610291 0.113916 0.881768 0.705241
O16   O     O_R   0.770990 0.081830 0.084440 -0.540129
O17   O     O_3   0.604750 0.938760 0.997250 -0.371562
V3    V     V_3+5 0.329850 0.008280 0.997210 1.403578
O18   O     O_R   0.941680 0.901940 0.910610 -0.544990
C33   C     C_R   0.110384 0.880717 0.880784 0.670627
O19   O     O_R   0.941370 0.902830 0.083720 -0.543260
C34   C     C_R   0.110552 0.880743 0.112860 0.689770
V4    V     V_3+5 0.829860 0.986420 0.997150 1.398159
O20   O     O_3   0.104830 0.056030 0.997180 -0.368249
Br1   Br    Br    0.827978 0.784686 0.594488 -0.595417
Br2   Br    Br    0.024288 0.236979 0.626829 -0.551623

loop_
_geom_bond_atom_site_label_1
_geom_bond_atom_site_label_2
_ccdc_geom_bond_type
C8    C12   S    
O12   C31   A    
C25   H19   S    
O11   V4    S    
C16   H14   S    
C6    H2    S    
C1    O6    A    
C20   C21   A    
C10   C33   S    
O19   C34   A    
C8    H7    S    
C29   H22   S    
C11   H11   S    
C5    C9    S    
C13   H12   S    
C6    H3    S    
C7    C9    S    
O16   V4    S    
O5    C3    A    
C14   H13   S    
C26   C27   A    
V2    O10   S    
O12   V3    S    
C28   C29   A    
O17   V3    S    
O14   C32   A    
C29   C30   A    
C19   Br2   S    
O8    V2    S    
C12   H8    S    
O15   V3    S    
C22   C23   A    
C12   H9    S    
C18   C34   S    
O1    V2    S    
O7    V1    S    
C27   C28   A    
V3    O20   S    
O9    C4    A    
C16   C17   A    
O13   C34   A    
C23   C24   A    
C22   H17   S    
O19   V4    S    
H5    C11   S    
O14   V3    S    
O4    C2    A    
C8    C9    S    
O11   C32   A    
C7    H10   S    
C28   H21   S    
C3    C15   S    
O2    C1    A    
O18   C33   A    
C10   C11   S    
C27   C31   S    
C20   H16   S    
C31   O16   A    
C25   C30   A    
C19   C24   A    
C5    H1    S    
O17   V4    S    
C13   C18   A    
O13   V3    S    
C4    C9    S    
C17   C18   A    
O3    C4    A    
C15   C16   A    
O6    V2    S    
O9    V2    S    
C17   H15   S    
O15   C33   A    
H4    C7    S    
C6    C10   S    
C23   H18   S    
C19   C20   A    
C1    C24   S    
O1    C2    A    
O5    V1    S    
O8    C3    A    
C8    H6    S    
C25   C26   A    
O7    V2    S    
O4    V1    S    
C10   C12   S    
O3    V1    S    
V1    O10   S    
C14   C15   A    
C26   H20   S    
C13   C14   A    
C5    C6    S    
C5    Br1   S    
C7    C11   S    
C2    C30   S    
V4    O20   S    
C21   C22   A    
C21   C32   S    
O18   V4    S    
O2    V1    S    
