data_mof_unit_pretest_922.cif
_audit_creation_date              2013-03-05T15:56:27-0500
_audit_creation_method            fapswitch 2.2
_symmetry_space_group_name_H-M    P1
_symmetry_Int_Tables_number       1
_space_group_crystal_system       triclinic
_cell_length_a                    6.928961
_cell_length_b                    14.544879
_cell_length_c                    16.017662
_cell_angle_alpha                 90.246663
_cell_angle_beta                  90.105254
_cell_angle_gamma                 89.92712
_cell_volume                      1614.25540891

loop_
_atom_site_label
_atom_site_type_symbol
_atom_site_description
_atom_site_fract_x
_atom_site_fract_y
_atom_site_fract_z
_atom_type_partial_charge
O1    O     O_R   0.494400 0.415640 0.412830 -0.597905
O2    O     O_R   0.823920 0.405510 0.586560 -0.557349
O3    O     O_R   0.994250 0.584360 0.587170 -0.598359
C1    C     C_R   0.655521 0.382229 0.614672 0.961329
O4    O     O_R   0.824110 0.404610 0.413450 -0.596205
O5    O     O_R   0.994440 0.583460 0.412820 -0.602798
C2    C     C_R   0.655014 0.382139 0.384380 0.925598
O6    O     O_R   0.494210 0.416540 0.587180 -0.571336
O7    O     O_3   0.660810 0.558680 0.500000 -0.291456
V1    V     V_3+5 0.935650 0.489110 0.500000 1.200083
O8    O     O_R   0.324150 0.594490 0.413440 -0.603636
C3    C     C_R   0.154973 0.616640 0.384362 0.903863
O9    O     O_R   0.323970 0.595390 0.586550 -0.603696
C4    C     C_R   0.155179 0.617724 0.615557 0.857492
V2    V     V_3+5 0.435660 0.510890 0.500000 1.168993
O10   O     O_3   0.160630 0.441320 0.500000 -0.228400
C5    C     C_3   0.047364 0.645092 0.764440 -0.346513
H1    H     H_    0.899518 0.620899 0.748356 0.148658
H2    H     H_    0.131083 0.584039 0.785406 0.132145
C6    C     C_3   0.034641 0.716283 0.836923 -0.363211
H3    H     H_    0.112266 0.689317 0.892565 0.132714
H4    H     H_    0.880853 0.725846 0.854956 0.153123
H5    H     H_    0.876573 0.751969 0.641522 0.156733
H6    H     H_    0.857952 0.856609 0.748350 0.152972
C7    C     C_3   0.024937 0.773247 0.659965 -0.349008
C8    C     C_3   0.348977 0.721384 0.712512 -0.352108
C9    C     C_3   0.144666 0.687722 0.686310 0.113677
H7    H     H_    0.422808 0.753427 0.658276 0.155311
H8    H     H_    0.438792 0.661968 0.732756 0.145906
C10   C     C_3   0.123056 0.809775 0.810690 0.109616
C11   C     C_3   0.012234 0.844374 0.732507 -0.345536
C12   C     C_3   0.336513 0.792092 0.784545 -0.332819
H9    H     H_    0.420699 0.766140 0.838840 0.150460
H10   H     H_    0.404660 0.857607 0.764390 0.153556
H11   H     H_    0.092273 0.805984 0.604544 0.144562
H12   H     H_    0.073395 0.911184 0.711785 0.154160
C13   C     C_R   0.953328 0.773916 0.215780 -0.141020
H13   H     H_    0.812538 0.792326 0.191594 0.120287
C14   C     C_R   0.964225 0.710744 0.281385 -0.137713
H14   H     H_    0.831350 0.682282 0.305535 0.121993
C15   C     C_R   0.143813 0.684617 0.315156 -0.120569
C16   C     C_R   0.312195 0.723449 0.281413 -0.141899
H15   H     H_    0.452985 0.705038 0.305599 0.120420
C17   C     C_R   0.301297 0.786624 0.215810 -0.135714
H16   H     H_    0.434172 0.815088 0.191661 0.123799
C18   C     C_R   0.121710 0.812745 0.182035 -0.126514
C19   C     C_R   0.790516 0.243621 0.692064 0.389736
C20   C     C_R   0.776632 0.179798 0.757213 -0.239572
H17   H     H_    0.887462 0.127582 0.763358 0.150893
C21   C     C_R   0.620866 0.181742 0.813071 -0.179434
C22   C     C_R   0.476952 0.248687 0.802560 -0.123919
H18   H     H_    0.355192 0.251909 0.844786 0.126224
C23   C     C_R   0.490967 0.313698 0.738637 -0.080087
H19   H     H_    0.379912 0.365857 0.733636 0.149534
C24   C     C_R   0.647065 0.312487 0.682504 -0.311158
C25   C     C_R   0.812122 0.273962 0.281504 -0.123213
H20   H     H_    0.952935 0.292420 0.305673 0.124861
C26   C     C_R   0.801080 0.210110 0.215940 -0.135272
H21   H     H_    0.933932 0.181211 0.191813 0.124860
C27   C     C_R   0.621435 0.183881 0.182165 -0.127069
C28   C     C_R   0.453138 0.223275 0.215925 -0.141497
H22   H     H_    0.312327 0.204800 0.191766 0.120937
C29   C     C_R   0.464181 0.287134 0.281488 -0.123048
H23   H     H_    0.331334 0.316027 0.305627 0.125177
C30   C     C_R   0.643836 0.313404 0.315224 -0.123739
O11   O     O_R   0.771300 0.080930 0.910090 -0.594400
O12   O     O_R   0.441270 0.092800 0.083770 -0.600161
O13   O     O_R   0.271080 0.913920 0.084380 -0.595451
C31   C     C_R   0.610324 0.115236 0.112924 0.919284
O14   O     O_R   0.441580 0.091910 0.910670 -0.596093
O15   O     O_R   0.271390 0.913020 0.910040 -0.594553
C32   C     C_R   0.610279 0.113922 0.881791 0.947884
O16   O     O_R   0.770990 0.081830 0.084440 -0.595885
O17   O     O_3   0.604750 0.938760 0.997250 -0.278607
V3    V     V_3+5 0.329850 0.008280 0.997210 1.147605
O18   O     O_R   0.941680 0.901940 0.910610 -0.598230
C33   C     C_R   0.110915 0.879700 0.881541 0.860115
O19   O     O_R   0.941370 0.902830 0.083720 -0.598582
C34   C     C_R   0.110548 0.880716 0.112822 0.918569
V4    V     V_3+5 0.829860 0.986420 0.997150 1.143447
O20   O     O_3   0.104830 0.056030 0.997180 -0.269530
N1    N     N_R   0.946599 0.234445 0.634268 0.228645
O21   O     O_R   0.958658 0.160868 0.588126 -0.408843
O22   O     O_R   0.096763 0.287346 0.641764 -0.403120

loop_
_geom_bond_atom_site_label_1
_geom_bond_atom_site_label_2
_geom_bond_distance
_ccdc_geom_bond_type
C7    C11   1.554971 S    
O15   V3    2.004010 S    
C29   C30   1.408741 A    
C8    C12   1.544778 S    
C15   C16   1.406755 A    
C1    O6    1.300352 A    
C14   C15   1.408378 A    
C6    C10   1.552087 S    
C23   H19   1.083005 S    
O13   V3    2.004747 S    
C8    C9    1.554913 S    
C3    C15   1.490408 S    
O5    C3    1.297328 A    
C18   C34   1.490416 S    
O19   V4    2.001538 S    
C26   C27   1.408755 A    
C25   C30   1.406573 A    
C5    C6    1.554894 S    
C25   H20   1.082727 S    
C19   N1    1.430629 S    
C28   C29   1.401032 A    
C21   C32   1.483203 S    
C10   C33   1.523013 S    
O8    V2    2.001517 S    
O11   C32   1.295839 A    
C31   O16   1.296980 A    
O1    V2    2.004627 S    
C4    C9    1.521973 S    
O7    V1    2.155362 S    
O13   C34   1.297365 A    
C20   C21   1.403357 A    
O17   V4    1.707694 S    
O9    C4    1.299606 A    
C16   C17   1.400745 A    
C17   C18   1.408380 A    
C21   C22   1.403254 A    
C23   C24   1.407822 A    
O17   V3    2.155390 S    
C22   H18   1.083127 S    
C5    C9    1.554347 S    
O18   C33   1.302395 A    
C14   H14   1.082744 S    
O4    C2    1.301569 A    
O19   C34   1.301230 A    
V3    O20   1.706036 S    
C26   H21   1.082739 S    
C27   C28   1.406604 A    
O12   C31   1.301657 A    
C12   H10   1.113363 S    
O2    C1    1.297363 A    
C13   H13   1.082713 S    
C2    C30   1.490928 S    
C19   C20   1.403182 A    
C5    H1    1.113011 S    
O3    C4    1.297394 A    
C7    H11   1.112731 S    
C20   H17   1.084021 S    
C6    H4    1.112961 S    
O6    V2    2.002698 S    
N1    O22   1.299943 A    
O9    V2    2.004551 S    
C1    C24   1.490919 S    
O12   V3    2.003357 S    
C16   H15   1.082714 S    
O2    V1    2.005264 S    
O15   C33   1.295082 A    
C17   H16   1.082743 S    
C19   C24   1.418781 A    
O1    C2    1.296989 A    
O18   V4    2.004608 S    
V4    O20   2.158702 S    
O5    V1    2.004789 S    
O8    C3    1.301212 A    
C7    C9    1.553816 S    
O11   V4    2.002973 S    
C8    H7    1.113248 S    
C12   H9    1.113337 S    
O7    V2    1.708712 S    
H6    C11   1.113093 S    
O4    V1    2.003391 S    
C13   C14   1.400743 A    
O3    V1    2.004105 S    
V1    O10   1.706019 S    
C10   C12   1.558671 S    
C10   C11   1.553089 S    
C27   C31   1.491027 S    
C5    H2    1.112833 S    
O16   V4    2.007746 S    
C25   C26   1.400978 A    
H5    C7    1.112997 S    
C28   H22   1.082719 S    
C29   H23   1.082748 S    
C6    H3    1.112736 S    
C8    H8    1.113372 S    
N1    O21   1.300633 A    
O14   V3    2.005308 S    
C11   H12   1.112830 S    
O14   C32   1.298862 A    
C22   C23   1.400308 A    
C13   C18   1.406756 A    
V2    O10   2.158798 S    
