data_mof_unit_pretest_1708.cif
_audit_creation_date              2012-12-10T17:21:04-0500
_audit_creation_method            fapswitch 2.2
_symmetry_space_group_name_H-M    P1
_symmetry_Int_Tables_number       1
_space_group_crystal_system       triclinic
_cell_length_a                    38.717988
_cell_length_b                    21.704391
_cell_length_c                    21.696882
_cell_angle_alpha                 90.000341
_cell_angle_beta                  55.704549
_cell_angle_gamma                 90.00005
_cell_volume                      15063.051372

loop_
_atom_site_label
_atom_site_type_symbol
_atom_type_description
_atom_site_fract_x
_atom_site_fract_y
_atom_site_fract_z
_atom_type_partial_charge
C1    C     C_R   0.999968 0.500010 0.381297 0.818947
C2    C     C_R   0.000032 0.500011 0.618703 0.818928
C3    C     C_R   0.499968 0.000010 0.381297 0.818951
C4    C     C_R   0.500032 0.000011 0.618704 0.818895
C5    C     C_3   0.708631 0.500356 0.790975 0.107519
C6    C     C_3   0.291369 0.500355 0.209024 0.107515
C7    C     C_3   0.208631 0.000356 0.790975 0.107518
C8    C     C_3   0.791369 0.000353 0.209020 0.107517
C9    C     C_3   0.764165 0.469477 0.784822 -0.218645
C10   C     C_3   0.235836 0.469427 0.215206 -0.218639
C11   C     C_3   0.264164 0.969460 0.784812 -0.218641
C12   C     C_3   0.735836 0.969303 0.215277 -0.218626
C13   C     C_3   0.736555 0.527840 0.813407 0.046185
C14   C     C_3   0.263444 0.527789 0.186566 0.046190
C15   C     C_3   0.236555 0.027822 0.813417 0.046183
C16   C     C_3   0.763444 0.027663 0.186496 0.046176
C17   C     C_1   0.837310 0.499986 0.661819 0.025211
C18   C     C_1   0.162690 0.499984 0.338181 0.025218
C19   C     C_1   0.337310 0.999986 0.661819 0.025215
C20   C     C_1   0.662690 0.999981 0.338180 0.025223
C21   C     C_1   0.662746 0.500170 0.836787 0.030685
C22   C     C_1   0.337254 0.500170 0.163212 0.030690
C23   C     C_1   0.162746 0.000170 0.836787 0.030687
C24   C     C_1   0.837255 0.000170 0.163210 0.030687
C25   C     C_R   0.031717 0.470615 0.250791 -0.256895
C26   C     C_R   0.968290 0.470598 0.749202 -0.256893
C27   C     C_R   0.531714 0.970607 0.250794 -0.256887
C28   C     C_R   0.468307 0.970558 0.749187 -0.256882
C29   C     C_R   0.032194 0.471351 0.186317 -0.172405
C30   C     C_R   0.967814 0.471334 0.813676 -0.172426
C31   C     C_R   0.532190 0.971343 0.186320 -0.172380
C32   C     C_R   0.467829 0.971296 0.813662 -0.172432
C33   C     C_R   0.999660 0.499905 0.186632 -0.095795
C34   C     C_R   0.000340 0.499906 0.813369 -0.095768
C35   C     C_R   0.499660 0.999904 0.186632 -0.095802
C36   C     C_R   0.500339 0.999907 0.813371 -0.095736
C37   C     C_R   0.966856 0.528425 0.251561 -0.252049
C38   C     C_R   0.033136 0.528446 0.748449 -0.252047
C39   C     C_R   0.466859 0.028433 0.251557 -0.252057
C40   C     C_R   0.533118 0.028490 0.748468 -0.252049
C41   C     C_R   0.966495 0.528547 0.316231 0.494451
C42   C     C_R   0.033497 0.528569 0.683779 0.494456
C43   C     C_R   0.466498 0.028555 0.316227 0.494454
C44   C     C_R   0.533479 0.028615 0.683799 0.494466
C45   C     C_R   0.919868 0.500011 0.580032 0.811105
C46   C     C_R   0.080132 0.500011 0.419967 0.811087
C47   C     C_R   0.419868 0.000011 0.580032 0.811107
C48   C     C_R   0.580132 0.000011 0.419967 0.811055
C49   C     C_R   0.999373 0.499940 0.315210 -0.100783
C50   C     C_R   0.000626 0.499941 0.684791 -0.100789
C51   C     C_R   0.499373 0.999940 0.315210 -0.100801
C52   C     C_R   0.500626 0.999943 0.684792 -0.100821
C53   C     C_R   0.500000 0.380936 1.000000 0.774383
C54   C     C_R   1.000000 0.880936 1.000000 0.774382
C55   C     C_R   0.580157 0.499974 0.919778 0.813941
C56   C     C_R   0.419843 0.499974 0.080222 0.813933
C57   C     C_R   0.080157 0.999974 0.919778 0.813936
C58   C     C_R   0.919843 0.999974 0.080222 0.813918
C59   C     C_R   0.500000 0.618919 0.000000 0.843401
C60   C     C_R   1.000000 0.118918 0.000000 0.843380
C61   C     C_R   0.000000 0.380984 1.000000 0.894150
C62   C     C_R   0.500000 0.880984 0.999999 0.894185
C63   C     C_R   0.999911 0.499933 0.119335 0.819846
C64   C     C_R   0.000089 0.499933 0.880665 0.819848
C65   C     C_R   0.499911 0.999933 0.119335 0.819864
C66   C     C_R   0.500089 0.999934 0.880666 0.819861
C67   C     C_R   1.000000 0.618994 1.000000 0.781286
C68   C     C_R   0.500000 0.118994 1.000000 0.781276
C69   C     C_R   0.473352 0.281986 0.066688 -0.163917
C70   C     C_R   0.526648 0.281985 0.933311 -0.163911
C71   C     C_R   0.973351 0.781986 0.066688 -0.163919
C72   C     C_R   0.026648 0.781985 0.933311 -0.163912
C73   C     C_R   0.972832 0.717917 0.066441 -0.164909
C74   C     C_R   0.027168 0.717916 0.933558 -0.164900
C75   C     C_R   0.472832 0.217917 0.066441 -0.164902
C76   C     C_R   0.527168 0.217916 0.933558 -0.164899
C77   C     C_R   1.000000 0.685845 1.000000 -0.012459
C78   C     C_R   0.500000 0.185845 1.000000 -0.012460
C79   C     C_3   0.735904 0.530736 0.713397 -0.225190
C80   C     C_3   0.264096 0.530783 0.286573 -0.225182
C81   C     C_3   0.235904 0.030753 0.713408 -0.225184
C82   C     C_3   0.764096 0.030901 0.286495 -0.225163
C83   C     C_R   0.500000 0.314068 1.000000 -0.012126
C84   C     C_R   1.000000 0.814068 1.000000 -0.012119
C85   C     C_R   0.516126 0.718183 0.034441 -0.246729
C86   C     C_R   0.483874 0.718182 0.965560 -0.246749
C87   C     C_R   0.016141 0.218183 0.034415 -0.246738
C88   C     C_R   0.983859 0.218182 0.965586 -0.246769
C89   C     C_R   0.015852 0.282409 0.035270 0.437113
C90   C     C_R   0.984149 0.282408 0.964730 0.437115
C91   C     C_R   0.515836 0.782410 0.035297 0.437104
C92   C     C_R   0.484165 0.782409 0.964702 0.437112
C93   C     C_R   0.000000 0.314356 0.000000 -0.221645
C94   C     C_R   0.500000 0.814356 0.999999 -0.221627
C95   C     C_R   0.500000 0.686015 0.000001 -0.167244
C96   C     C_R   0.000000 0.186014 0.000000 -0.167231
C97   C     C_3   0.764296 0.558575 0.736028 -0.222131
C98   C     C_3   0.235703 0.558572 0.263916 -0.222142
C99   C     C_3   0.264296 0.058574 0.736049 -0.222134
C100  C     C_3   0.735703 0.058565 0.263771 -0.222155
C101  C     C_1   0.875001 0.500024 0.624511 -0.138722
C102  C     C_1   0.124999 0.500023 0.375489 -0.138738
C103  C     C_1   0.375001 0.000024 0.624511 -0.138724
C104  C     C_1   0.624999 0.000022 0.375488 -0.138769
C105  C     C_1   0.625044 0.500058 0.874626 -0.127854
C106  C     C_1   0.374956 0.500058 0.125374 -0.127855
C107  C     C_1   0.125044 0.000058 0.874626 -0.127852
C108  C     C_1   0.874957 0.000059 0.125373 -0.127854
C109  C     C_3   0.763530 0.472370 0.684799 0.049207
C110  C     C_3   0.236471 0.472417 0.315226 0.049216
C111  C     C_3   0.263530 0.972387 0.684790 0.049207
C112  C     C_3   0.736472 0.972536 0.315289 0.049216
C113  C     C_3   0.791439 0.499854 0.707260 0.108210
C114  C     C_3   0.208562 0.499852 0.292740 0.108209
C115  C     C_3   0.291438 0.999853 0.707260 0.108210
C116  C     C_3   0.708562 0.999847 0.292738 0.108216
C117  C     C_3   0.735780 0.441633 0.762185 -0.219368
C118  C     C_3   0.264221 0.441633 0.237869 -0.219375
C119  C     C_3   0.235780 0.941633 0.762165 -0.219371
C120  C     C_3   0.764222 0.941634 0.238006 -0.219386
Cu1   Cu    Cu3+1 0.000000 0.438200 0.500000 0.974221
Cu2   Cu    Cu3+1 0.500000 0.938200 0.500000 0.974207
Cu3   Cu    Cu3+1 0.000000 0.561810 0.500000 1.032424
Cu4   Cu    Cu3+1 0.500000 0.061810 0.500000 1.032425
Cu5   Cu    Cu3+1 0.500010 0.499870 0.938220 0.985764
Cu6   Cu    Cu3+1 0.499990 0.499870 0.061780 0.985759
Cu7   Cu    Cu3+1 0.000010 0.999870 0.938220 0.985779
Cu8   Cu    Cu3+1 0.999990 0.999870 0.061780 0.985771
Cu9   Cu    Cu3+1 0.041440 0.499890 0.958590 0.987249
Cu10  Cu    Cu3+1 0.958560 0.499890 0.041410 0.987224
Cu11  Cu    Cu3+1 0.541440 0.999890 0.958590 0.987260
Cu12  Cu    Cu3+1 0.458560 0.999890 0.041410 0.987234
H1    H     H_    0.776202 0.606603 0.725469 0.164230
H2    H     H_    0.223796 0.606597 0.274430 0.164226
H3    H     H_    0.276202 0.106601 0.725506 0.164228
H4    H     H_    0.723796 0.106586 0.274170 0.164221
H5    H     H_    0.452537 0.306515 0.118440 0.146132
H6    H     H_    0.547463 0.306514 0.881560 0.146135
H7    H     H_    0.952536 0.806515 0.118439 0.146124
H8    H     H_    0.047463 0.806514 0.881560 0.146133
H9    H     H_    0.951845 0.693378 0.118106 0.143820
H10   H     H_    0.048154 0.693376 0.881894 0.143826
H11   H     H_    0.451846 0.193378 0.118106 0.143825
H12   H     H_    0.548154 0.193376 0.881893 0.143824
H13   H     H_    0.529153 0.693656 0.060372 0.182733
H14   H     H_    0.470847 0.693654 0.939629 0.182729
H15   H     H_    0.029180 0.193654 0.060325 0.182726
H16   H     H_    0.970820 0.193654 0.939676 0.182721
H17   H     H_    0.724111 0.555574 0.684040 0.161899
H18   H     H_    0.275890 0.555660 0.315905 0.161905
H19   H     H_    0.224111 0.055605 0.684060 0.161903
H20   H     H_    0.775888 0.055879 0.315768 0.161911
H21   H     H_    0.775960 0.444639 0.814175 0.161462
H22   H     H_    0.224040 0.444550 0.185877 0.161467
H23   H     H_    0.275960 0.944608 0.814157 0.161466
H24   H     H_    0.724041 0.944324 0.186008 0.161471
H25   H     H_    0.723884 0.393601 0.772727 0.160509
H26   H     H_    0.276119 0.393603 0.227372 0.160505
H27   H     H_    0.223884 0.893602 0.772691 0.160507
H28   H     H_    0.776120 0.893608 0.227625 0.160494
H29   H     H_    0.056918 0.448174 0.250158 0.162290
H30   H     H_    0.943096 0.448142 0.749828 0.162295
H31   H     H_    0.556912 0.948160 0.250163 0.162306
H32   H     H_    0.443126 0.948070 0.749800 0.162323
H33   H     H_    0.057612 0.448918 0.136562 0.179480
H34   H     H_    0.942401 0.448887 0.863425 0.179471
H35   H     H_    0.557606 0.948904 0.136567 0.179498
H36   H     H_    0.442430 0.948818 0.863399 0.179483
H37   H     H_    0.941855 0.551261 0.251919 0.164445
H38   H     H_    0.058131 0.551297 0.748098 0.164435
H39   H     H_    0.441860 0.051275 0.251912 0.164444
H40   H     H_    0.558100 0.051372 0.748132 0.164408
O1    O     O_R   0.000010 0.447810 0.409820 -0.597919
O2    O     O_R   0.999990 0.447810 0.590180 -0.597919
O3    O     O_R   0.500010 0.947810 0.409820 -0.597918
O4    O     O_R   0.499990 0.947810 0.590180 -0.597916
O5    O     O_R   0.034990 0.499890 0.055220 -0.573005
O6    O     O_R   0.965010 0.499890 0.944780 -0.573006
O7    O     O_R   0.534990 0.999890 0.055220 -0.573002
O8    O     O_R   0.465010 0.999890 0.944780 -0.572997
O9    O     O_R   0.965000 0.499930 0.125200 -0.600472
O10   O     O_R   0.035000 0.499930 0.874800 -0.600463
O11   O     O_R   0.465000 0.999930 0.125200 -0.600471
O12   O     O_R   0.535000 0.999930 0.874800 -0.600459
O13   O     O_R   0.035030 0.590070 0.965060 -0.585849
O14   O     O_R   0.964970 0.590070 0.034940 -0.585852
O15   O     O_R   0.535030 0.090070 0.965060 -0.585849
O16   O     O_R   0.464970 0.090070 0.034940 -0.585849
O17   O     O_R   0.000010 0.552200 0.409870 -0.548664
O18   O     O_R   0.999990 0.552200 0.590130 -0.548646
O19   O     O_R   0.500010 0.052200 0.409870 -0.548659
O20   O     O_R   0.499990 0.052200 0.590130 -0.548609
O21   O     O_R   0.939540 0.447810 0.560460 -0.580018
O22   O     O_R   0.060460 0.447810 0.439540 -0.580020
O23   O     O_R   0.439540 0.947810 0.560460 -0.580020
O24   O     O_R   0.560460 0.947810 0.439540 -0.580028
O25   O     O_R   0.939550 0.552200 0.560510 -0.569422
O26   O     O_R   0.060450 0.552200 0.439490 -0.569427
O27   O     O_R   0.439550 0.052200 0.560510 -0.569422
O28   O     O_R   0.560450 0.052200 0.439490 -0.569435
O29   O     O_R   0.500010 0.409700 0.947870 -0.582746
O30   O     O_R   0.499990 0.409700 0.052130 -0.582750
O31   O     O_R   0.000010 0.909700 0.947870 -0.582742
O32   O     O_R   0.999990 0.909700 0.052130 -0.582749
O33   O     O_R   0.560470 0.499890 0.887380 -0.583079
O34   O     O_R   0.439530 0.499890 0.112620 -0.583077
O35   O     O_R   0.060470 0.999890 0.887380 -0.583077
O36   O     O_R   0.939530 0.999890 0.112620 -0.583075
O37   O     O_R   0.560460 0.499990 0.991770 -0.564783
O38   O     O_R   0.439540 0.499990 0.008230 -0.564773
O39   O     O_R   0.060460 0.999990 0.991770 -0.564780
O40   O     O_R   0.939540 0.999990 0.008230 -0.564756
O41   O     O_R   0.500010 0.590060 0.947790 -0.587990
O42   O     O_R   0.499990 0.590060 0.052210 -0.587988
O43   O     O_R   0.000010 0.090060 0.947790 -0.587988
O44   O     O_R   0.999990 0.090060 0.052210 -0.587983
O45   O     O_R   0.034970 0.409720 0.965020 -0.570731
O46   O     O_R   0.965030 0.409720 0.034980 -0.570741
O47   O     O_R   0.534970 0.909720 0.965020 -0.570749
O48   O     O_R   0.465030 0.909720 0.034980 -0.570767
O49   O     O_3   0.935019 0.558915 0.379234 -0.578387
C121  C     C_3   0.901185 0.517986 0.420805 -0.280034
H41   H     H_    0.910486 0.476515 0.438383 0.161438
H42   H     H_    0.887778 0.504140 0.389014 0.161145
H43   H     H_    0.876225 0.541826 0.472207 0.214050
O50   O     O_3   0.064963 0.558957 0.620786 -0.578377
C122  C     C_3   0.098809 0.518050 0.579202 -0.279993
H44   H     H_    0.089520 0.476572 0.561612 0.161429
H45   H     H_    0.112221 0.504213 0.610988 0.161144
H46   H     H_    0.123762 0.541905 0.527806 0.214059
O51   O     O_3   0.435026 0.058930 0.379227 -0.578383
C123  C     C_3   0.401187 0.018010 0.420801 -0.280017
H47   H     H_    0.410483 0.976535 0.438384 0.161434
H48   H     H_    0.387778 0.004169 0.389011 0.161144
H49   H     H_    0.376229 0.041856 0.472201 0.214054
O52   O     O_3   0.564926 0.059047 0.620826 -0.578361
C124  C     C_3   0.598797 0.018185 0.579213 -0.279909
H50   H     H_    0.589533 0.976696 0.561597 0.161418
H51   H     H_    0.612218 0.004364 0.610989 0.161127
H52   H     H_    0.623734 0.042075 0.527833 0.214094
O53   O     O_3   0.032709 0.313909 0.067819 -0.566236
C125  C     C_3   0.001929 0.318439 0.145060 -0.315871
H53   H     H_    0.991482 0.272188 0.171539 0.166930
H54   H     H_    0.974713 0.346076 0.156340 0.155220
H55   H     H_    0.015628 0.342469 0.171593 0.195395
O54   O     O_3   0.967291 0.313908 0.932182 -0.566248
C126  C     C_3   0.998067 0.318427 0.854940 -0.315878
H56   H     H_    0.008511 0.272172 0.828469 0.166932
H57   H     H_    0.025286 0.346063 0.843649 0.155234
H58   H     H_    0.984367 0.342452 0.828407 0.195389
O55   O     O_3   0.532678 0.813911 0.067870 -0.566252
C127  C     C_3   0.501886 0.818440 0.145104 -0.315899
H59   H     H_    0.491437 0.772189 0.171582 0.166935
H60   H     H_    0.474672 0.846074 0.156364 0.155241
H61   H     H_    0.515572 0.842473 0.171656 0.195403
O56   O     O_3   0.467326 0.813909 0.932122 -0.566272
C128  C     C_3   0.498118 0.818419 0.854885 -0.315924
H62   H     H_    0.508563 0.772161 0.828423 0.166938
H63   H     H_    0.525333 0.846052 0.843615 0.155268
H64   H     H_    0.484432 0.842442 0.828326 0.195387
C129  C     C_2   0.722440 0.559430 0.885349 0.839665
O57   O     O_2   0.748454 0.579078 0.895453 -0.581964
O58   O     O_R   0.679815 0.566326 0.940389 -0.759031
H65   H     H_    0.674338 0.588410 0.986270 0.341422
C130  C     C_2   0.277558 0.559324 0.114596 0.839664
O59   O     O_2   0.251544 0.578936 0.104473 -0.581970
O60   O     O_R   0.320183 0.566209 0.059550 -0.759028
H66   H     H_    0.325660 0.588254 0.013649 0.341422
C131  C     C_2   0.222440 0.059393 0.885370 0.839668
O61   O     O_2   0.248454 0.079028 0.895481 -0.581963
O62   O     O_R   0.179815 0.066285 0.940412 -0.759027
H67   H     H_    0.174338 0.088355 0.986300 0.341423
C132  C     C_2   0.777558 0.059058 0.114448 0.839665
O63   O     O_2   0.751544 0.078579 0.104276 -0.581979
O64   O     O_R   0.820183 0.065917 0.059384 -0.759008
H68   H     H_    0.825659 0.087861 0.013429 0.341421
C133  C     C_2   0.777727 0.440820 0.612796 0.833018
O65   O     O_2   0.751773 0.421516 0.602357 -0.583904
O66   O     O_R   0.820365 0.433545 0.558098 -0.788751
H69   H     H_    0.825929 0.411744 0.512004 0.330334
C134  C     C_2   0.222275 0.440920 0.387255 0.833023
O67   O     O_2   0.248230 0.421658 0.397714 -0.583900
O68   O     O_R   0.179638 0.433647 0.441955 -0.788770
H70   H     H_    0.174075 0.411882 0.488068 0.330324
C135  C     C_2   0.277727 0.940856 0.612777 0.833020
O69   O     O_2   0.251773 0.921566 0.602331 -0.583901
O70   O     O_R   0.320365 0.933583 0.558077 -0.788758
H71   H     H_    0.325928 0.911795 0.511976 0.330328
C136  C     C_2   0.722279 0.941175 0.387392 0.833036
O71   O     O_2   0.748235 0.922018 0.397903 -0.583893
O72   O     O_R   0.679642 0.933902 0.442099 -0.788820
H72   H     H_    0.674082 0.912235 0.488263 0.330292

loop_
_geom_bond_atom_site_label_1
_geom_bond_atom_site_label_2
_ccdc_geom_bond_type
Cu9   O13   S    
Cu3   O26   S    
O72   H72   S    
C40   H40   S    
C10   H22   S    
C110  C134  S    
Cu6   O30   S    
C55   C105  S    
C47   O23   A    
C60   O43   A    
C61   O45   A    
C26   C50   A    
C36   C66   S    
C98   C114  S    
O62   H67   S    
C29   C33   A    
C9    C13   S    
C39   H39   S    
Cu5   O41   S    
Cu1   O1    S    
C12   C16   S    
C68   O15   A    
C125  H54   S    
C46   O22   A    
C11   C115  S    
C40   C44   A    
C5    C13   S    
C79   H17   S    
C7    C15   S    
C8    C16   S    
Cu12  O16   S    
C41   C49   A    
C25   C29   A    
C125  H55   S    
C79   C109  S    
C27   C31   A    
C7    C119  S    
C28   C32   A    
C112  C120  S    
C91   O55   S    
C81   C99   S    
C53   O29   A    
C55   O37   A    
Cu11  O12   S    
C6    C80   S    
C122  H44   S    
C23   C107  T    
C123  H48   S    
C88   H16   S    
C56   C106  S    
C72   C84   A    
C75   H11   S    
C76   H12   S    
C31   H35   S    
C70   H6    S    
C131  O62   S    
C118  H26   S    
Cu1   O22   S    
C90   C93   A    
C20   C116  S    
C126  H58   S    
C79   C97   S    
C2    O18   A    
C39   C43   A    
C59   O41   A    
C62   O47   A    
C44   O52   S    
Cu10  O9    S    
C91   C94   A    
Cu7   O43   S    
Cu2   O4    S    
Cu5   O33   S    
C43   O51   S    
C13   C97   S    
Cu1   Cu3   S    
C46   O26   A    
C86   C95   A    
C5    C21   S    
C135  O70   S    
C120  H28   S    
C73   C77   A    
Cu8   O36   S    
Cu4   O19   S    
C67   O13   A    
C127  H59   S    
Cu11  O15   S    
C57   O39   A    
C63   O9    A    
C72   C74   A    
C67   C77   S    
C97   H1    S    
C17   C113  S    
Cu4   O27   S    
C1    O1    A    
C10   C118  S    
C32   C36   A    
C76   C78   A    
Cu12  O11   S    
C37   H37   S    
C129  O57   D    
C45   O25   A    
C54   O31   A    
O52   C124  S    
C111  C119  S    
O53   C125  S    
C18   C102  T    
Cu10  O46   S    
Cu7   O35   S    
C2    C50   S    
C27   H31   S    
C25   H29   S    
C74   C77   A    
C5    C79   S    
Cu10  O6    S    
C110  C114  S    
C11   H23   S    
C64   O10   A    
C44   C52   A    
C9    H21   S    
C133  O65   D    
C87   C96   A    
C112  C136  S    
C47   O27   A    
C11   C15   S    
C12   H24   S    
C27   C51   A    
C14   C98   S    
C42   O50   S    
C30   C34   A    
C10   C14   S    
C16   C100  S    
C121  H43   S    
C81   H19   S    
Cu12  O48   S    
O49   C121  S    
C6    C14   S    
C58   O36   A    
C33   C63   S    
C128  H62   S    
C34   C64   S    
C136  O71   D    
Cu3   O18   S    
C121  H42   S    
C130  O60   S    
C42   C50   A    
C127  H61   S    
C119  H27   S    
C7    C81   S    
Cu8   O44   S    
C26   C30   A    
Cu2   Cu4   S    
C112  C116  S    
Cu9   Cu10  S    
O54   C126  S    
C122  H45   S    
Cu3   O25   S    
Cu6   O37   S    
C109  C133  S    
O60   H66   S    
C134  O68   S    
C128  H64   S    
C9    C113  S    
C133  O66   S    
C60   O44   A    
C85   C95   A    
C7    C23   S    
C132  O64   S    
C37   C41   A    
C21   C105  T    
Cu7   O40   S    
C72   H8    S    
C56   O34   A    
C68   O16   A    
O50   C122  S    
C124  H52   S    
O68   H70   S    
C100  H4    S    
C12   C116  S    
C1    O17   A    
Cu9   O10   S    
C88   C96   A    
C4    O20   A    
O64   H68   S    
C100  C116  S    
Cu2   O23   S    
C54   C84   S    
C109  C117  S    
O58   H65   S    
C73   H9    S    
C28   H32   S    
C87   H15   S    
C48   O28   A    
C8    C82   S    
C15   C131  S    
C99   C115  S    
C61   C93   S    
C35   C65   S    
C6    C22   S    
Cu8   O32   S    
C29   H33   S    
Cu9   O45   S    
Cu6   O42   S    
O66   H69   S    
C24   C108  T    
C10   C114  S    
C14   C130  S    
C131  O61   D    
C45   O21   A    
C86   H14   S    
Cu1   O21   S    
C38   H38   S    
C126  H57   S    
C68   C78   S    
C55   O33   A    
C47   C103  S    
C61   O46   A    
O55   C127  S    
C15   C99   S    
C3    C51   S    
C65   O7    A    
Cu9   O5    S    
C26   H30   S    
C33   C37   A    
C62   O48   A    
C35   C39   A    
C56   O38   A    
C135  O69   D    
C64   O6    A    
Cu1   O2    S    
C126  H56   S    
C125  H53   S    
C99   H3    S    
C70   C83   A    
C45   C101  S    
C92   O56   S    
C3    O3    A    
C88   C90   A    
C62   C94   S    
Cu5   Cu6   S    
C31   C35   A    
Cu7   Cu8   S    
Cu4   O20   S    
C127  H60   S    
C57   O35   A    
C80   C98   S    
C85   H13   S    
C58   O40   A    
Cu4   O28   S    
C53   O30   A    
C53   C83   S    
Cu8   O39   S    
C43   C51   A    
C66   O8    A    
Cu6   O34   S    
C54   O32   A    
C90   O54   S    
C123  H47   S    
C69   C75   A    
C58   C108  S    
C25   C49   A    
C2    O2    A    
C80   C110  S    
C4    O4    A    
C87   C89   A    
Cu7   O31   S    
C41   O49   S    
C82   C112  S    
C9    C117  S    
Cu12  O8    S    
C11   C119  S    
C18   C114  S    
C85   C91   A    
C59   O42   A    
C80   H18   S    
C46   C102  S    
C4    C52   S    
C38   C42   A    
Cu2   O3    S    
C48   C104  S    
Cu11  O47   S    
C17   C101  T    
C8    C24   S    
C12   C120  S    
C19   C103  T    
O70   H71   S    
Cu3   O17   S    
C130  O59   D    
C67   O14   A    
C109  C113  S    
C74   H10   S    
C48   O24   A    
C89   C93   A    
C82   H20   S    
C59   C95   S    
C92   C94   A    
C69   H5    S    
C117  H25   S    
C81   C111  S    
C36   C40   A    
C30   H34   S    
C129  O58   S    
Cu11  O7    S    
C71   H7    S    
C134  O67   D    
C22   C106  T    
C123  H49   S    
C5    C117  S    
C128  H63   S    
C69   C83   A    
C3    O19   A    
C19   C115  S    
O56   C128  S    
C132  O63   D    
C111  C135  S    
C110  C118  S    
C57   C107  S    
C124  H51   S    
C70   C76   A    
C89   O53   S    
C97   C113  S    
C60   C96   S    
C8    C120  S    
C71   C84   A    
C65   O11   A    
C66   O12   A    
C34   C38   A    
C82   C100  S    
Cu2   O24   S    
C16   C132  S    
Cu5   O38   S    
Cu10  O14   S    
C20   C104  T    
C98   H2    S    
C63   O5    A    
C32   H36   S    
C86   C92   A    
Cu5   O29   S    
C28   C52   A    
C13   C129  S    
C136  O72   S    
C121  H41   S    
C75   C78   A    
C122  H46   S    
C71   C73   A    
O51   C123  S    
C111  C115  S    
C124  H50   S    
C1    C49   S    
C6    C118  S    
Cu11  Cu12  S    
