data_mof_unit_pretest_1657.cif
_audit_creation_date              2013-03-05T16:26:19-0500
_audit_creation_method            fapswitch 2.2
_symmetry_space_group_name_H-M    P1
_symmetry_Int_Tables_number       1
_space_group_crystal_system       triclinic
_cell_length_a                    30.56589
_cell_length_b                    30.644754
_cell_length_c                    22.198285
_cell_angle_alpha                 90.063158
_cell_angle_beta                  46.270349
_cell_angle_gamma                 89.988952
_cell_volume                      15025.0400882

loop_
_atom_site_label
_atom_site_type_symbol
_atom_site_description
_atom_site_fract_x
_atom_site_fract_y
_atom_site_fract_z
_atom_type_partial_charge
O1    O     O_R   0.178350 0.230070 0.500010 -0.617812
O2    O     O_R   0.821650 0.230070 0.499990 -0.609739
O3    O     O_R   0.678350 0.730070 0.500010 -0.617835
O4    O     O_R   0.321650 0.730070 0.499990 -0.609761
O5    O     O_R   0.230030 0.178320 0.500020 -0.626483
O6    O     O_R   0.769970 0.178320 0.499980 -0.618356
O7    O     O_R   0.730030 0.678320 0.500020 -0.626492
O8    O     O_R   0.269970 0.678320 0.499980 -0.618356
C1    C     C_R   0.189661 0.189934 0.500606 0.876867
C2    C     C_R   0.810106 0.190052 0.500068 0.876457
C3    C     C_R   0.689662 0.689934 0.500604 0.877067
C4    C     C_R   0.310110 0.690051 0.500061 0.876331
O9    O     O_R   0.285150 0.275890 0.378020 -0.613534
O10   O     O_R   0.714850 0.275890 0.621980 -0.612798
O11   O     O_R   0.785150 0.775890 0.378020 -0.613691
O12   O     O_R   0.214850 0.775890 0.621980 -0.612594
O13   O     O_R   0.336840 0.224130 0.378040 -0.616222
O14   O     O_R   0.663160 0.224130 0.621960 -0.616972
O15   O     O_R   0.836840 0.724130 0.378040 -0.616386
O16   O     O_R   0.163160 0.724130 0.621960 -0.616825
C5    C     C_R   0.330608 0.249946 0.338895 0.904261
C6    C     C_R   0.669401 0.250005 0.661099 0.900058
C7    C     C_R   0.830608 0.749946 0.338895 0.904531
C8    C     C_R   0.169401 0.750005 0.661098 0.899838
Zn1   Zn    Zn3+2 0.215490 0.284560 0.500000 0.974342
Zn2   Zn    Zn3+2 0.784510 0.284560 0.500000 0.981088
Zn3   Zn    Zn3+2 0.715490 0.784560 0.500000 0.974141
Zn4   Zn    Zn3+2 0.284510 0.784560 0.500000 0.981349
Zn5   Zn    Zn3+2 0.284510 0.215440 0.500020 0.967385
Zn6   Zn    Zn3+2 0.715490 0.215440 0.499980 0.974789
Zn7   Zn    Zn3+2 0.784510 0.715440 0.500020 0.967101
Zn8   Zn    Zn3+2 0.215490 0.715440 0.499980 0.974996
O17   O     O_R   0.269970 0.321680 0.499990 -0.619821
O18   O     O_R   0.730030 0.321680 0.500010 -0.622043
O19   O     O_R   0.769970 0.821680 0.499990 -0.619801
O20   O     O_R   0.230030 0.821680 0.500010 -0.622012
O21   O     O_R   0.321650 0.269930 0.500010 -0.623664
O22   O     O_R   0.678350 0.269930 0.499990 -0.623489
O23   O     O_R   0.821650 0.769930 0.500010 -0.623700
O24   O     O_R   0.178350 0.769930 0.499990 -0.623482
O25   O     O_R   0.163160 0.275870 0.621980 -0.614199
O26   O     O_R   0.836840 0.275870 0.378020 -0.615273
O27   O     O_R   0.663160 0.775870 0.621980 -0.614264
O28   O     O_R   0.336840 0.775870 0.378020 -0.615208
O29   O     O_R   0.214850 0.224110 0.621990 -0.615525
O30   O     O_R   0.785150 0.224110 0.378010 -0.612808
O31   O     O_R   0.714850 0.724110 0.621990 -0.615644
O32   O     O_R   0.285150 0.724110 0.378010 -0.612737
C9    C     C_R   0.310137 0.309911 0.499823 0.879648
C10   C     C_R   0.690072 0.309909 0.499777 0.877102
C11   C     C_R   0.810137 0.809911 0.499822 0.879833
C12   C     C_R   0.190072 0.809909 0.499778 0.876951
C13   C     C_R   0.169398 0.250061 0.661119 0.902338
C14   C     C_R   0.830622 0.249972 0.338888 0.900948
C15   C     C_R   0.669398 0.750060 0.661119 0.902465
C16   C     C_R   0.330622 0.749973 0.338888 0.900821
H1    H     H_    0.464231 0.179453 0.076437 0.143394
H2    H     H_    0.540901 0.179511 0.922851 0.142763
H3    H     H_    0.975954 0.680814 0.076329 0.143679
H4    H     H_    0.052630 0.680871 0.922742 0.142636
C17   C     C_R   0.523153 0.210234 0.956350 -0.176709
C18   C     C_R   0.479782 0.210200 0.043244 -0.178826
C19   C     C_R   0.029751 0.710998 0.956289 -0.176430
C20   C     C_R   0.986376 0.710966 0.043183 -0.178692
C21   C     C_R   0.543341 0.249860 0.913252 0.166572
C22   C     C_R   0.456759 0.249793 0.086734 0.164817
C23   C     C_R   0.043334 0.749855 0.913252 0.167009
C24   C     C_R   0.956743 0.749793 0.086734 0.164589
C25   C     C_R   0.520314 0.289451 0.956743 -0.178058
C26   C     C_R   0.476948 0.289418 0.043633 -0.175549
C27   C     C_R   0.013695 0.788680 0.956803 -0.178319
C28   C     C_R   0.970325 0.788648 0.043693 -0.175253
H5    H     H_    0.535856 0.320200 0.923552 0.143103
H6    H     H_    0.459201 0.320141 0.077129 0.146198
H7    H     H_    0.024113 0.818832 0.923658 0.142279
H8    H     H_    0.947450 0.818777 0.077236 0.146072
C29   C     C_1   0.587755 0.249901 0.824338 -0.066181
C30   C     C_1   0.412337 0.249774 0.175651 -0.066213
C31   C     C_1   0.087753 0.749898 0.824338 -0.066043
C32   C     C_1   0.912329 0.749773 0.175650 -0.066204
C33   C     C_1   0.374989 0.249817 0.250317 -0.174998
C34   C     C_1   0.625081 0.249945 0.749674 -0.174395
C35   C     C_1   0.874986 0.749816 0.250317 -0.175006
C36   C     C_1   0.125081 0.749944 0.749673 -0.174327
C37   C     C_R   0.152012 0.158457 0.442582 0.025106
C38   C     C_R   0.903134 0.163252 0.457082 0.123058
C39   C     C_R   0.652000 0.658464 0.442593 0.025332
C40   C     C_R   0.403113 0.663279 0.457187 0.123117
C41   C     C_R   0.158154 0.156426 0.499008 -0.045792
C42   C     C_R   0.841665 0.157829 0.504006 -0.061959
C43   C     C_R   0.658156 0.656426 0.499002 -0.045898
C44   C     C_R   0.341665 0.657826 0.504008 -0.061987
C45   C     C_R   0.138909 0.119000 0.548339 -0.195280
C46   C     C_R   0.810468 0.122315 0.558420 -0.194874
C47   C     C_R   0.638921 0.618996 0.548321 -0.195241
C48   C     C_R   0.310477 0.622278 0.558331 -0.195100
H9    H     H_    0.146610 0.115552 0.588979 0.156867
H10   H     H_    0.761948 0.119050 0.599051 0.154503
H11   H     H_    0.646633 0.615542 0.588947 0.156857
H12   H     H_    0.261968 0.618985 0.598886 0.154541
C49   C     C_R   0.106304 0.087010 0.548850 -0.208627
C50   C     C_R   0.842635 0.090178 0.558472 -0.188849
C51   C     C_R   0.606311 0.587009 0.548836 -0.208712
C52   C     C_R   0.342642 0.590139 0.558385 -0.189155
H13   H     H_    0.089563 0.058876 0.589145 0.145402
H14   H     H_    0.818742 0.062224 0.599243 0.146925
H15   H     H_    0.589581 0.558869 0.589118 0.145417
H16   H     H_    0.318759 0.562159 0.599083 0.146833
C53   C     C_R   0.094183 0.092333 0.498878 -0.019552
C54   C     C_R   0.905924 0.093006 0.501850 -0.049619
C55   C     C_R   0.594174 0.592339 0.498885 -0.019654
C56   C     C_R   0.405922 0.593004 0.501853 -0.049589
C57   C     C_R   0.119748 0.127126 0.443353 0.022456
C58   C     C_R   0.935238 0.130578 0.454327 0.088281
C59   C     C_R   0.619727 0.627138 0.443373 0.022730
C60   C     C_R   0.435217 0.630608 0.454440 0.088412
C61   C     C_3   0.095356 0.159599 0.421861 0.122298
C62   C     C_3   0.988990 0.137261 0.362911 0.136610
C63   C     C_3   0.595338 0.659618 0.421882 0.122245
C64   C     C_3   0.489017 0.637346 0.363068 0.136574
C65   C     C_3   0.131879 0.194189 0.420668 -0.478600
C66   C     C_3   0.953496 0.173927 0.366690 -0.553703
C67   C     C_3   0.631875 0.694201 0.420677 -0.478745
C68   C     C_3   0.453528 0.674009 0.366831 -0.553879
H17   H     H_    0.111197 0.153269 0.360034 0.099276
H18   H     H_    0.029954 0.148522 0.348549 0.130401
H19   H     H_    0.611175 0.653296 0.360055 0.099368
H20   H     H_    0.529928 0.648612 0.348839 0.130445
H21   H     H_    0.169984 0.207418 0.357329 0.178258
H22   H     H_    0.972824 0.206738 0.357456 0.207574
H23   H     H_    0.669982 0.707425 0.357336 0.178344
H24   H     H_    0.472806 0.706826 0.357711 0.207684
H25   H     H_    0.103986 0.219207 0.470743 0.240452
H26   H     H_    0.941306 0.167980 0.330356 0.222130
H27   H     H_    0.603993 0.719222 0.470749 0.240445
H28   H     H_    0.441415 0.668089 0.330398 0.222001
H29   H     H_    0.108507 0.239673 0.922485 0.145652
H30   H     H_    0.891572 0.260846 0.077535 0.143383
H31   H     H_    0.607454 0.734161 0.922468 0.146104
H32   H     H_    0.392641 0.766362 0.077554 0.143185
C69   C     C_R   0.017828 0.244230 0.043045 -0.170285
C70   C     C_R   0.982252 0.256303 0.956979 -0.174878
C71   C     C_R   0.517237 0.741130 0.043036 -0.170224
C72   C     C_R   0.482860 0.759407 0.956989 -0.174974
H33   H     H_    0.031811 0.239537 0.076073 0.147613
H34   H     H_    0.968262 0.260968 0.923957 0.147051
H35   H     H_    0.530754 0.734030 0.076055 0.148207
H36   H     H_    0.469334 0.766480 0.923975 0.146962
C73   C     C_R   0.956726 0.250182 0.086749 0.164561
C74   C     C_R   0.043353 0.250339 0.913272 0.162774
C75   C     C_R   0.456731 0.750187 0.086749 0.164405
C76   C     C_R   0.543363 0.750338 0.913272 0.162528
C77   C     C_R   0.938864 0.256227 0.043869 -0.178389
C78   C     C_R   0.061219 0.244310 0.956152 -0.177201
C79   C     C_R   0.439470 0.759334 0.043879 -0.178684
C80   C     C_R   0.560630 0.741207 0.956143 -0.177088
C81   C     C_1   0.912310 0.250086 0.175658 -0.061767
C82   C     C_1   0.087742 0.250312 0.824358 -0.065285
C83   C     C_1   0.412311 0.750088 0.175658 -0.061794
C84   C     C_1   0.587748 0.750312 0.824359 -0.065359
C85   C     C_1   0.125055 0.250229 0.749694 -0.174443
C86   C     C_1   0.874966 0.250022 0.250320 -0.170930
C87   C     C_1   0.625057 0.750229 0.749694 -0.174500
C88   C     C_1   0.374966 0.750023 0.250319 -0.170897
C89   C     C_R   0.315909 0.379355 0.547285 0.131525
C90   C     C_R   0.636733 0.379344 0.547034 0.130981
C91   C     C_R   0.815913 0.879361 0.547267 0.131601
C92   C     C_R   0.136706 0.879333 0.547068 0.130842
C93   C     C_R   0.343936 0.342336 0.498391 -0.097677
C94   C     C_R   0.657909 0.342367 0.498042 -0.096603
C95   C     C_R   0.843936 0.842336 0.498391 -0.097701
C96   C     C_R   0.157908 0.842366 0.498043 -0.096566
C97   C     C_R   0.406610 0.337171 0.448073 -0.207462
C98   C     C_R   0.646213 0.337351 0.447182 -0.210770
C99   C     C_R   0.906607 0.837165 0.448093 -0.207226
C100  C     C_R   0.146241 0.837361 0.447150 -0.210875
H37   H     H_    0.430304 0.308694 0.408648 0.162690
H38   H     H_    0.662275 0.308924 0.407596 0.161721
H39   H     H_    0.930299 0.808683 0.408683 0.162710
H40   H     H_    0.162324 0.808943 0.407539 0.161713
C101  C     C_R   0.439025 0.369669 0.447715 -0.209952
C102  C     C_R   0.614295 0.369903 0.446625 -0.214989
C103  C     C_R   0.939022 0.869663 0.447734 -0.209819
C104  C     C_R   0.114323 0.869913 0.446593 -0.215076
H41   H     H_    0.487378 0.365946 0.408182 0.155329
H42   H     H_    0.605842 0.366252 0.406850 0.155719
H43   H     H_    0.987372 0.865935 0.408217 0.155336
H44   H     H_    0.105892 0.866270 0.406792 0.155742
C105  C     C_R   0.408198 0.406406 0.499690 -0.087148
C106  C     C_R   0.592652 0.406537 0.498909 -0.089439
C107  C     C_R   0.908198 0.906407 0.499691 -0.087174
C108  C     C_R   0.092652 0.906536 0.498909 -0.089472
C109  C     C_R   0.346526 0.409636 0.549205 0.132926
C110  C     C_R   0.604362 0.409681 0.548716 0.128824
C111  C     C_R   0.846529 0.909643 0.549188 0.132960
C112  C     C_R   0.104334 0.909669 0.548748 0.128804
C113  C     C_3   0.292365 0.437716 0.610562 -0.495653
C114  C     C_3   0.596210 0.437486 0.610911 -0.495598
C115  C     C_3   0.792373 0.937731 0.610519 -0.495587
C116  C     C_3   0.096148 0.937460 0.610985 -0.495649
C117  C     C_3   0.256961 0.402642 0.609102 -0.474034
C118  C     C_3   0.632917 0.402350 0.609676 -0.475609
C119  C     C_3   0.756969 0.902657 0.609059 -0.474104
C120  C     C_3   0.132855 0.902323 0.609751 -0.475519
H45   H     H_    0.279605 0.439896 0.671052 0.212399
H46   H     H_    0.620130 0.469248 0.584140 0.196823
H47   H     H_    0.779601 0.939918 0.671017 0.212440
H48   H     H_    0.120058 0.969228 0.584249 0.196866
H49   H     H_    0.295837 0.469396 0.583151 0.203569
H50   H     H_    0.548076 0.439469 0.671089 0.214919
H51   H     H_    0.795858 0.969407 0.583088 0.203618
H52   H     H_    0.048008 0.939429 0.671150 0.214782
H53   H     H_    0.224013 0.384341 0.668587 0.200910
H54   H     H_    0.677862 0.413906 0.582755 0.214389
H55   H     H_    0.724009 0.884364 0.668552 0.200962
H56   H     H_    0.177788 0.913886 0.582866 0.214505
H57   H     H_    0.239585 0.414170 0.581435 0.216912
H58   H     H_    0.605883 0.383833 0.668982 0.200804
H59   H     H_    0.739607 0.914181 0.581371 0.216886
H60   H     H_    0.105814 0.883794 0.669044 0.200550
O33   O     O_R   0.580260 0.454160 0.431100 -0.627059
O34   O     O_R   0.419740 0.454160 0.568900 -0.630797
O35   O     O_R   0.080260 0.954160 0.431100 -0.627094
O36   O     O_R   0.919740 0.954160 0.568900 -0.630789
O37   O     O_R   0.511410 0.454120 0.568820 -0.627886
O38   O     O_R   0.488590 0.454120 0.431180 -0.612734
O39   O     O_R   0.011410 0.954120 0.568820 -0.627903
O40   O     O_R   0.988590 0.954120 0.431180 -0.612620
C121  C     C_R   0.560157 0.439829 0.499741 0.871736
C122  C     C_R   0.439958 0.439819 0.500056 0.877808
C123  C     C_R   0.060157 0.939828 0.499741 0.871761
C124  C     C_R   0.939957 0.939820 0.500056 0.877913
O41   O     O_R   0.080260 0.045800 0.431140 -0.636902
O42   O     O_R   0.919740 0.045800 0.568860 -0.617123
O43   O     O_R   0.580260 0.545800 0.431140 -0.636753
O44   O     O_R   0.419740 0.545800 0.568860 -0.617137
O45   O     O_R   0.011410 0.045760 0.568860 -0.599670
O46   O     O_R   0.988590 0.045760 0.431140 -0.581490
O47   O     O_R   0.511410 0.545760 0.568860 -0.599662
O48   O     O_R   0.488590 0.545760 0.431140 -0.581207
C125  C     C_R   0.059939 0.060389 0.499883 0.912108
C126  C     C_R   0.939253 0.059700 0.500201 0.901524
C127  C     C_R   0.559938 0.560390 0.499883 0.912322
C128  C     C_R   0.439253 0.559699 0.500201 0.901569
Zn9   Zn    Zn3+2 0.045990 0.000000 0.408050 1.030574
Zn10  Zn    Zn3+2 0.954010 0.000000 0.591950 0.982875
Zn11  Zn    Zn3+2 0.545990 0.500000 0.408050 1.030863
Zn12  Zn    Zn3+2 0.454010 0.500000 0.591950 0.982892
N1    N     N_R   0.030114 0.168332 0.487589 0.213453
O49   O     O_R   0.994928 0.147106 0.557766 -0.390149
O50   O     O_R   0.007136 0.199309 0.476589 -0.407049
N2    N     N_R   0.000548 0.100443 0.311337 0.239708
O51   O     O_R   0.956907 0.082689 0.321970 -0.377640
O52   O     O_R   0.055284 0.085262 0.253751 -0.379953
N3    N     N_R   0.530100 0.668365 0.487611 0.213421
O53   O     O_R   0.494856 0.646994 0.557626 -0.390393
O54   O     O_R   0.507158 0.699431 0.476715 -0.406983
N4    N     N_R   0.500675 0.600546 0.311397 0.239545
O55   O     O_R   0.457141 0.582873 0.321695 -0.377895
O56   O     O_R   0.555377 0.585244 0.254171 -0.380189

loop_
_geom_bond_atom_site_label_1
_geom_bond_atom_site_label_2
_geom_bond_distance
_ccdc_geom_bond_type
O12   Zn4   1.991767 S    
C108  C123  1.414908 S    
C39   C67   1.493027 S    
C76   C84   1.426257 S    
C113  H49   1.111786 S    
C24   C32   1.426300 S    
C39   C43   1.390404 A    
C114  H46   1.111743 S    
O13   Zn5   1.993800 S    
C70   H34   1.083624 S    
C113  H45   1.111468 S    
C11   C95   1.418012 S    
C56   C60   1.391971 A    
C70   C74   1.398952 A    
C40   C68   1.494769 S    
O15   Zn7   1.993800 S    
C98   C102  1.401212 A    
C64   H20   1.112197 S    
N3    O54   1.300514 A    
C69   C73   1.398973 A    
O38   Zn11  2.018848 S    
H31   C80   1.083603 S    
Zn1   O25   1.993798 S    
O35   Zn9   2.018516 S    
O7    C3    1.275537 A    
Zn6   O22   2.018907 S    
H3    C20   1.083601 S    
C116  H52   1.111482 S    
C7    C35   1.420863 S    
C120  H60   1.111663 S    
H4    C19   1.083608 S    
C97   C101  1.401093 A    
C20   C24   1.398998 A    
C119  H55   1.111649 S    
C37   C41   1.390411 A    
O36   C124  1.266183 A    
C70   C77   1.393790 A    
C90   C118  1.489236 S    
C31   C36   1.197681 T    
C47   H11   1.083584 S    
C69   C78   1.393843 A    
C23   C27   1.398973 A    
Zn5   O21   2.019270 S    
O33   C121  1.264641 A    
C46   H10   1.083478 S    
O17   C9    1.277094 A    
C21   C25   1.398973 A    
O48   C128  1.268447 A    
C68   H24   1.111453 S    
O40   C124  1.264505 A    
C51   C55   1.401029 A    
C102  H42   1.083522 S    
C110  C114  1.488613 S    
C61   C65   1.526510 S    
C66   H26   1.112529 S    
C89   C117  1.489261 S    
C82   C85   1.197675 T    
O4    Zn4   2.018907 S    
O23   C11   1.275473 A    
O34   Zn12  2.018010 S    
Zn2   O18   2.016366 S    
C76   C80   1.399070 A    
O1    C1    1.280125 A    
O16   C8    1.283599 A    
O35   C123  1.264646 A    
C107  C124  1.414962 S    
C3    C43   1.425011 S    
C114  C118  1.541420 S    
O48   Zn11  2.015338 S    
C55   C127  1.422143 S    
C104  C108  1.407253 A    
C25   H5    1.083624 S    
Zn5   O29   1.990726 S    
O14   Zn6   1.992921 S    
O24   C12   1.275615 A    
C75   C79   1.399021 A    
O4    C4    1.275849 A    
C54   C58   1.391997 A    
C39   C59   1.368099 A    
O20   C12   1.277001 A    
C24   C28   1.399034 A    
C65   H21   1.111384 S    
C12   C96   1.417520 S    
O37   Zn12  2.017588 S    
O11   C7    1.283249 A    
C49   C53   1.401025 A    
O29   C13   1.283246 A    
O12   C8    1.283479 A    
Zn7   O31   1.990726 S    
C98   H38   1.083412 S    
C115  C119  1.541493 S    
O45   C125  1.267876 A    
Zn8   O32   1.991632 S    
O9    Zn1   1.990862 S    
C92   C112  1.339098 A    
C17   C18   1.393870 A    
C101  C105  1.407199 A    
C32   C35   1.197707 T    
N1    O49   1.301075 A    
O43   Zn11  2.017701 S    
C9    C93   1.418004 S    
O43   C127  1.265813 A    
C47   C51   1.392558 A    
C42   C46   1.401277 A    
C111  C115  1.488534 S    
O3    Zn3   2.019272 S    
C44   C48   1.401301 A    
C89   C93   1.382127 A    
C22   C30   1.426297 S    
O34   C122  1.266185 A    
C19   C23   1.399041 A    
N1    O50   1.300517 A    
C49   H13   1.083684 S    
O7    Zn7   2.016855 S    
O22   C10   1.275616 A    
C18   C22   1.398999 A    
C43   C47   1.404643 A    
O8    Zn8   2.016493 S    
C84   C87   1.197677 T    
C40   C44   1.391973 A    
H1    C18   1.083603 S    
C23   C31   1.426262 S    
O2    Zn2   2.018907 S    
C120  H56   1.111509 S    
C38   C42   1.391939 A    
C2    C42   1.424656 S    
C1    C41   1.425011 S    
C112  C116  1.488618 S    
C52   C56   1.402963 A    
C101  H41   1.083545 S    
O44   C128  1.266829 A    
C68   H28   1.112522 S    
C99   H39   1.083413 S    
O40   Zn9   2.018848 S    
O33   Zn11  2.018516 S    
C107  C111  1.380782 A    
Zn3   O19   2.016725 S    
O38   C122  1.264504 A    
C95   C99   1.408464 A    
C91   C119  1.489259 S    
Zn4   O28   1.992920 S    
O37   C121  1.266011 A    
C60   C64   1.500210 S    
C63   N3    1.467503 S    
O47   Zn12  2.016597 S    
C75   C83   1.426192 S    
C40   C60   1.373234 A    
O15   C7    1.283552 A    
C13   C85   1.420803 S    
C62   C66   1.523169 S    
C26   H6    1.083609 S    
C103  H43   1.083539 S    
C116  C120  1.541419 S    
C21   C29   1.426266 S    
O21   C9    1.275473 A    
C54   C126  1.424373 S    
C45   H9    1.083585 S    
O11   Zn3   1.990862 S    
O44   Zn12  2.018201 S    
C108  C112  1.380815 A    
C53   C125  1.422151 S    
O8    C4    1.279766 A    
O25   C13   1.283452 A    
O30   C14   1.283488 A    
C38   C66   1.494717 S    
C115  H47   1.111471 S    
C104  H44   1.083522 S    
O9    C5    1.283252 A    
C28   H8    1.083608 S    
C10   C94   1.417533 S    
O10   Zn2   1.991767 S    
C37   C65   1.493049 S    
C53   C57   1.392250 A    
C117  H53   1.111650 S    
C58   C62   1.500309 S    
C116  H48   1.111745 S    
O42   C126  1.266840 A    
C57   C61   1.505437 S    
H30   C77   1.083604 S    
O41   C125  1.265809 A    
O6    Zn6   2.016493 S    
C5    C33   1.420858 S    
C90   C94   1.381876 A    
C59   C63   1.505475 S    
C48   C52   1.392076 A    
O19   C11   1.277094 A    
O10   C6    1.283479 A    
C92   C120  1.489233 S    
C50   C54   1.402979 A    
O47   C127  1.267867 A    
C89   C109  1.339443 A    
C45   C49   1.392562 A    
N3    O53   1.301059 A    
O2    C2    1.275834 A    
O5    Zn5   2.016855 S    
C6    C34   1.420817 S    
N4    O56   1.300449 A    
C52   H16   1.083725 S    
Zn2   O26   1.992920 S    
O31   C15   1.283244 A    
O16   Zn8   1.992921 S    
C92   C96   1.381875 A    
O36   Zn10  2.018010 S    
C100  C104  1.401212 A    
Zn3   O27   1.993798 S    
O46   C126  1.268446 A    
C61   N1    1.467497 S    
C74   C82   1.426258 S    
C67   H23   1.111384 S    
O14   C6    1.283600 A    
C99   C103  1.401094 A    
C91   C111  1.339445 A    
O45   Zn10  2.016597 S    
Zn6   O30   1.991632 S    
C90   C110  1.339100 A    
O5    C1    1.275540 A    
C103  C107  1.407192 A    
O6    C2    1.279763 A    
O18   C10   1.277008 A    
C91   C95   1.382128 A    
O1    Zn1   2.019272 S    
O27   C15   1.283459 A    
N2    O52   1.300483 A    
C63   C67   1.526527 S    
C14   C86   1.420715 S    
C102  C106  1.407246 A    
C16   C88   1.420713 S    
C113  C117  1.541495 S    
C119  H59   1.111514 S    
C38   C58   1.373248 A    
C106  C121  1.414899 S    
C118  H58   1.111664 S    
C72   C79   1.393794 A    
C37   C57   1.368112 A    
C105  C122  1.414972 S    
C8    C36   1.420816 S    
C15   C87   1.420807 S    
C71   H35   1.083640 S    
C72   C76   1.398952 A    
C62   N2    1.465039 S    
O26   C14   1.283466 A    
O39   Zn10  2.017588 S    
C27   H7    1.083624 S    
O28   C16   1.283469 A    
C30   C33   1.197703 T    
O41   Zn9   2.017701 S    
C71   C80   1.393843 A    
C22   C26   1.399028 A    
O32   C16   1.283488 A    
C29   C34   1.197683 T    
H2    C17   1.083605 S    
C64   N4    1.465045 S    
C73   C77   1.399020 A    
C48   H12   1.083483 S    
O46   Zn9   2.015338 S    
C71   C75   1.398973 A    
C69   H33   1.083647 S    
C109  C113  1.488540 S    
H29   C78   1.083599 S    
N4    O55   1.302398 A    
C56   C128  1.424345 S    
C115  H51   1.111785 S    
Zn8   O24   2.018907 S    
C17   C21   1.399040 A    
C41   C45   1.404648 A    
C25   C26   1.393801 A    
C114  H50   1.111481 S    
O13   C5    1.283548 A    
O3    C3    1.280125 A    
C64   C68   1.523184 S    
C106  C110  1.380813 A    
H32   C79   1.083612 S    
C117  H57   1.111515 S    
C19   C20   1.393870 A    
C94   C98   1.408437 A    
C105  C109  1.380787 A    
C100  H40   1.083412 S    
C4    C44   1.424693 S    
C27   C28   1.393804 A    
Zn4   O20   2.016366 S    
C118  H54   1.111509 S    
C55   C59   1.392257 A    
Zn1   O17   2.016725 S    
C74   C78   1.399071 A    
C50   H14   1.083723 S    
C67   H27   1.112629 S    
Zn7   O23   2.019270 S    
C93   C97   1.408462 A    
C83   C88   1.197630 T    
C51   H15   1.083688 S    
C62   H18   1.112204 S    
C65   H25   1.112628 S    
C97   H37   1.083416 S    
C61   H17   1.111921 S    
C73   C81   1.426197 S    
C81   C86   1.197631 T    
C66   H22   1.111442 S    
O42   Zn10  2.018201 S    
C96   C100  1.408428 A    
C46   C50   1.392070 A    
O39   C123  1.266016 A    
N2    O51   1.302432 A    
C72   H36   1.083618 S    
C63   H19   1.111915 S    
