data_mof_unit_pretest_988.cif
_audit_creation_date              2012-12-11T15:57:00-0500
_audit_creation_method            fapswitch 2.2
_symmetry_space_group_name_H-M    P1
_symmetry_Int_Tables_number       1
_space_group_crystal_system       triclinic
_cell_length_a                    17.497102
_cell_length_b                    24.524173
_cell_length_c                    15.12397
_cell_angle_alpha                 89.646694
_cell_angle_beta                  126.669531
_cell_angle_gamma                 90.425738
_cell_volume                      5205.20949219

loop_
_atom_site_label
_atom_site_type_symbol
_atom_type_description
_atom_site_fract_x
_atom_site_fract_y
_atom_site_fract_z
_atom_type_partial_charge
C1    C     C_R   0.346553 0.150151 0.906102 -0.121169
C2    C     C_R   0.598990 0.122681 0.909221 -0.138970
C3    C     C_R   0.885667 0.315545 0.000634 0.013871
C4    C     C_R   0.460198 0.997505 0.284486 0.061717
C5    C     C_R   0.951895 0.497337 0.275436 0.068336
C6    C     C_R   0.176506 0.999445 0.735841 0.121285
C7    C     C_R   0.676533 0.499417 0.736046 0.121055
C8    C     C_R   0.452535 0.045465 0.696694 -0.164349
C9    C     C_R   0.450342 0.954587 0.696775 -0.151795
C10   C     C_R   0.954939 0.545691 0.697798 -0.155496
C11   C     C_R   0.952793 0.454764 0.697521 -0.150424
C12   C     C_R   0.760246 0.953806 0.302813 -0.149637
C13   C     C_R   0.097147 0.376634 0.908695 -0.119449
C14   C     C_R   0.760300 0.045209 0.304634 -0.169006
C15   C     C_R   0.260277 0.453770 0.302751 -0.149009
C16   C     C_R   0.260188 0.545129 0.304876 -0.169950
C17   C     C_3   0.932548 0.879471 0.643351 0.195237
C18   C     C_3   0.927455 0.848440 0.727727 -0.222634
C19   C     C_3   0.848057 0.805687 0.672250 -1.062094
C20   C     C_3   0.945441 0.130233 0.616708 0.220716
C21   C     C_3   0.962299 0.177709 0.564490 -0.297826
C22   C     C_3   0.875017 0.214464 0.499638 -1.055724
C23   C     C_3   0.430591 0.380415 0.643421 0.193876
C24   C     C_R   0.102043 0.621060 0.911793 -0.121537
C25   C     C_3   0.421935 0.351451 0.726918 -0.222322
C26   C     C_3   0.342968 0.308447 0.671350 -1.058832
C27   C     C_3   0.446617 0.630961 0.614718 0.215544
C28   C     C_3   0.464333 0.677609 0.561700 -0.295855
C29   C     C_3   0.377745 0.714849 0.495790 -1.063151
C30   C     C_1   0.482859 0.729688 0.180893 0.057584
C31   C     C_1   0.449814 0.288456 0.015753 0.066618
C32   C     C_1   0.997495 0.226037 0.165350 0.057112
C33   C     C_1   0.951018 0.789527 0.017296 0.062751
C34   C     C_1   0.173780 0.801251 0.832669 0.066191
C35   C     C_R   0.440653 0.999914 0.636999 0.093189
C36   C     C_1   0.207709 0.167763 0.003588 0.117411
C37   C     C_1   0.675009 0.300112 0.848962 0.104555
C38   C     C_1   0.707661 0.667780 0.000351 0.116684
C39   C     C_1   0.678938 0.172629 0.795876 0.026796
C40   C     C_1   0.585588 0.768950 0.822776 0.047913
C41   C     C_1   0.245937 0.631428 0.858767 0.037417
C42   C     C_1   0.084610 0.268303 0.825051 0.049385
C43   C     C_3   0.587848 0.123409 0.475460 0.180107
C44   C     C_3   0.559989 0.183323 0.446938 -0.244433
C45   C     C_3   0.647105 0.219576 0.491998 -1.048960
C46   C     C_R   0.944333 0.500280 0.638324 0.093208
C47   C     C_3   0.439931 0.843311 0.394463 0.198215
C48   C     C_3   0.534562 0.824684 0.417837 -0.383132
C49   C     C_3   0.557380 0.765741 0.457636 -0.994274
C50   C     C_3   0.073004 0.624573 0.438180 0.163205
C51   C     C_3   0.143026 0.642962 0.557688 -0.287916
C52   C     C_3   0.213243 0.685217 0.570501 -1.035889
C53   C     C_3   0.936390 0.343874 0.391868 0.202646
C54   C     C_3   0.031427 0.325289 0.416430 -0.384368
C55   C     C_3   0.052043 0.265668 0.452073 -0.999593
C56   C     C_1   0.336561 0.083285 0.445660 0.098251
C57   C     C_R   0.809252 0.999181 0.363168 0.134632
C58   C     C_1   0.259150 0.997772 0.410051 0.008373
C59   C     C_1   0.832231 0.582159 0.444485 0.093419
C60   C     C_1   0.759773 0.495404 0.413390 0.011434
C61   C     C_1   0.855979 0.010706 0.610511 0.047271
C62   C     C_1   0.355812 0.511842 0.609955 0.058566
C63   C     C_R   0.309258 0.499114 0.363202 0.134240
C64   C     C_R   0.689477 0.136063 0.001699 0.016538
C65   C     C_R   0.681644 0.857272 0.000271 0.013590
C66   C     C_R   0.191073 0.635667 0.006529 0.029524
C67   C     C_R   0.353801 0.847039 0.909030 -0.115629
C68   C     C_R   0.181856 0.357394 0.000557 0.013428
C69   C     C_3   0.996526 0.957796 0.625499 0.537914
C70   C     C_3   0.003040 0.045979 0.612384 0.529311
C71   C     C_3   0.496114 0.458112 0.625965 0.538488
C72   C     C_3   0.503381 0.546153 0.611829 0.531619
C73   C     C_3   0.925199 0.004883 0.586160 -0.178782
C74   C     C_3   0.425167 0.505457 0.585942 -0.182789
C75   C     C_3   0.900043 0.998426 0.470483 0.009722
C76   C     C_3   0.400096 0.498382 0.470454 0.009779
C77   C     C_3   0.969945 0.950483 0.509046 -0.289080
C78   C     C_R   0.847331 0.650401 0.905985 -0.122638
C79   C     C_3   0.977025 0.040207 0.496142 -0.254019
C80   C     C_3   0.469609 0.450205 0.509679 -0.289096
C81   C     C_3   0.477437 0.539779 0.495707 -0.253702
C82   C     C_3   0.047051 0.992441 0.535774 -0.217035
C83   C     C_3   0.547107 0.491778 0.536065 -0.217089
C84   C     C_R   0.443629 0.848286 0.091847 -0.134167
C85   C     C_R   0.438976 0.150910 0.090501 -0.172794
C86   C     C_R   0.945295 0.347479 0.091601 -0.139141
C87   C     C_R   0.939862 0.651334 0.090229 -0.172809
C88   C     C_3   0.074052 0.999068 0.653113 -0.031814
C89   C     C_R   0.854561 0.346871 0.908730 -0.118963
C90   C     C_3   0.574046 0.499003 0.653294 -0.033132
C91   C     C_3   0.382827 0.747237 0.124335 -0.093297
C92   C     C_3   0.393173 0.276598 0.056940 -0.102206
C93   C     C_3   0.897122 0.237938 0.118720 -0.100275
C94   C     C_3   0.893901 0.777060 0.057618 -0.098047
C95   C     C_3   0.846506 0.185338 0.114603 -0.493294
C96   C     C_3   0.836828 0.827730 0.047651 -0.482206
C97   C     C_3   0.324893 0.701008 0.126780 -0.518064
C98   C     C_3   0.336392 0.327485 0.046622 -0.481589
C99   C     C_3   0.830306 0.220861 0.920927 -0.438483
C100  C     C_R   0.691603 0.123090 0.093360 -0.118733
C101  C     C_3   0.743783 0.746027 0.874824 -0.460178
C102  C     C_3   0.338904 0.718588 0.937054 -0.455321
C103  C     C_3   0.242130 0.245079 0.875375 -0.459745
C104  C     C_3   0.227719 0.779912 0.946884 -0.108789
C105  C     C_3   0.278421 0.212663 0.057678 -0.122097
C106  C     C_3   0.738733 0.281600 0.965174 -0.121140
C107  C     C_3   0.778265 0.712668 0.055748 -0.123713
C108  C     C_3   0.334808 0.766343 0.001677 0.229910
C109  C     C_3   0.322629 0.227665 0.995901 0.236284
C110  C     C_3   0.840054 0.264640 0.000987 0.228321
C111  C     C_R   0.688337 0.872580 0.093269 -0.124674
C112  C     C_3   0.823556 0.728186 0.995363 0.236426
C113  C     C_3   0.747197 0.180480 0.000620 0.281184
C114  C     C_3   0.732590 0.810895 0.996560 0.286669
C115  C     C_3   0.248090 0.680880 0.007728 0.282483
C116  C     C_3   0.232427 0.310750 0.997062 0.285731
C117  C     C_3   0.765877 0.173538 0.910822 -0.065370
C118  C     C_3   0.683466 0.790462 0.874976 -0.078955
C119  C     C_3   0.301722 0.665782 0.957377 -0.065959
C120  C     C_3   0.182278 0.289719 0.875670 -0.080006
C121  C     C_3   0.691967 0.233816 0.981235 -0.442528
C122  C     C_R   0.192079 0.622369 0.096085 -0.132105
C123  C     C_3   0.733412 0.763314 0.065785 -0.444848
C124  C     C_3   0.176981 0.728587 0.944096 -0.449690
C125  C     C_3   0.234122 0.263588 0.067714 -0.444237
C126  C     C_3   0.528895 0.030843 0.569034 -0.535231
C127  C     C_3   0.449899 0.940026 0.514111 -0.581264
C128  C     C_3   0.026452 0.533032 0.562772 -0.524673
C129  C     C_3   0.952096 0.440950 0.513783 -0.581137
C130  C     C_R   0.479453 0.044210 0.247621 -0.129780
C131  C     C_R   0.487271 0.952885 0.254097 -0.129674
C132  C     C_R   0.972315 0.543620 0.239060 -0.141012
C133  C     C_R   0.188455 0.372746 0.093419 -0.122843
C134  C     C_R   0.981985 0.452896 0.248155 -0.132265
C135  C     C_3   0.526572 0.036920 0.467041 0.403452
C136  C     C_3   0.467868 0.938401 0.427349 0.448738
C137  C     C_3   0.021165 0.538764 0.458538 0.426012
C138  C     C_3   0.965596 0.439245 0.423276 0.451718
C139  C     C_3   0.345187 0.024436 0.432516 0.094393
C140  C     C_3   0.843267 0.523585 0.432055 0.096699
C141  C     C_3   0.438921 0.999495 0.538779 0.181343
C142  C     C_3   0.939496 0.500156 0.537513 0.170341
C143  C     C_3   0.449227 0.996960 0.374244 0.078604
C144  C     C_R   0.596962 0.876560 0.908515 -0.122548
C145  C     C_3   0.943983 0.497543 0.368137 0.062371
C146  C     C_3   0.348388 0.016088 0.332341 -0.409173
C147  C     C_3   0.843588 0.515637 0.329556 -0.407523
C148  C     C_R   0.231301 0.953896 0.757258 -0.131527
C149  C     C_R   0.230964 0.045420 0.756125 -0.121706
C150  C     C_R   0.731336 0.453863 0.757505 -0.131706
C151  C     C_R   0.730993 0.545406 0.756267 -0.121404
C152  C     C_R   0.371450 0.179364 0.997077 0.037949
C153  C     C_R   0.381099 0.816899 0.000880 0.012485
C154  C     C_R   0.872785 0.679963 0.996767 0.038492
H1    H     H_    0.305522 0.163411 0.821151 0.089463
H2    H     H_    0.598198 0.486218 0.516050 0.162419
H3    H     H_    0.025047 0.201704 0.630070 0.206506
H4    H     H_    0.977428 0.161960 0.507795 0.195884
H5    H     H_    0.812158 0.191080 0.432447 0.260602
H6    H     H_    0.888294 0.248373 0.461880 0.271346
H7    H     H_    0.859422 0.231803 0.554924 0.283029
H8    H     H_    0.443105 0.349760 0.599490 0.107640
H9    H     H_    0.361360 0.400964 0.581897 0.084044
H10   H     H_    0.490361 0.331448 0.791225 0.211456
H11   H     H_    0.406013 0.381957 0.767871 0.200867
H12   H     H_    0.273166 0.327716 0.608721 0.270933
H13   H     H_    0.383022 0.781296 0.172684 0.114186
H14   H     H_    0.338866 0.288050 0.734102 0.273119
H15   H     H_    0.358047 0.277112 0.630982 0.273921
H16   H     H_    0.438443 0.648136 0.676411 0.144113
H17   H     H_    0.377464 0.610895 0.550560 0.077713
H18   H     H_    0.527412 0.701496 0.626999 0.207043
H19   H     H_    0.479430 0.660975 0.505568 0.196233
H20   H     H_    0.313587 0.691310 0.431302 0.263226
H21   H     H_    0.390451 0.746840 0.454238 0.271553
H22   H     H_    0.364541 0.734828 0.551148 0.286617
H23   H     H_    0.624290 0.110345 0.438929 0.093016
H24   H     H_    0.444754 0.266190 0.145917 0.107312
H25   H     H_    0.637954 0.118872 0.566724 0.113051
H26   H     H_    0.510210 0.188202 0.355919 0.179222
H27   H     H_    0.522663 0.196601 0.482079 0.213512
H28   H     H_    0.698099 0.215407 0.583040 0.273992
H29   H     H_    0.624602 0.262832 0.471510 0.273618
H30   H     H_    0.682884 0.208174 0.454135 0.271223
H31   H     H_    0.382987 0.814910 0.333036 0.125593
H32   H     H_    0.444123 0.838418 0.470275 0.101525
H33   H     H_    0.530306 0.827556 0.342401 0.196068
H34   H     H_    0.595426 0.849908 0.482449 0.192674
H35   H     H_    0.897949 0.266713 0.175949 0.114553
H36   H     H_    0.569828 0.762151 0.538447 0.270113
H37   H     H_    0.623246 0.752997 0.468371 0.278446
H38   H     H_    0.498285 0.738210 0.396671 0.271015
H39   H     H_    0.041910 0.661318 0.384727 0.125409
H40   H     H_    0.111589 0.602222 0.412005 0.084051
H41   H     H_    0.103511 0.660632 0.587003 0.215752
H42   H     H_    0.184010 0.606886 0.608155 0.205933
H43   H     H_    0.252592 0.668005 0.540907 0.268558
H44   H     H_    0.265135 0.696271 0.658775 0.274597
H45   H     H_    0.175175 0.722613 0.522641 0.271011
H46   H     H_    0.945124 0.766320 0.146456 0.102503
H47   H     H_    0.879694 0.315422 0.330145 0.127489
H48   H     H_    0.939928 0.338924 0.467208 0.098281
H49   H     H_    0.029127 0.329746 0.342430 0.195328
H50   H     H_    0.092141 0.349567 0.483906 0.193224
H51   H     H_    0.063446 0.260602 0.532096 0.271522
H52   H     H_    0.117909 0.252867 0.462862 0.278529
H53   H     H_    0.992324 0.239104 0.388909 0.266501
H54   H     H_    0.290479 0.716946 0.163991 0.164860
H55   H     H_    0.371536 0.345889 0.129670 0.161510
H56   H     H_    0.840980 0.188128 0.183736 0.151819
H57   H     H_    0.871352 0.845639 0.130982 0.160434
H58   H     H_    0.888767 0.148118 0.129058 0.174323
H59   H     H_    0.315696 0.832511 0.825296 0.099886
H60   H     H_    0.836487 0.860034 0.995264 0.172974
H61   H     H_    0.371349 0.666479 0.179806 0.166366
H62   H     H_    0.335430 0.359350 0.993111 0.173785
H63   H     H_    0.901516 0.204590 0.952215 0.162982
H64   H     H_    0.775895 0.761762 0.834571 0.155283
H65   H     H_    0.413200 0.712368 0.965006 0.163498
H66   H     H_    0.273580 0.260495 0.834185 0.153948
H67   H     H_    0.803110 0.134200 0.925720 0.104260
H68   H     H_    0.678682 0.824684 0.823206 0.095814
H69   H     H_    0.364675 0.640630 0.019047 0.123510
H70   H     H_    0.806415 0.663526 0.820960 0.089265
H71   H     H_    0.176923 0.323581 0.822897 0.096407
H72   H     H_    0.490208 0.835784 0.176422 0.084447
H73   H     H_    0.480602 0.164820 0.174957 0.085132
H74   H     H_    0.990978 0.334684 0.176186 0.085226
H75   H     H_    0.981395 0.665214 0.174745 0.077068
H76   H     H_    0.224471 0.811390 0.997328 0.128351
H77   H     H_    0.335286 0.198488 0.142869 0.098478
H78   H     H_    0.745776 0.316022 0.017389 0.125478
H79   H     H_    0.834616 0.698243 0.140928 0.103079
H80   H     H_    0.139109 0.737978 0.980782 0.168369
H81   H     H_    0.813483 0.333321 0.824089 0.095192
H82   H     H_    0.278261 0.275561 0.156132 0.146712
H83   H     H_    0.692650 0.242050 0.054109 0.162317
H84   H     H_    0.776736 0.774929 0.154357 0.147275
H85   H     H_    0.615230 0.229913 0.910018 0.172004
H86   H     H_    0.660078 0.754871 0.040238 0.174712
H87   H     H_    0.121007 0.716003 0.857391 0.165277
H88   H     H_    0.161128 0.255311 0.043382 0.176508
H89   H     H_    0.802294 0.239217 0.839355 0.158665
H90   H     H_    0.698052 0.710718 0.824205 0.170559
H91   H     H_    0.295589 0.728589 0.847627 0.170717
H92   H     H_    0.955657 0.911334 0.465074 0.127587
H93   H     H_    0.196291 0.209615 0.825612 0.171159
H94   H     H_    0.534263 0.071767 0.603545 0.199549
H95   H     H_    0.384244 0.916627 0.485928 0.196382
H96   H     H_    0.029575 0.574129 0.595311 0.198771
H97   H     H_    0.888145 0.416788 0.489260 0.195885
H98   H     H_    0.594467 0.008515 0.634488 0.146476
H99   H     H_    0.511532 0.919515 0.589155 0.145563
H100  H     H_    0.093869 0.512143 0.628251 0.151809
H101  H     H_    0.015771 0.421457 0.588441 0.146727
H102  H     H_    0.597630 0.024644 0.489372 0.007752
H103  H     H_    0.967614 0.073368 0.440219 0.129941
H104  H     H_    0.544747 0.930411 0.469191 0.000168
H105  H     H_    0.092100 0.527051 0.480093 0.008922
H106  H     H_    0.042010 0.431558 0.461800 0.000276
H107  H     H_    0.464661 0.086015 0.253384 0.152168
H108  H     H_    0.486220 0.910500 0.269213 0.149517
H109  H     H_    0.951958 0.584916 0.238712 0.143635
H110  H     H_    0.978617 0.410460 0.261185 0.150994
H111  H     H_    0.329226 0.054169 0.282770 0.178046
H112  H     H_    0.295566 0.984827 0.274283 0.188046
H113  H     H_    0.822451 0.553675 0.279506 0.178569
H114  H     H_    0.455113 0.410844 0.466278 0.127536
H115  H     H_    0.790875 0.484051 0.272625 0.188956
H116  H     H_    0.208052 0.911915 0.742325 0.133737
H117  H     H_    0.207087 0.087186 0.739659 0.139306
H118  H     H_    0.708053 0.411829 0.742945 0.130231
H119  H     H_    0.707190 0.587187 0.739977 0.140263
H120  H     H_    0.440455 0.087470 0.669904 0.105390
H121  H     H_    0.433378 0.912635 0.669813 0.097255
H122  H     H_    0.942796 0.587719 0.671066 0.099312
H123  H     H_    0.936081 0.412884 0.670090 0.096946
H124  H     H_    0.774013 0.912006 0.331423 0.083435
H125  H     H_    0.468271 0.572535 0.439215 0.129604
H126  H     H_    0.774998 0.086595 0.335254 0.091476
H127  H     H_    0.274045 0.411960 0.331296 0.083212
H128  H     H_    0.274732 0.586428 0.335913 0.091231
H129  H     H_    0.748443 0.129562 0.179225 0.095784
H130  H     H_    0.744361 0.863023 0.178422 0.093149
H131  H     H_    0.247791 0.629542 0.182237 0.100689
H132  H     H_    0.244425 0.363231 0.178603 0.093102
H133  H     H_    0.568206 0.873080 0.822929 0.094868
H134  H     H_    0.567255 0.130275 0.824168 0.116650
H135  H     H_    0.068387 0.372934 0.823163 0.094331
H136  H     H_    0.098134 0.987392 0.515607 0.162009
H137  H     H_    0.074817 0.627888 0.827211 0.103158
H138  H     H_    0.943554 0.850051 0.596263 0.105196
H139  H     H_    0.862756 0.900103 0.584807 0.086237
H140  H     H_    0.996365 0.827884 0.788468 0.210983
H141  H     H_    0.914140 0.877724 0.772916 0.202108
H142  H     H_    0.777834 0.825475 0.613632 0.272089
H143  H     H_    0.846925 0.783601 0.735733 0.273722
H144  H     H_    0.860302 0.775681 0.627221 0.273085
H145  H     H_    0.937217 0.146591 0.678910 0.135667
H146  H     H_    0.876427 0.110123 0.552230 0.078593
N1    N     N_R   0.392450 0.103580 0.942190 -0.036132
N2    N     N_R   0.525490 0.971610 0.207550 -0.052248
N3    N     N_R   0.025490 0.528390 0.207550 -0.051435
N4    N     N_R   0.025490 0.471610 0.207550 -0.052544
N5    N     N_R   0.317450 0.971190 0.792000 -0.050578
N6    N     N_R   0.317450 0.028810 0.792000 -0.051842
N7    N     N_R   0.817450 0.471190 0.792000 -0.050453
N8    N     N_R   0.817450 0.528810 0.792000 -0.052466
N9    N     N_R   0.473900 0.028390 0.792280 -0.036845
N10   N     N_R   0.473900 0.971610 0.792280 -0.038296
N11   N     N_R   0.973900 0.528390 0.792280 -0.036572
N12   N     N_R   0.392450 0.896420 0.942190 -0.038478
N13   N     N_R   0.973900 0.471610 0.792280 -0.038287
N14   N     N_R   0.682310 0.971180 0.208170 -0.038830
N15   N     N_R   0.682310 0.028820 0.208170 -0.038209
N16   N     N_R   0.182310 0.471180 0.208170 -0.038350
N17   N     N_R   0.182310 0.528820 0.208170 -0.037339
N18   N     N_R   0.606470 0.103570 0.057210 -0.037939
N19   N     N_R   0.606470 0.896430 0.057210 -0.038177
N20   N     N_R   0.106470 0.603570 0.057210 -0.037618
N21   N     N_R   0.106470 0.396430 0.057210 -0.037783
N22   N     N_R   0.549740 0.896000 0.943240 -0.039551
N23   N     N_R   0.892450 0.603580 0.942190 -0.035870
N24   N     N_R   0.549740 0.104000 0.943240 -0.040363
N25   N     N_R   0.049740 0.396000 0.943240 -0.039308
N26   N     N_R   0.049740 0.604000 0.943240 -0.041795
N27   N     N_1   0.560953 0.716030 0.225060 -0.092470
N28   N     N_1   0.494323 0.297615 0.983694 -0.101400
N29   N     N_1   0.075971 0.216807 0.201812 -0.093299
N30   N     N_1   0.995839 0.799217 0.985849 -0.104129
N31   N     N_1   0.131292 0.816955 0.742828 -0.091031
N32   N     N_1   0.152523 0.132663 0.961214 -0.065980
N33   N     N_1   0.625912 0.313968 0.757817 -0.086390
N34   N     N_R   0.892450 0.396420 0.942190 -0.037585
N35   N     N_1   0.652569 0.632693 0.956956 -0.063442
N36   N     N_1   0.611219 0.172615 0.705442 -0.109092
N37   N     N_1   0.509414 0.752407 0.782820 -0.102683
N38   N     N_1   0.202418 0.602899 0.783470 -0.115638
N39   N     N_1   0.008608 0.251843 0.786349 -0.103343
N40   N     N_1   0.329714 0.129390 0.455480 -0.095578
N41   N     N_1   0.191890 0.976860 0.392630 -0.092254
N42   N     N_1   0.823470 0.628047 0.453801 -0.093873
N43   N     N_1   0.694508 0.473302 0.398940 -0.092506
N44   N     N_1   0.801470 0.015293 0.629679 -0.117600
N45   N     N_R   0.450490 0.896000 0.057360 -0.036065
N46   N     N_1   0.301172 0.516812 0.628827 -0.110621
N47   N     N_R   0.450490 0.104000 0.057360 -0.032292
N48   N     N_R   0.950490 0.396000 0.057360 -0.035639
N49   N     N_R   0.950490 0.604000 0.057360 -0.032275
N50   N     N_R   0.525490 0.028390 0.207550 -0.050261
Ni1   Ni    Ni4+2 0.433780 0.065390 0.868430 0.216241
Ni2   Ni    Ni4+2 0.433780 0.934610 0.868430 0.214852
Ni3   Ni    Ni4+2 0.933780 0.565390 0.868430 0.216393
Ni4   Ni    Ni4+2 0.933780 0.434610 0.868430 0.216694
Ni5   Ni    Ni4+2 0.565800 0.934190 0.131570 0.207184
Ni6   Ni    Ni4+2 0.565800 0.065810 0.131570 0.208175
Ni7   Ni    Ni4+2 0.065800 0.434190 0.131570 0.208127
Ni8   Ni    Ni4+2 0.065800 0.565810 0.131570 0.204663
O1    O     O_3   0.009917 0.916614 0.699096 -0.655510
O2    O     O_3   0.025069 0.095001 0.671760 -0.671683
O3    O     O_3   0.508439 0.417260 0.699543 -0.655984
O4    O     O_3   0.525726 0.595376 0.670699 -0.671191
O5    O     O_3   0.504267 0.092050 0.431169 -0.657839
O6    O     O_3   0.410763 0.896874 0.348636 -0.660629
O7    O     O_3   0.996206 0.593841 0.421409 -0.654014
O8    O     O_3   0.907240 0.397435 0.345948 -0.660848

loop_
_geom_bond_atom_site_label_1
_geom_bond_atom_site_label_2
_ccdc_geom_bond_type
C18   H141  S    
C111  H130  S    
C131  N2    A    
C43   O5    S    
C67   C153  A    
C95   H58   S    
C2    H134  S    
C48   H34   S    
C92   C109  S    
C63   C76   S    
C138  C145  S    
C96   H60   S    
C107  C112  S    
C55   H52   S    
C108  C153  S    
C150  N7    A    
C66   C122  A    
N20   N26   A    
C97   C115  S    
N10   Ni2   S    
N26   Ni3   S    
C93   C110  S    
C131  H108  S    
C124  H80   S    
N7    Ni4   S    
C107  H79   S    
C96   H57   S    
C21   C22   S    
C144  H133  S    
C73   C75   S    
C96   C114  S    
C13   N25   A    
C29   H21   S    
C80   C83   S    
C87   N49   A    
C91   C97   S    
C45   H28   S    
C138  H106  S    
C66   C115  S    
C51   C52   S    
C33   N30   T    
C127  C136  S    
C47   O6    S    
C150  H118  S    
C65   C144  A    
C4    C130  A    
C129  C142  S    
N14   N15   A    
C11   N13   A    
C99   C110  S    
C103  H93   S    
C19   H143  S    
N16   N17   A    
C127  H95   S    
C8    C35   A    
C53   O8    S    
C43   C44   S    
N3    N4    A    
C119  H69   S    
C85   N47   A    
C47   H32   S    
C94   C96   S    
C69   C88   S    
N48   Ni7   S    
C68   C116  S    
C132  H109  S    
N12   N45   A    
C78   N23   A    
C52   H44   S    
C38   N35   T    
C130  N50   A    
C14   C57   A    
C28   C29   S    
C36   N32   T    
C70   C79   S    
C81   H125  S    
C95   H56   S    
N14   Ni5   S    
N49   Ni8   S    
C111  N19   A    
C148  N5    A    
C126  C141  S    
C105  C125  S    
C51   H41   S    
C59   C140  S    
C60   N43   T    
C56   N40   T    
N5    Ni2   S    
C28   H19   S    
C24   H137  S    
N23   Ni3   S    
C20   C21   S    
C133  H132  S    
C22   H5    S    
C11   C46   A    
C25   H10   S    
C37   N33   T    
C44   H27   S    
C130  H107  S    
C45   H30   S    
C78   H70   S    
C129  H97   S    
C122  N20   A    
C61   N44   T    
C118  H68   S    
C69   C77   S    
C33   C94   S    
C17   H139  S    
C53   C54   S    
C101  C112  S    
C74   C76   S    
N45   Ni5   S    
C101  C118  S    
C77   C82   S    
C91   H13   S    
C68   C133  A    
C18   C19   S    
C136  C143  S    
C71   O3    S    
C50   H39   S    
N6    Ni1   S    
C84   N45   A    
C3    C110  S    
C54   H49   S    
C58   N41   T    
N8    Ni3   S    
C6    C88   S    
C1    C152  A    
C127  C141  S    
C38   C107  S    
C6    C149  A    
C28   H18   S    
C5    C132  A    
C132  N3    A    
N34   Ni4   S    
C128  H100  S    
C87   H75   S    
C135  H102  S    
C103  H66   S    
C135  C143  S    
C32   C93   S    
C17   O1    S    
C59   N42   T    
C93   C95   S    
C112  C154  S    
N1    N47   A    
C40   N37   T    
C140  C147  S    
C81   C83   S    
C137  H105  S    
C98   H55   S    
C5    C145  S    
C79   H103  S    
C49   H36   S    
C25   C26   S    
C7    C90   S    
C116  C120  S    
C146  H111  S    
C99   C117  S    
C7    C150  A    
C72   C90   S    
C17   C18   S    
C125  H88   S    
C75   C77   S    
C60   C140  S    
C20   O2    S    
C12   C57   A    
C115  C119  S    
C116  C125  S    
N11   N13   A    
C113  C117  S    
C114  C123  S    
N16   Ni7   S    
C105  C109  S    
C54   C55   S    
C80   H114  S    
C9    H121  S    
C76   C80   S    
C10   H122  S    
C79   C82   S    
C104  C124  S    
C93   H35   S    
C55   H53   S    
C89   N34   A    
N18   N24   A    
C34   N31   T    
C12   N14   A    
C123  H84   S    
N17   Ni8   S    
C139  C141  S    
C42   C120  S    
C71   C90   S    
C22   H6    S    
C82   C88   S    
N4    Ni7   S    
C94   C112  S    
C97   H54   S    
C135  O5    S    
C15   H127  S    
C102  C119  S    
C113  C121  S    
C32   N29   T    
C124  H87   S    
C13   C68   A    
N1    Ni1   S    
C143  C146  S    
C40   C118  S    
C139  C146  S    
C12   H124  S    
N9    Ni1   S    
C21   H4    S    
C103  C120  S    
C107  C123  S    
C29   H20   S    
C44   H26   S    
C46   C142  S    
C49   H38   S    
N20   Ni8   S    
C43   H25   S    
C151  N8    A    
C137  C145  S    
C31   N28   T    
C122  H131  S    
C140  C142  S    
C138  O8    S    
C67   N12   A    
C20   H145  S    
C126  H98   S    
C77   H92   S    
C101  H90   S    
N19   Ni5   S    
C101  H64   S    
C42   N39   T    
C129  H101  S    
C69   C73   S    
C57   C75   S    
C85   H73   S    
C16   C63   A    
C47   H31   S    
C72   C81   S    
C24   C66   A    
C23   H8    S    
N25   Ni4   S    
C18   H140  S    
C84   H72   S    
N3    Ni8   S    
C127  H99   S    
C3    C86   A    
C102  H91   S    
C62   N46   T    
C145  C147  S    
C55   H51   S    
N24   Ni1   S    
N7    N8    A    
C109  C152  S    
C48   H33   S    
C72   C74   S    
C56   C139  S    
C78   C154  A    
C9    N10   A    
C25   H11   S    
C39   C117  S    
C128  H96   S    
C84   C153  A    
C104  H76   S    
N2    N50   A    
C48   C49   S    
C70   C73   S    
C50   C51   S    
C87   C154  A    
C24   N26   A    
C41   C119  S    
C14   N15   A    
C151  H119  S    
C27   H16   S    
C7    C151  A    
C149  N6    A    
C126  C135  S    
C2    N24   A    
C137  O7    S    
C29   H22   S    
C104  C108  S    
C44   C45   S    
C45   H29   S    
C133  N21   A    
C22   H7    S    
C43   H23   S    
C134  H110  S    
C115  C124  S    
C36   C105  S    
C91   C108  S    
C71   C74   S    
C17   H138  S    
C53   H48   S    
C19   H144  S    
C103  C109  S    
C61   C73   S    
C85   C152  A    
C147  H115  S    
C125  H82   S    
C121  H85   S    
C50   H40   S    
C89   H81   S    
C54   H50   S    
C100  H129  S    
C94   H46   S    
C69   O1    S    
C99   H89   S    
C53   H47   S    
C144  N22   A    
C64   C100  A    
N5    N6    A    
C97   H61   S    
C9    C35   A    
C62   C74   S    
C52   H43   S    
C27   O4    S    
C11   H123  S    
C100  N18   A    
C58   C139  S    
N2    Ni5   S    
C13   H135  S    
C86   H74   S    
C65   C114  S    
C117  H67   S    
C70   C88   S    
C4    C143  S    
C92   C98   S    
N9    N10   A    
C10   N11   A    
C26   H14   S    
C105  H77   S    
C72   O4    S    
C51   H42   S    
C121  H83   S    
C16   N17   A    
C1    H1    S    
C146  H112  S    
C65   C111  A    
C82   H136  S    
C129  C138  S    
C99   H63   S    
C26   H15   S    
C8    N9    A    
C10   C46   A    
C102  C108  S    
C39   N36   T    
N19   N22   A    
N15   Ni6   S    
C1    N1    A    
C134  N4    A    
C41   N38   T    
C71   C80   S    
C2    C64   A    
C30   N27   T    
C4    C131  A    
C23   H9    S    
C5    C134  A    
C3    C89   A    
C19   H142  S    
C126  H94   S    
C148  H116  S    
C149  H117  S    
C147  H113  S    
C83   H2    S    
N34   N48   A    
C34   C104  S    
C128  C137  S    
C6    C148  A    
C15   N16   A    
C98   C116  S    
C47   C48   S    
N50   Ni6   S    
N11   Ni3   S    
C52   H45   S    
C114  C118  S    
C92   H24   S    
C102  H65   S    
C35   C141  S    
N18   Ni6   S    
C136  O6    S    
C136  H104  S    
N47   Ni6   S    
C70   O2    S    
C67   H59   S    
C75   C79   S    
C23   O3    S    
C27   H17   S    
N22   Ni2   S    
C123  H86   S    
C106  C110  S    
C14   H126  S    
N12   Ni2   S    
C83   C90   S    
C98   H62   S    
C26   H12   S    
C64   C113  S    
C21   H3    S    
C30   C91   S    
C76   C81   S    
C49   H37   S    
C37   C106  S    
C95   C113  S    
N21   N25   A    
N13   Ni4   S    
C106  C121  S    
C20   H146  S    
C106  H78   S    
C23   C25   S    
C16   H128  S    
N21   Ni7   S    
C31   C92   S    
C27   C28   S    
N23   N49   A    
C15   C63   A    
C86   N48   A    
C128  C142  S    
C120  H71   S    
C50   O7    S    
C8    H120  S    
