data_mof_unit_pretest_1170.cif
_audit_creation_date              2013-03-05T16:30:35-0500
_audit_creation_method            fapswitch 2.2
_symmetry_space_group_name_H-M    P1
_symmetry_Int_Tables_number       1
_space_group_crystal_system       triclinic
_cell_length_a                    8.728325
_cell_length_b                    10.850369
_cell_length_c                    9.568115
_cell_angle_alpha                 90.663596
_cell_angle_beta                  97.797363
_cell_angle_gamma                 90.522061
_cell_volume                      897.662938832

loop_
_atom_site_label
_atom_site_type_symbol
_atom_site_description
_atom_site_fract_x
_atom_site_fract_y
_atom_site_fract_z
_atom_type_partial_charge
O1    O     O_R   0.500000 0.319640 0.618810 -0.570266
O2    O     O_R   0.500020 0.319680 0.381230 -0.574565
C1    C     C_R   0.495724 0.262581 0.498774 0.801188
O3    O     O_R   0.274830 0.499980 0.591380 -0.584247
O4    O     O_R   0.274850 0.500020 0.353800 -0.593100
C2    C     C_R   0.204030 0.497832 0.463956 0.891360
Cu1   Cu    Cu3+1 0.499990 0.499980 0.640670 1.045411
Cu2   Cu    Cu3+1 0.500010 0.500020 0.359330 1.003935
O5    O     O_R   0.499980 0.680320 0.618770 -0.552268
O6    O     O_R   0.500000 0.680360 0.381190 -0.593403
O7    O     O_R   0.725150 0.499980 0.646200 -0.563518
O8    O     O_R   0.725170 0.500020 0.408620 -0.588215
C3    C     C_R   0.498172 0.737715 0.500361 0.865105
C4    C     C_R   0.796050 0.499105 0.536094 0.904740
C5    C     C_2   0.038329 0.492640 0.444441 -0.358542
H1    H     H_    0.979124 0.482678 0.337760 0.182109
C6    C     C_2   0.961964 0.498879 0.555929 -0.271214
H2    H     H_    0.021789 0.505239 0.662906 0.220347
C7    C     C_R   0.474236 0.066102 0.620671 -0.019444
C8    C     C_R   0.479218 0.129770 0.495820 -0.117726
C9    C     C_R   0.464384 0.062657 0.368101 -0.116758
H3    H     H_    0.458318 0.108947 0.267836 0.219136
C10   C     C_R   0.466363 0.933944 0.369687 -0.136856
H4    H     H_    0.459685 0.884402 0.270172 0.217095
C11   C     C_R   0.485687 0.871080 0.498916 -0.080161
C12   C     C_R   0.481902 0.939534 0.623178 0.017844
C13   C     C_3   0.578372 0.942496 0.767242 0.425863
C14   C     C_3   0.565389 0.083412 0.763599 0.079404
H5    H     H_    0.676715 0.133786 0.761118 0.136285
C15   C     C_R   0.634450 0.515391 0.090650 0.228216
N1    N     N_R   0.500980 0.500930 0.148050 -0.206169
C16   C     C_R   0.369180 0.473937 0.057603 0.037204
H6    H     H_    0.262606 0.453609 0.098623 0.178714
C17   C     C_R   0.369004 0.474449 0.909266 0.085024
H7    H     H_    0.262200 0.454633 0.841507 0.170020
N2    N     N_R   0.500990 0.500890 0.852140 -0.230494
C18   C     C_R   0.635344 0.512623 0.943321 0.221240
C19   C     C_3   0.745579 0.619502 0.952782 0.155669
C20   C     C_3   0.739951 0.624772 0.110619 -0.496246
H8    H     H_    0.697086 0.700757 0.894825 0.182716
H9    H     H_    0.851993 0.605051 0.175061 0.216988
H10   H     H_    0.681403 0.707966 0.145360 0.231321
N3    N     N_R   0.898580 0.585474 0.919570 0.136092
O9    O     O_R   0.982926 0.667060 0.865882 -0.273451
O10   O     O_R   0.957514 0.478711 0.955345 -0.402631
N4    N     N_R   0.502328 0.884477 0.877878 0.129952
O11   O     O_R   0.556214 0.903797 0.009920 -0.346789
O12   O     O_R   0.381548 0.813207 0.846110 -0.308072
N5    N     N_R   0.739696 0.903642 0.770762 0.080097
O13   O     O_R   0.787795 0.849503 0.662977 -0.358870
O14   O     O_R   0.839159 0.929431 0.881474 -0.260830
N6    N     N_R   0.472810 0.135725 0.866203 0.173646
O15   O     O_R   0.540978 0.199902 0.972884 -0.346567
O16   O     O_R   0.323601 0.118535 0.853123 -0.286320

loop_
_geom_bond_atom_site_label_1
_geom_bond_atom_site_label_2
_geom_bond_distance
_ccdc_geom_bond_type
O4    Cu2   1.958793 S    
C19   H8    1.103805 S    
C10   H4    1.082360 S    
C5    C6    1.333733 D    
C18   C19   1.494123 S    
N3    O10   1.302289 A    
Cu1   N2    2.022113 S    
N1    C16   1.369658 A    
Cu2   O8    1.957858 S    
C16   H6    1.079501 S    
C10   C11   1.409829 A    
C6    H2    1.085259 S    
C11   C12   1.398935 A    
C1    C8    1.446491 S    
C20   H9    1.107066 S    
C9    H3    1.083178 S    
N6    O15   1.300765 A    
Cu1   O7    1.958794 S    
C7    C14   1.494849 S    
C14   N6    1.466159 S    
C4    C6    1.434803 S    
C3    C11   1.452228 S    
C12   C13   1.514478 S    
O4    C2    1.292532 A    
O3    Cu1   1.957859 S    
C13   N4    1.468299 S    
O3    C2    1.289783 A    
N2    C18   1.367348 A    
N6    O16   1.302828 A    
C15   C20   1.490003 S    
O2    C1    1.295105 A    
C20   H10   1.110863 S    
C17   N2    1.369922 A    
C9    C10   1.397083 A    
N3    O9    1.300308 A    
C15   N1    1.362236 A    
C17   H7    1.079215 S    
O7    C4    1.292170 A    
N4    O12   1.301724 A    
C5    H1    1.083482 S    
C13   N5    1.469648 S    
Cu1   Cu2   2.691922 S    
C19   C20   1.518082 S    
C8    C9    1.405401 A    
Cu2   O6    1.965493 S    
N5    O13   1.301084 A    
C13   C14   1.534660 S    
Cu1   O5    1.970355 S    
C7    C12   1.375871 A    
O5    C3    1.297434 A    
N4    O11   1.300833 A    
C14   H5    1.113727 S    
N5    O14   1.301263 A    
C2    C5    1.433456 S    
O1    Cu1   1.965493 S    
Cu2   N1    2.022854 S    
O2    Cu2   1.970354 S    
C19   N3    1.463598 S    
C7    C8    1.392421 A    
C15   C18   1.410713 A    
O8    C4    1.290785 A    
O1    C1    1.294317 A    
O6    C3    1.294750 A    
C16   C17   1.419172 A    
