data_mof_unit_pretest_372.cif
_audit_creation_date              2012-12-10T20:42:44-0500
_audit_creation_method            fapswitch 2.2
_symmetry_space_group_name_H-M    P1
_symmetry_Int_Tables_number       1
_space_group_crystal_system       triclinic
_cell_length_a                    8.908559
_cell_length_b                    10.660399
_cell_length_c                    9.887034
_cell_angle_alpha                 90.026193
_cell_angle_beta                  90.025332
_cell_angle_gamma                 89.991387
_cell_volume                      938.95948936

loop_
_atom_site_label
_atom_site_type_symbol
_atom_type_description
_atom_site_fract_x
_atom_site_fract_y
_atom_site_fract_z
_atom_type_partial_charge
C1    C     C_R   0.503270 0.259972 0.500124 0.900158
C2    C     C_R   0.368183 0.500924 0.928750 0.221166
C3    C     C_3   0.247464 0.404274 0.922822 -0.508511
C4    C     C_R   0.218775 0.499982 0.499967 0.935832
C5    C     C_3   0.247844 0.403663 0.076454 -0.506262
C6    C     C_R   0.509893 0.739661 0.500104 0.875057
C7    C     C_R   0.781244 0.500000 0.500034 0.920162
C8    C     C_1   0.065424 0.499958 0.499973 -0.212480
C9    C     C_1   0.934603 0.499972 0.500033 -0.206589
C10   C     C_R   0.498655 0.063281 0.621221 0.143968
C11   C     C_R   0.525887 0.128470 0.502250 -0.202775
C12   C     C_R   0.600608 0.936758 0.391695 0.426609
C13   C     C_R   0.588857 0.066692 0.390686 -0.222692
C14   C     C_R   0.538908 0.870943 0.503180 -0.242979
C15   C     C_R   0.503474 0.935782 0.621176 0.100183
C16   C     C_3   0.370585 0.925058 0.712890 -0.435650
C17   C     C_3   0.365750 0.067218 0.713328 -0.478035
C18   C     C_R   0.368205 0.500678 0.071080 0.233271
C19   C     C_R   0.630344 0.509629 0.071851 -0.115251
C20   C     C_R   0.630350 0.509582 0.928226 -0.125472
H1    H     H_    0.286506 0.314667 0.877463 0.212100
H2    H     H_    0.713140 0.800020 0.313074 0.337922
H3    H     H_    0.400842 0.884431 0.812801 0.215818
H4    H     H_    0.141816 0.442143 0.879031 0.207973
H5    H     H_    0.287565 0.313676 0.120707 0.218504
H6    H     H_    0.271761 0.881425 0.662674 0.197192
H7    H     H_    0.263950 0.106634 0.663911 0.196660
H8    H     H_    0.393982 0.108411 0.813433 0.207443
H9    H     H_    0.735918 0.515621 0.125359 0.154924
H10   H     H_    0.735938 0.515478 0.874822 0.156247
H11   H     H_    0.625817 0.118356 0.302374 0.190691
H12   H     H_    0.142253 0.440894 0.120938 0.208142
N1    N     N_R   0.499010 0.499140 0.142800 -0.107542
N2    N     N_R   0.499010 0.499180 0.857150 -0.109479
O1    O     O_R   0.500020 0.316790 0.614690 -0.611198
O2    O     O_R   0.500000 0.316760 0.385350 -0.623158
O3    O     O_R   0.285350 0.500020 0.614650 -0.618516
O4    O     O_R   0.285340 0.499980 0.385310 -0.613866
O5    O     O_R   0.500000 0.683240 0.614650 -0.610297
O6    O     O_R   0.499980 0.683210 0.385310 -0.596878
O7    O     O_R   0.714660 0.500020 0.614690 -0.624949
O8    O     O_R   0.714650 0.499980 0.385350 -0.633075
O9    O     O_3   0.665988 0.878975 0.281712 -0.750919
Zn1   Zn    Zn3+2 0.500010 0.500020 0.653130 0.944441
Zn2   Zn    Zn3+2 0.499990 0.499980 0.346870 0.952110

loop_
_geom_bond_atom_site_label_1
_geom_bond_atom_site_label_2
_ccdc_geom_bond_type
O5    Zn1   S    
C2    C18   A    
N1    Zn2   S    
C19   C20   A    
C1    C11   S    
C4    C8    S    
C5    H12   S    
C20   N2    A    
C2    N2    A    
O3    Zn1   S    
C2    C3    S    
O2    Zn2   S    
C20   H10   S    
C4    O3    A    
O1    Zn1   S    
C11   C13   A    
C3    H4    S    
C5    H5    S    
O7    Zn1   S    
C12   C14   A    
C16   H3    S    
C10   C15   A    
C7    O7    A    
C16   H6    S    
O6    Zn2   S    
C18   N1    A    
C6    O6    A    
C3    H1    S    
C6    C14   S    
C10   C11   A    
C10   C17   S    
C15   C16   S    
C19   H9    S    
N2    Zn1   S    
C12   C13   A    
C1    O1    A    
C19   N1    A    
C7    O8    A    
C7    C9    S    
C6    O5    A    
C16   C17   S    
O4    Zn2   S    
C5    C18   S    
C14   C15   A    
C17   H8    S    
C12   O9    S    
C13   H11   S    
H2    O9    S    
C1    O2    A    
C4    O4    A    
C8    C9    T    
C3    C5    S    
O8    Zn2   S    
C17   H7    S    
