data_mof_unit_pretest_288.cif
_audit_creation_date              2012-12-10T18:34:28-0500
_audit_creation_method            fapswitch 2.2
_symmetry_space_group_name_H-M    P1
_symmetry_Int_Tables_number       1
_space_group_crystal_system       triclinic
_cell_length_a                    14.836147
_cell_length_b                    15.493623
_cell_length_c                    15.716336
_cell_angle_alpha                 90.063137
_cell_angle_beta                  103.733038
_cell_angle_gamma                 81.217131
_cell_volume                      3465.89358026

loop_
_atom_site_label
_atom_site_type_symbol
_atom_type_description
_atom_site_fract_x
_atom_site_fract_y
_atom_site_fract_z
_atom_type_partial_charge
C1    C     C_R   0.441123 0.662465 0.485796 0.875673
C2    C     C_R   0.558870 0.337606 0.510407 0.875135
C3    C     C_R   0.285387 0.873877 0.392019 0.101616
C4    C     C_R   0.721075 0.122946 0.516547 0.083275
C5    C     C_R   0.313445 0.785579 0.419309 -0.223341
C6    C     C_R   0.690420 0.212507 0.521949 -0.221229
C7    C     C_R   0.471340 0.812614 0.480587 -0.267144
C8    C     C_R   0.529076 0.188415 0.479847 -0.268129
C9    C     C_R   0.448408 0.898309 0.446967 0.057774
C10   C     C_R   0.556923 0.099917 0.469377 0.053069
C11   C     C_R   0.353089 0.930924 0.406721 0.154589
C12   C     C_R   0.654224 0.065837 0.492612 0.171586
C13   C     C_R   0.518032 0.953059 0.456210 0.088546
C14   C     C_R   0.489299 0.043887 0.442251 0.083270
C15   C     C_R   0.394119 0.075672 0.401609 -0.242363
C16   C     C_R   0.615334 0.919802 0.477615 -0.257608
C17   C     C_R   0.327760 0.019719 0.382461 -0.226144
C18   C     C_R   0.682158 0.975474 0.493174 -0.217656
C19   C     C_R   0.839459 0.635488 0.638040 0.060581
C20   C     C_R   0.178230 0.332730 0.406451 0.040937
C21   C     C_R   0.748724 0.616415 0.607018 -0.186841
C22   C     C_R   0.257269 0.371783 0.409430 -0.101071
C23   C     C_R   0.500418 0.500213 0.661948 0.900736
C24   C     C_R   0.499478 0.499962 0.338037 0.895760
C25   C     C_R   0.800972 0.505380 0.518084 0.671659
C26   C     C_R   0.200555 0.491320 0.485830 0.678597
C27   C     C_R   0.896432 0.514360 0.554670 -0.190717
C28   C     C_R   0.124946 0.449464 0.497150 -0.166372
C29   C     C_R   0.915486 0.583567 0.612667 0.012770
C30   C     C_R   0.111934 0.368775 0.454880 -0.073494
C31   C     C_R   0.972564 0.459227 0.532261 -0.160419
C32   C     C_R   0.060449 0.487227 0.546304 -0.133133
C33   C     C_R   0.082224 0.546972 0.613896 0.539224
C34   C     C_R   0.967635 0.372618 0.505880 0.622418
C35   C     C_R   0.009976 0.596257 0.645377 0.010998
C36   C     C_R   0.035514 0.327758 0.466408 -0.003345
C37   C     C_3   0.411484 0.523157 0.007271 0.650566
C38   C     C_3   0.585546 0.479617 0.992190 0.650756
C39   C     C_3   0.463064 0.582716 0.963709 -0.311911
C40   C     C_3   0.533933 0.420015 0.035645 -0.316515
C41   C     C_1   0.500912 0.500981 0.751045 -0.170395
C42   C     C_1   0.498273 0.500257 0.248802 -0.180992
C43   C     C_3   0.445222 0.442513 0.958969 -0.332625
C44   C     C_3   0.551769 0.560238 0.040376 -0.326931
C45   C     C_3   0.498571 0.501688 0.916783 0.050070
C46   C     C_3   0.498519 0.501068 0.082606 0.053236
C47   C     C_1   0.500219 0.501452 0.826231 0.004563
C48   C     C_1   0.497907 0.500676 0.173386 0.006252
C49   C     C_R   0.406070 0.755296 0.464457 -0.077075
C50   C     C_R   0.594457 0.244758 0.505829 -0.087768
H1    H     H_    0.433017 0.648178 0.932079 0.164354
H2    H     H_    0.563545 0.354467 0.067242 0.160585
H3    H     H_    0.311569 0.340873 0.379003 0.171428
H4    H     H_    0.690971 0.652677 0.629514 0.167656
H5    H     H_    0.595630 0.607148 0.075732 0.157903
H6    H     H_    0.401525 0.395572 0.923433 0.154209
H7    H     H_    0.256025 0.047061 0.350623 0.165676
H8    H     H_    0.755773 0.947027 0.509036 0.173970
H9    H     H_    0.455606 0.213904 0.471312 0.167202
H10   H     H_    0.540757 0.789408 0.520540 0.161258
H11   H     H_    0.741302 0.256454 0.539541 0.208840
H12   H     H_    0.263780 0.740475 0.403610 0.155287
H13   H     H_    0.369816 0.143345 0.380726 0.156810
H14   H     H_    0.641617 0.850680 0.479684 0.150548
N1    N     N_R   0.731710 0.552730 0.549140 -0.152514
N2    N     N_R   0.268290 0.447270 0.450860 -0.170098
O1    O     O_R   0.383110 0.605620 0.475230 -0.567491
O2    O     O_R   0.616890 0.394380 0.524770 -0.573995
O3    O     O_R   0.531900 0.639510 0.506760 -0.637197
O4    O     O_R   0.468100 0.360490 0.493240 -0.639210
O5    O     O_R   0.425620 0.483070 0.607460 -0.584495
O6    O     O_R   0.574380 0.516930 0.392540 -0.588952
O7    O     O_R   0.574400 0.516960 0.638990 -0.612924
O8    O     O_R   0.425600 0.483040 0.361010 -0.614788
Zn1   Zn    Zn3+2 0.400660 0.477370 0.478940 0.985554
Zn2   Zn    Zn3+2 0.599340 0.522630 0.521060 0.981686
O9    O     O_3   0.207071 0.576715 0.508058 -0.533086
C51   C     C_3   0.143039 0.632345 0.442642 -0.335361
H15   H     H_    0.069496 0.620147 0.434176 0.142797
H16   H     H_    0.163537 0.625941 0.378975 0.149429
H17   H     H_    0.144047 0.700804 0.462971 0.191421
O10   O     O_3   0.775432 0.450783 0.449983 -0.545717
C52   C     C_3   0.777082 0.493007 0.370956 -0.298931
H18   H     H_    0.850068 0.498658 0.367933 0.134485
H19   H     H_    0.732871 0.558795 0.361367 0.155026
H20   H     H_    0.747884 0.453049 0.315544 0.188259
N3    N     N_3   0.852848 0.706700 0.695552 -0.421888
H21   H     H_    0.812096 0.763525 0.663015 0.178319
H22   H     H_    0.827772 0.694574 0.750495 0.189771
N4    N     N_3   0.167974 0.259755 0.350966 -0.481691
H23   H     H_    0.103852 0.271859 0.304437 0.191169
H24   H     H_    0.176001 0.202056 0.387873 0.183754
O11   O     O_3   0.174190 0.554310 0.655030 -0.564296
C53   C     C_3   0.214464 0.479433 0.709868 -0.321434
H25   H     H_    0.226744 0.420828 0.670855 0.169544
H26   H     H_    0.170469 0.467083 0.755605 0.125858
H27   H     H_    0.283758 0.490380 0.750150 0.195639
O12   O     O_3   0.903106 0.326535 0.528272 -0.560693
C54   C     C_3   0.935940 0.299455 0.617553 -0.341288
H28   H     H_    0.936697 0.356301 0.660877 0.163716
H29   H     H_    0.006986 0.259084 0.630678 0.159299
H30   H     H_    0.887791 0.258276 0.635042 0.177487
O13   O     O_3   0.321393 0.547091 0.022963 -0.596600
C55   C     C_3   0.253508 0.554504 0.942625 -0.329887
H31   H     H_    0.248363 0.489400 0.913827 0.153789
H32   H     H_    0.268139 0.600722 0.895277 0.165625
H33   H     H_    0.184043 0.580577 0.954944 0.197981
O14   O     O_3   0.675956 0.457028 0.976857 -0.596818
C56   C     C_3   0.742479 0.440310 0.057739 -0.328530
H34   H     H_    0.729290 0.384268 0.094715 0.157995
H35   H     H_    0.743908 0.499302 0.098124 0.152815
H36   H     H_    0.813173 0.422553 0.044787 0.197894
N5    N     N_3   0.189239 0.905252 0.348233 -0.473962
H37   H     H_    0.147498 0.856876 0.349596 0.177504
H38   H     H_    0.187203 0.917434 0.282334 0.180329
N6    N     N_3   0.819739 0.090238 0.536337 -0.478395
H39   H     H_    0.849889 0.123068 0.494808 0.221284
H40   H     H_    0.848968 0.105750 0.600725 0.182769
N7    N     N_3   0.033976 0.658308 0.711542 -0.413677
H41   H     H_    0.079554 0.625063 0.766826 0.192922
H42   H     H_    0.069364 0.702701 0.687692 0.215163
N8    N     N_3   0.027669 0.238372 0.447203 -0.430885
H43   H     H_    0.088605 0.197680 0.480493 0.183304
H44   H     H_    0.011696 0.229847 0.379806 0.186049

loop_
_geom_bond_atom_site_label_1
_geom_bond_atom_site_label_2
_ccdc_geom_bond_type
C39   H1    S    
N3    H21   S    
O11   C53   S    
C27   C29   A    
C24   C42   S    
C35   N7    S    
C44   H5    S    
O6    Zn2   S    
C55   H32   S    
C20   C30   A    
O9    C51   S    
N6    H39   S    
C40   C46   S    
N1    Zn2   S    
C6    H11   S    
C19   C21   A    
C2    O2    A    
C56   H35   S    
C8    H9    S    
C21   H4    S    
C51   H16   S    
O14   C56   S    
O3    Zn2   S    
C15   C17   A    
C9    C13   A    
C22   N2    A    
C38   C45   S    
C2    C50   S    
C33   C35   A    
C18   H8    S    
C40   C43   S    
C31   C32   A    
C4    C12   A    
C39   C45   S    
C21   N1    A    
C45   C47   S    
C38   C40   S    
C13   C14   A    
C5    C49   A    
C23   O7    A    
C55   H31   S    
C44   C46   S    
C22   H3    S    
N7    H42   S    
C46   C48   S    
C26   O9    S    
O8    Zn1   S    
C27   C31   A    
C26   N2    A    
C23   O5    A    
C28   C32   A    
C25   N1    A    
C7    C49   A    
C4    C6    A    
C3    N5    S    
C56   H36   S    
C37   O13   S    
C51   H15   S    
C53   H27   S    
C40   H2    S    
C20   N4    S    
C1    O3    A    
C37   C43   S    
C36   N8    S    
C38   C44   S    
C9    C11   A    
N4    H24   S    
C52   H18   S    
C54   H30   S    
C41   C47   T    
C31   C34   A    
C42   C48   T    
C6    C50   A    
C53   H26   S    
C43   C45   S    
C10   C12   A    
C16   C18   A    
C52   H19   S    
C20   C22   A    
O10   C52   S    
N3    H22   S    
C10   C14   A    
C25   O10   S    
O7    Zn2   S    
O1    Zn1   S    
N8    H44   S    
C19   C29   A    
C8    C50   A    
C7    H10   S    
O13   C55   S    
C24   O6    A    
N5    H37   S    
C7    C9    A    
C11   C17   A    
C54   H29   S    
C4    N6    S    
C3    C5    A    
C33   O11   S    
N7    H41   S    
C39   C44   S    
C1    O1    A    
O2    Zn2   S    
C29   C35   A    
C26   C28   A    
C23   C41   S    
C54   H28   S    
C30   C36   A    
C32   C33   A    
C28   C30   A    
N8    H43   S    
C19   N3    S    
C37   C39   S    
C56   H34   S    
O5    Zn1   S    
C51   H17   S    
C24   O8    A    
N4    H23   S    
N2    Zn1   S    
C34   O12   S    
N6    H40   S    
C5    H12   S    
C34   C36   A    
C38   O14   S    
C53   H25   S    
C3    C11   A    
C43   H6    S    
C52   H20   S    
C8    C10   A    
O12   C54   S    
C13   C16   A    
C12   C18   A    
O4    Zn1   S    
C15   H13   S    
C14   C15   A    
C16   H14   S    
C37   C46   S    
C2    O4    A    
C1    C49   S    
C55   H33   S    
C17   H7    S    
N5    H38   S    
C25   C27   A    
