data_mof_unit_pretest_1631.cif
_audit_creation_date              2012-10-26T17:58:07-0400
_audit_creation_method            fapswitch 2.2
_symmetry_space_group_name_H-M    P1
_symmetry_Int_Tables_number       1
_space_group_crystal_system       triclinic
_cell_length_a                    37.294523
_cell_length_b                    30.379296
_cell_length_c                    21.915078
_cell_angle_alpha                 90.46938
_cell_angle_beta                  125.458812
_cell_angle_gamma                 89.543574
_cell_volume                      20223.5029599

loop_
_atom_site_label
_atom_site_type_symbol
_atom_type_description
_atom_site_fract_x
_atom_site_fract_y
_atom_site_fract_z
_atom_type_partial_charge
C1    C     C_R   0.414877 0.500074 0.914784 0.548807
C2    C     C_R   0.702848 0.461867 0.185204 -0.120926
C3    C     C_R   0.499977 0.133485 0.500543 0.017079
C4    C     C_R   0.000559 0.725824 0.501642 0.030517
C5    C     C_R   0.500146 0.225828 0.500968 0.030565
C6    C     C_R   0.537346 0.702640 0.555098 -0.121254
C7    C     C_R   0.462363 0.702613 0.443153 -0.120748
C8    C     C_R   0.961876 0.202839 0.479654 -0.120899
C9    C     C_R   0.037205 0.202421 0.517436 -0.121304
C10   C     C_R   0.537462 0.656776 0.555084 -0.129630
C11   C     C_R   0.462214 0.656733 0.443779 -0.128307
C12   C     C_R   0.961885 0.156960 0.479551 -0.128435
C13   C     C_R   0.797353 0.962638 0.815066 -0.121259
C14   C     C_R   0.037477 0.156552 0.518527 -0.129664
C15   C     C_R   0.499833 0.633471 0.499600 0.018079
C16   C     C_R   0.999763 0.133472 0.499336 0.017843
C17   C     C_R   0.013153 0.297107 0.460013 -0.121147
C18   C     C_R   0.985832 0.297636 0.537002 -0.120977
C19   C     C_R   0.486504 0.797215 0.433791 -0.120946
C20   C     C_R   0.513278 0.797530 0.564455 -0.120943
C21   C     C_R   0.499862 0.725813 0.498999 0.030771
C22   C     C_R   0.999478 0.225815 0.498339 0.030560
C23   C     C_R   0.999727 0.366531 0.499108 0.017619
C24   C     C_R   0.202846 0.961863 0.185180 -0.120767
C25   C     C_R   0.500024 0.866530 0.499457 0.018027
C26   C     C_R   0.012952 0.342997 0.459854 -0.130234
C27   C     C_R   0.986303 0.343499 0.537883 -0.128258
C28   C     C_R   0.486924 0.843104 0.434149 -0.129367
C29   C     C_R   0.513045 0.843390 0.564528 -0.128910
C30   C     C_2   0.528754 0.524538 0.745292 -0.159680
C31   C     C_2   0.471246 0.475462 0.254707 -0.159708
C32   C     C_2   0.028752 0.024534 0.745292 -0.158825
C33   C     C_2   0.971235 0.975478 0.254693 -0.158371
C34   C     C_2   0.497587 0.504451 0.681334 -0.114479
C35   C     C_R   0.343466 0.462537 0.824482 -0.129588
C36   C     C_2   0.502413 0.495549 0.318665 -0.114513
C37   C     C_2   0.997583 0.004452 0.681331 -0.115289
C38   C     C_2   0.002415 0.995541 0.318667 -0.114846
C39   C     C_2   0.524430 0.528862 0.807804 -0.158560
C40   C     C_2   0.475569 0.471138 0.192196 -0.158589
C41   C     C_2   0.024426 0.028861 0.807801 -0.159505
C42   C     C_2   0.975555 0.971151 0.192178 -0.158891
C43   C     C_R   0.656970 0.461884 0.139402 -0.128491
C44   C     C_R   0.843216 0.962530 0.860831 -0.129691
C45   C     C_R   0.156968 0.961882 0.139386 -0.128414
C46   C     C_R   0.366532 0.500242 0.866058 0.017839
C47   C     C_R   0.633468 0.499759 0.133943 0.017815
C48   C     C_R   0.866533 0.000162 0.866259 0.018065
C49   C     C_R   0.585123 0.499926 0.085216 0.548805
C50   C     C_R   0.133468 0.999758 0.133930 0.017813
C51   C     C_R   0.343032 0.538120 0.860594 -0.128475
C52   C     C_R   0.656533 0.537462 0.175527 -0.129593
C53   C     C_R   0.843286 0.037777 0.824736 -0.128337
C54   C     C_R   0.156535 0.037462 0.175507 -0.129715
C55   C     C_R   0.297154 0.538138 0.814792 -0.120904
C56   C     C_R   0.702401 0.537182 0.222247 -0.121289
C57   C     C_R   0.797408 0.037619 0.778050 -0.120890
C58   C     C_R   0.202403 0.037181 0.222219 -0.121464
C59   C     C_R   0.274192 0.500545 0.772936 0.030558
C60   C     C_R   0.914878 0.000068 0.914828 0.548888
C61   C     C_R   0.725808 0.499460 0.227066 0.030521
C62   C     C_R   0.774195 0.000117 0.773227 0.030678
C63   C     C_R   0.225808 0.999456 0.227038 0.030555
C64   C     C_R   0.202349 0.514184 0.753408 -0.121088
C65   C     C_R   0.797070 0.513125 0.350297 -0.121065
C66   C     C_R   0.702827 0.013442 0.649988 -0.120836
C67   C     C_R   0.297067 0.013121 0.350273 -0.120771
C68   C     C_R   0.156488 0.513714 0.707979 -0.128279
C69   C     C_R   0.842962 0.512929 0.396123 -0.130215
C70   C     C_R   0.656936 0.013025 0.604055 -0.128759
C71   C     C_R   0.085123 0.999926 0.085213 0.548778
C72   C     C_R   0.342958 0.012924 0.396106 -0.128790
C73   C     C_R   0.133480 0.500295 0.632800 0.017650
C74   C     C_R   0.866520 0.499721 0.367200 0.017625
C75   C     C_R   0.633483 0.999965 0.632858 0.017554
C76   C     C_R   0.366520 0.999713 0.367194 0.017675
C77   C     C_R   0.501382 0.499678 0.883856 0.559830
C78   C     C_R   0.498618 0.500322 0.116144 0.559827
C79   C     C_R   0.001380 0.999678 0.883853 0.559689
C80   C     C_R   0.998620 0.000322 0.116146 0.559808
C81   C     C_R   0.157037 0.487081 0.603879 -0.130206
C82   C     C_2   0.504426 0.497649 0.820670 -0.114984
C83   C     C_R   0.843513 0.486304 0.292020 -0.128283
C84   C     C_R   0.656596 0.986973 0.708045 -0.129814
C85   C     C_R   0.343518 0.986289 0.292017 -0.129707
C86   C     C_R   0.202929 0.486880 0.649706 -0.121049
C87   C     C_R   0.797651 0.485829 0.246592 -0.121096
C88   C     C_R   0.702454 0.986735 0.753578 -0.121338
C89   C     C_R   0.297656 0.985815 0.246581 -0.121378
C90   C     C_R   0.225824 0.500583 0.724635 0.030607
C91   C     C_R   0.774176 0.499424 0.275367 0.030570
C92   C     C_R   0.725827 0.000125 0.724908 0.030699
C93   C     C_2   0.495574 0.502351 0.179330 -0.115015
C94   C     C_R   0.274176 0.999417 0.275345 0.030616
C95   C     C_R   0.500068 0.414878 0.500106 0.548845
C96   C     C_R   0.000073 0.914877 0.500153 0.548797
C97   C     C_R   0.499649 0.501380 0.617174 0.559740
C98   C     C_R   0.500351 0.498620 0.382826 0.559740
C99   C     C_R   0.999649 0.001380 0.617173 0.559783
C100  C     C_R   0.000351 0.998619 0.382826 0.559781
C101  C     C_R   0.499932 0.585124 0.499894 0.548856
C102  C     C_R   0.999927 0.085124 0.499847 0.548772
C103  C     C_R   0.999946 0.414876 0.499735 0.550439
C104  C     C_2   0.004420 0.997650 0.820664 -0.115469
C105  C     C_R   0.500009 0.914876 0.499802 0.550539
C106  C     C_R   0.085137 0.500066 0.584908 0.550433
C107  C     C_R   0.914863 0.499952 0.415092 0.550434
C108  C     C_R   0.585137 0.999996 0.584914 0.550476
C109  C     C_R   0.414863 0.999949 0.415090 0.550428
C110  C     C_R   0.000054 0.585138 0.500265 0.550381
C111  C     C_R   0.499991 0.085139 0.500198 0.550392
C112  C     C_R   0.462675 0.297366 0.444842 -0.121371
C113  C     C_R   0.537615 0.297395 0.556909 -0.120873
C114  C     C_R   0.962787 0.797584 0.482525 -0.121330
C115  C     C_2   0.995584 0.002350 0.179339 -0.114191
C116  C     C_R   0.038133 0.797166 0.520387 -0.120941
C117  C     C_R   0.999441 0.274185 0.498360 0.030599
C118  C     C_R   0.499853 0.774185 0.499032 0.030860
C119  C     C_R   0.462558 0.343230 0.444855 -0.129681
C120  C     C_R   0.537765 0.343274 0.556283 -0.128362
C121  C     C_R   0.962514 0.843452 0.481435 -0.129681
C122  C     C_R   0.038123 0.843045 0.520489 -0.128454
C123  C     C_R   0.500167 0.366534 0.500400 0.018078
C124  C     C_R   0.000237 0.866531 0.500664 0.017741
C125  C     C_R   0.500137 0.274196 0.501002 0.030607
C126  C     C_R   0.297598 0.462819 0.777762 -0.121278
C127  C     C_R   0.000522 0.774191 0.501662 0.030449
C128  C     C_R   0.014190 0.702375 0.463032 -0.121012
C129  C     C_R   0.986825 0.702903 0.539956 -0.121197
C130  C     C_R   0.513396 0.202801 0.566160 -0.121195
C131  C     C_R   0.486822 0.202484 0.435596 -0.121218
C132  C     C_R   0.013719 0.656512 0.462150 -0.128264
C133  C     C_R   0.987026 0.657014 0.540115 -0.130239
C134  C     C_R   0.512975 0.156912 0.565800 -0.129613
C135  C     C_R   0.487056 0.156626 0.435524 -0.129204
C136  C     C_R   0.000273 0.633481 0.500893 0.017611
Cu1   Cu    Cu3+1 0.500000 0.544050 0.000000 0.926427
Cu2   Cu    Cu3+1 0.999990 0.500010 0.561010 0.919339
Cu3   Cu    Cu3+1 0.500010 0.000010 0.438990 0.919293
Cu4   Cu    Cu3+1 0.499990 0.000010 0.561010 0.919354
Cu5   Cu    Cu3+1 0.000000 0.044050 0.000000 0.926313
Cu6   Cu    Cu3+1 0.500000 0.455950 0.000000 0.926385
Cu7   Cu    Cu3+1 0.000000 0.955950 0.000000 0.926651
Cu8   Cu    Cu3+1 0.544050 0.500000 0.544060 0.926667
Cu9   Cu    Cu3+1 0.455950 0.500000 0.455940 0.926669
Cu10  Cu    Cu3+1 0.044050 0.000000 0.544060 0.926364
Cu11  Cu    Cu3+1 0.955950 0.000000 0.455940 0.926401
Cu12  Cu    Cu3+1 0.000010 0.500010 0.438990 0.919349
H1    H     H_    0.556546 0.540089 0.750507 0.143565
H2    H     H_    0.860953 0.475810 0.268508 0.127716
H3    H     H_    0.639248 0.976622 0.731491 0.125997
H4    H     H_    0.360962 0.975790 0.268514 0.125889
H5    H     H_    0.023537 0.279463 0.429557 0.108318
H6    H     H_    0.975403 0.280417 0.567280 0.108913
H7    H     H_    0.476284 0.779655 0.382914 0.108273
H8    H     H_    0.523429 0.780238 0.615189 0.108419
H9    H     H_    0.433372 0.279936 0.401499 0.108316
H10   H     H_    0.566913 0.279971 0.600417 0.108936
H11   H     H_    0.933378 0.780315 0.467467 0.108457
H12   H     H_    0.443453 0.459911 0.249493 0.143607
H13   H     H_    0.067624 0.779573 0.535687 0.109134
H14   H     H_    0.433205 0.360427 0.401029 0.125949
H15   H     H_    0.567111 0.360526 0.599877 0.127914
H16   H     H_    0.932951 0.860839 0.466230 0.126913
H17   H     H_    0.067574 0.860110 0.535316 0.127803
H18   H     H_    0.024635 0.719593 0.432779 0.109065
H19   H     H_    0.976425 0.720547 0.570387 0.108447
H20   H     H_    0.523537 0.220363 0.616996 0.108640
H21   H     H_    0.476748 0.219778 0.384902 0.108760
H22   H     H_    0.024243 0.639091 0.431730 0.127799
H23   H     H_    0.056549 0.040078 0.750515 0.145789
H24   H     H_    0.976386 0.639974 0.570210 0.125270
H25   H     H_    0.523227 0.139788 0.616709 0.127065
H26   H     H_    0.476756 0.139300 0.384426 0.127609
H27   H     H_    0.023574 0.360038 0.429732 0.125194
H28   H     H_    0.975797 0.360921 0.568329 0.127720
H29   H     H_    0.476591 0.860231 0.383201 0.125635
H30   H     H_    0.523426 0.860717 0.615664 0.126233
H31   H     H_    0.566666 0.720068 0.598392 0.108093
H32   H     H_    0.433048 0.720036 0.399693 0.108708
H33   H     H_    0.932390 0.220433 0.464385 0.108976
H34   H     H_    0.943428 0.959950 0.249461 0.145226
H35   H     H_    0.066608 0.219689 0.532463 0.108280
H36   H     H_    0.467456 0.493212 0.673023 0.107554
H37   H     H_    0.532544 0.506787 0.326977 0.107573
H38   H     H_    0.967449 0.993219 0.673014 0.106304
H39   H     H_    0.032555 0.006758 0.326989 0.106079
H40   H     H_    0.566832 0.639579 0.598863 0.125916
H41   H     H_    0.432852 0.639483 0.400231 0.127872
H42   H     H_    0.932440 0.139895 0.464753 0.127587
H43   H     H_    0.067034 0.139164 0.533702 0.126700
H44   H     H_    0.539930 0.556686 0.845813 0.145302
H45   H     H_    0.139048 0.524212 0.731490 0.127676
H46   H     H_    0.460069 0.443314 0.154187 0.145342
H47   H     H_    0.039929 0.056683 0.845812 0.145664
H48   H     H_    0.960029 0.943343 0.154141 0.143668
H49   H     H_    0.493239 0.467501 0.787717 0.106182
H50   H     H_    0.506761 0.532499 0.212283 0.106209
H51   H     H_    0.993230 0.967502 0.787709 0.107209
H52   H     H_    0.006795 0.032488 0.212316 0.106545
H53   H     H_    0.280339 0.433422 0.746147 0.108376
H54   H     H_    0.720452 0.432385 0.188623 0.108977
H55   H     H_    0.779913 0.933316 0.811636 0.108156
H56   H     H_    0.859984 0.523544 0.453869 0.125286
H57   H     H_    0.220449 0.932380 0.188599 0.108926
H58   H     H_    0.360864 0.432981 0.827538 0.126884
H59   H     H_    0.639917 0.432446 0.107709 0.127571
H60   H     H_    0.860402 0.933163 0.892480 0.125919
H61   H     H_    0.139913 0.932444 0.107698 0.127716
H62   H     H_    0.360086 0.567558 0.892281 0.127536
H63   H     H_    0.639133 0.567016 0.172475 0.126936
H64   H     H_    0.860549 0.067140 0.827783 0.127960
H65   H     H_    0.139138 0.067017 0.172456 0.126746
H66   H     H_    0.279550 0.567623 0.811368 0.108926
H67   H     H_    0.639830 0.023332 0.546313 0.127325
H68   H     H_    0.719658 0.566579 0.253866 0.108442
H69   H     H_    0.779994 0.066930 0.746441 0.108910
H70   H     H_    0.219662 0.066578 0.253835 0.108357
H71   H     H_    0.219547 0.524605 0.811294 0.108712
H72   H     H_    0.779405 0.523497 0.373469 0.108613
H73   H     H_    0.720411 0.023634 0.626882 0.108812
H74   H     H_    0.279398 0.023497 0.373437 0.108748
H75   H     H_    0.220594 0.476502 0.626536 0.108563
H76   H     H_    0.780454 0.475411 0.188705 0.108764
H77   H     H_    0.719725 0.976609 0.811452 0.108275
H78   H     H_    0.359976 0.023543 0.453850 0.126992
H79   H     H_    0.280462 0.975393 0.188696 0.108482
H80   H     H_    0.140015 0.476463 0.546134 0.125245
O1    O     O_R   0.435730 0.537200 0.935720 -0.511175
O2    O     O_R   0.935730 0.500010 0.384200 -0.510415
O3    O     O_R   0.564270 0.000010 0.615800 -0.514133
O4    O     O_R   0.435730 0.000010 0.384200 -0.514089
O5    O     O_R   0.000010 0.564280 0.448470 -0.510370
O6    O     O_R   0.999990 0.564280 0.551530 -0.513691
O7    O     O_R   0.500010 0.064280 0.448470 -0.512313
O8    O     O_R   0.499990 0.064280 0.551530 -0.511949
O9    O     O_R   0.435730 0.462800 0.935730 -0.514924
O10   O     O_R   0.564270 0.462800 0.064270 -0.511183
O11   O     O_R   0.935730 0.962800 0.935730 -0.514770
O12   O     O_R   0.564270 0.537200 0.064280 -0.514921
O13   O     O_R   0.064270 0.962800 0.064270 -0.511233
O14   O     O_R   0.500010 0.537200 0.910980 -0.500850
O15   O     O_R   0.499990 0.537200 0.089020 -0.509360
O16   O     O_R   0.000010 0.037200 0.910980 -0.503084
O17   O     O_R   0.999990 0.037200 0.089020 -0.507362
O18   O     O_R   0.500010 0.462800 0.910980 -0.509367
O19   O     O_R   0.499990 0.462800 0.089020 -0.500865
O20   O     O_R   0.000010 0.962800 0.910980 -0.507207
O21   O     O_R   0.999990 0.962800 0.089020 -0.502803
O22   O     O_R   0.537200 0.435730 0.537210 -0.511320
O23   O     O_R   0.935730 0.037200 0.935720 -0.511307
O24   O     O_R   0.462800 0.435730 0.462790 -0.514802
O25   O     O_R   0.037200 0.935730 0.537210 -0.511208
O26   O     O_R   0.962800 0.935730 0.462790 -0.514899
O27   O     O_R   0.537190 0.500000 0.626220 -0.504959
O28   O     O_R   0.462810 0.500000 0.373780 -0.504962
O29   O     O_R   0.037190 0.000000 0.626220 -0.501003
O30   O     O_R   0.962810 0.000000 0.373780 -0.500956
O31   O     O_R   0.462790 0.500000 0.551820 -0.505214
O32   O     O_R   0.537210 0.500000 0.448180 -0.505215
O33   O     O_R   0.962790 0.000000 0.551820 -0.509249
O34   O     O_R   0.064270 0.037200 0.064280 -0.514890
O35   O     O_R   0.037210 0.000000 0.448180 -0.509250
O36   O     O_R   0.537200 0.564270 0.537200 -0.514790
O37   O     O_R   0.462800 0.564270 0.462800 -0.511305
O38   O     O_R   0.037200 0.064270 0.537200 -0.514898
O39   O     O_R   0.962800 0.064270 0.462800 -0.511192
O40   O     O_R   0.000000 0.435740 0.448480 -0.513662
O41   O     O_R   0.000000 0.435740 0.551520 -0.510346
O42   O     O_R   0.500000 0.935740 0.448480 -0.511876
O43   O     O_R   0.500000 0.935740 0.551520 -0.512167
O44   O     O_R   0.064280 0.500010 0.512760 -0.513621
O45   O     O_R   0.935720 0.500010 0.487240 -0.513626
O46   O     O_R   0.564280 0.000010 0.512760 -0.510025
O47   O     O_R   0.435720 0.000010 0.487240 -0.509936
O48   O     O_R   0.064270 0.500010 0.615800 -0.510414

loop_
_geom_bond_atom_site_label_1
_geom_bond_atom_site_label_2
_ccdc_geom_bond_type
C8    H33   S    
C105  O43   A    
C54   H65   S    
C83   C87   A    
Cu1   Cu6   S    
C106  O44   A    
C114  C127  A    
C81   H80   S    
C55   C59   A    
C6    H31   S    
C22   C117  S    
C19   H7    S    
Cu5   O34   S    
Cu12  O44   S    
Cu9   O24   S    
C110  C136  S    
C2    H54   S    
C64   C90   A    
C40   C93   D    
C72   C76   A    
C17   H5    S    
C55   H66   S    
C98   O28   A    
Cu2   O41   S    
C25   C105  S    
C57   C62   A    
C47   C49   S    
C40   H46   S    
Cu7   O20   S    
C59   C126  A    
C7    C11   A    
C63   C94   S    
C50   C54   A    
C116  C122  A    
Cu5   O17   S    
C80   O17   A    
C70   H67   S    
C64   C68   A    
Cu4   O47   S    
C134  H25   S    
C133  H24   S    
Cu1   O14   S    
C96   O25   A    
C36   H37   S    
C108  O46   A    
C10   C15   A    
Cu5   Cu7   S    
C109  O4    A    
C9    C22   A    
C105  O42   A    
Cu9   O31   S    
C99   O29   A    
C78   C93   S    
C98   O32   A    
C38   H39   S    
C24   H57   S    
C44   H60   S    
C34   C97   S    
C31   C40   S    
C95   O22   A    
C65   C91   A    
C77   O18   A    
C101  O36   A    
C23   C26   A    
C89   C94   A    
Cu10  O38   S    
C121  C124  A    
C101  O37   A    
C35   H58   S    
C120  H15   S    
C36   C98   S    
C74   C107  S    
C114  C121  A    
C11   C15   A    
C85   C89   A    
C23   C103  S    
C13   C62   A    
C12   C16   A    
C19   C118  A    
C3    C111  S    
C76   C109  S    
Cu6   O18   S    
C116  C127  A    
C62   C92   S    
C30   C39   S    
C67   C94   A    
C111  O7    A    
C32   C41   S    
Cu7   O13   S    
Cu3   O46   S    
C34   H36   S    
C68   H45   S    
C23   C27   A    
C113  H10   S    
Cu11  O33   S    
Cu7   O21   S    
C28   H29   S    
C74   C83   A    
C3    C135  A    
C31   H12   S    
C18   H6    S    
C120  C123  A    
C8    C12   A    
C97   O27   A    
C83   H2    S    
C71   O34   A    
C77   C82   S    
C24   C45   A    
C75   C108  S    
C122  H17   S    
C72   H78   S    
C58   H70   S    
C128  H18   S    
C130  C134  A    
C132  H22   S    
C89   H79   S    
C49   O12   A    
C107  O45   A    
C128  C132  A    
C119  H14   S    
C73   C81   A    
Cu8   O27   S    
C48   C60   S    
C20   C29   A    
C126  H53   S    
C25   C29   A    
C48   C53   A    
Cu3   O42   S    
C100  O30   A    
Cu5   O16   S    
C32   C37   D    
C87   C91   A    
C30   C34   D    
Cu2   O45   S    
C43   H59   S    
C77   O14   A    
C135  H26   S    
Cu7   O11   S    
C116  H13   S    
C69   C74   A    
C106  O48   A    
C71   O13   A    
C82   H49   S    
Cu1   O1    S    
C112  H9    S    
Cu2   Cu12  S    
C60   O11   A    
C96   C124  S    
C49   O10   A    
C30   H1    S    
C66   C92   A    
C1    O9    A    
C68   C73   A    
C79   O16   A    
C121  H16   S    
C46   C51   A    
C45   H61   S    
C13   H55   S    
C129  H19   S    
Cu2   O48   S    
C11   H41   S    
C59   C90   S    
C66   H73   S    
C75   C84   A    
C27   H28   S    
C35   C126  A    
C9    C14   A    
C84   H3    S    
C21   C118  S    
C9    H35   S    
C1    O1    A    
C60   O23   A    
C113  C120  A    
Cu6   O9    S    
C10   H40   S    
C37   H38   S    
C18   C117  A    
C88   H77   S    
C2    C43   A    
C132  C136  A    
C78   O19   A    
Cu10  O35   S    
Cu9   O28   S    
C50   C71   S    
C88   C92   A    
C103  O40   A    
C15   C101  S    
C42   H48   S    
C19   C28   A    
C8    C22   A    
C112  C125  A    
Cu3   O4    S    
C61   C91   S    
C69   H56   S    
C133  C136  A    
C129  C133  A    
C100  O35   A    
Cu11  O39   S    
C5    C130  A    
C32   H23   S    
C5    C125  S    
C24   C63   A    
C119  C123  A    
C80   O21   A    
Cu10  O25   S    
C86   C90   A    
Cu5   O23   S    
C104  H51   S    
C14   C16   A    
C79   C104  S    
Cu2   O6    S    
Cu12  O2    S    
C86   H75   S    
C33   C42   S    
C122  C124  A    
Cu8   O36   S    
C103  O41   A    
Cu12  O5    S    
C52   H63   S    
C97   O31   A    
Cu10  Cu11  S    
C54   C58   A    
C95   C123  S    
C58   C63   A    
Cu6   O10   S    
Cu8   O22   S    
C20   C118  A    
C131  H21   S    
C4    C128  A    
C53   C57   A    
C20   H8    S    
C64   H71   S    
C56   C61   A    
C52   C56   A    
C38   C100  S    
C18   C27   A    
C81   C86   A    
C39   C82   D    
Cu8   Cu9   S    
Cu10  O29   S    
C95   O24   A    
C6    C10   A    
C112  C119  A    
Cu9   O37   S    
Cu3   Cu4   S    
C2    C61   A    
C79   O20   A    
C4    C129  A    
C17   C117  A    
C12   H42   S    
C115  H52   S    
Cu11  O26   S    
C131  C135  A    
C33   C38   D    
C41   C104  D    
C102  O39   A    
C3    C134  A    
C87   H76   S    
Cu12  O40   S    
Cu1   O12   S    
C93   H50   S    
C85   H4    S    
C96   O26   A    
C41   H47   S    
C44   C48   A    
C7    C21   A    
C16   C102  S    
C51   H62   S    
Cu3   O7    S    
C39   H44   S    
C6    C21   A    
C37   C99   S    
C73   C106  S    
C66   C70   A    
C84   C88   A    
C57   H69   S    
C26   H27   S    
C78   O15   A    
Cu4   O43   S    
C65   C69   A    
C80   C115  S    
C67   H74   S    
C65   H72   S    
C17   C26   A    
C7    H32   S    
C51   C55   A    
C110  O5    A    
C1    C46   S    
C114  H11   S    
C56   H68   S    
C111  O8    A    
Cu8   O32   S    
C25   C28   A    
Cu1   O15   S    
Cu11  O30   S    
C130  H20   S    
C42   C115  D    
C5    C131  A    
C113  C125  A    
C99   O33   A    
Cu4   O3    S    
Cu6   O19   S    
C102  O38   A    
C107  O2    A    
C47   C52   A    
C33   H34   S    
Cu4   O8    S    
C31   C36   D    
C14   H43   S    
C70   C75   A    
C67   C72   A    
C45   C50   A    
C35   C46   A    
C43   C47   A    
C76   C85   A    
C4    C127  S    
C13   C44   A    
C53   H64   S    
C110  O6    A    
C109  O47   A    
C108  O3    A    
C29   H30   S    
