data_mof_unit_pretest_1664.cif
_audit_creation_date              2012-12-10T19:38:08-0500
_audit_creation_method            fapswitch 2.2
_symmetry_space_group_name_H-M    P1
_symmetry_Int_Tables_number       1
_space_group_crystal_system       triclinic
_cell_length_a                    28.009383
_cell_length_b                    26.315465
_cell_length_c                    18.547618
_cell_angle_alpha                 89.993373
_cell_angle_beta                  89.994095
_cell_angle_gamma                 89.969086
_cell_volume                      13671.0749717

loop_
_atom_site_label
_atom_site_type_symbol
_atom_type_description
_atom_site_fract_x
_atom_site_fract_y
_atom_site_fract_z
_atom_type_partial_charge
C1    C     C_R   0.067803 0.433310 0.499616 0.934507
C2    C     C_R   0.000017 0.499954 0.844120 -0.240587
C3    C     C_3   0.936869 0.338448 0.415975 -0.728809
C4    C     C_3   0.150104 0.456428 0.406352 -0.666500
C5    C     C_3   0.936400 0.661359 0.584496 -0.728849
C6    C     C_3   0.849663 0.544429 0.406763 -0.666853
C7    C     C_3   0.065198 0.339146 0.585675 -0.728367
C8    C     C_3   0.348030 0.957051 0.588091 -0.679708
C9    C     C_3   0.564348 0.160543 0.413355 -0.726074
C10   C     C_3   0.650109 0.044855 0.594017 -0.666973
C11   C     C_3   0.438735 0.837084 0.419425 -0.727879
C12   C     C_3   0.650449 0.955815 0.407160 -0.667909
C13   C     C_R   0.501185 0.000158 0.155880 -0.239546
C14   C     C_3   0.440113 0.163773 0.577430 -0.728990
C15   C     C_3   0.344546 0.042338 0.415553 -0.688308
C16   C     C_3   0.563859 0.838818 0.585017 -0.727600
C17   C     C_R   0.500970 0.999911 0.844122 -0.240409
C18   C     C_R   0.010842 0.456079 0.195497 0.526540
C19   C     C_R   0.010765 0.543888 0.804515 0.526538
C20   C     C_R   0.989153 0.543897 0.195471 0.526568
C21   C     C_R   0.989284 0.456031 0.804486 0.526318
C22   C     C_R   0.512102 0.956322 0.195605 0.525967
C23   C     C_R   0.511521 0.043837 0.804387 0.526119
C24   C     C_R   0.489630 0.043924 0.195374 0.524884
C25   C     C_R   0.932292 0.566771 0.499607 0.934923
C26   C     C_R   0.489874 0.956026 0.804618 0.526929
C27   C     C_R   0.009751 0.456181 0.271946 0.096546
C28   C     C_R   0.009674 0.543814 0.728071 0.096564
C29   C     C_R   0.990247 0.543812 0.271921 0.096563
C30   C     C_R   0.990365 0.456147 0.728031 0.096696
C31   C     C_R   0.510390 0.956318 0.272018 0.096699
C32   C     C_R   0.509905 0.043798 0.727973 0.097134
C33   C     C_R   0.489871 0.043694 0.271883 0.099229
C34   C     C_R   0.490356 0.956198 0.728126 0.096469
C35   C     C_R   0.853764 0.406568 0.550399 -0.023036
C36   C     C_R   0.932311 0.433216 0.500398 0.935009
C37   C     C_R   0.104614 0.649388 0.464995 0.003712
C38   C     C_R   0.146268 0.593312 0.550460 -0.022797
C39   C     C_R   0.895772 0.350324 0.465543 0.003592
C40   C     C_R   0.146558 0.407555 0.449209 -0.023303
C41   C     C_R   0.895500 0.649548 0.534558 0.003494
C42   C     C_R   0.853814 0.593363 0.449332 -0.023291
C43   C     C_R   0.105819 0.351243 0.535312 0.003870
C44   C     C_R   0.353287 0.907061 0.548402 -0.020701
C45   C     C_R   0.604907 0.149103 0.464144 0.002915
C46   C     C_R   0.646083 0.093561 0.550865 -0.022618
C47   C     C_R   0.067709 0.566768 0.500379 0.934338
C48   C     C_R   0.396933 0.849454 0.467415 0.002458
C49   C     C_R   0.646252 0.906765 0.449467 -0.022648
C50   C     C_R   0.397997 0.151310 0.530131 0.000381
C51   C     C_R   0.352918 0.092905 0.452325 -0.027339
C52   C     C_R   0.604647 0.850574 0.534813 0.002967
C53   C     C_R   0.818481 0.369524 0.558774 0.616473
C54   C     C_R   0.140430 0.685622 0.474394 0.618306
C55   C     C_R   0.181618 0.630290 0.558791 0.616561
C56   C     C_R   0.860072 0.313981 0.475120 0.618287
C57   C     C_R   0.182220 0.370907 0.440599 0.616127
C58   C     C_R   0.567714 0.933239 0.499622 0.934862
C59   C     C_R   0.859826 0.685919 0.524710 0.618444
C60   C     C_R   0.818590 0.630455 0.440618 0.616349
C61   C     C_R   0.141958 0.315339 0.525642 0.618389
C62   C     C_R   0.318113 0.869942 0.557114 0.616687
C63   C     C_R   0.640619 0.185441 0.473690 0.618437
C64   C     C_R   0.681367 0.130600 0.559203 0.616191
C65   C     C_R   0.361318 0.813037 0.477189 0.618363
C66   C     C_R   0.681504 0.869703 0.440746 0.616456
C67   C     C_R   0.363103 0.188375 0.518772 0.618682
C68   C     C_R   0.318831 0.130797 0.441435 0.616196
C69   C     C_R   0.432296 0.066717 0.499666 0.929717
C70   C     C_R   0.640335 0.814222 0.524931 0.618533
C71   C     C_R   0.821955 0.323379 0.521941 -0.273244
C72   C     C_R   0.178386 0.676321 0.521571 -0.272964
C73   C     C_R   0.179570 0.324877 0.477900 -0.272628
C74   C     C_R   0.821924 0.676591 0.477483 -0.273265
C75   C     C_R   0.322395 0.823077 0.522264 -0.273527
C76   C     C_R   0.678272 0.176429 0.521501 -0.273084
C77   C     C_R   0.678193 0.823555 0.477610 -0.273323
C78   C     C_R   0.323897 0.178267 0.474288 -0.274494
C79   C     C_R   0.000003 0.499953 0.925826 0.385441
C80   C     C_R   0.432403 0.933154 0.500373 0.931563
C81   C     C_R   0.999992 0.499971 0.074157 0.385441
C82   C     C_R   0.501246 0.999964 0.925833 0.385793
C83   C     C_R   0.501388 0.000096 0.074169 0.386195
C84   C     C_R   0.892856 0.396872 0.503481 -0.222598
C85   C     C_R   0.107268 0.603001 0.503377 -0.223186
C86   C     C_R   0.107781 0.397522 0.496588 -0.223424
C87   C     C_R   0.892762 0.603045 0.496500 -0.222727
C88   C     C_R   0.393113 0.896691 0.503338 -0.219609
C89   C     C_R   0.607288 0.102997 0.503281 -0.223797
C90   C     C_R   0.607293 0.897026 0.496592 -0.223169
C91   C     C_R   0.567709 0.066776 0.500362 0.934159
C92   C     C_R   0.393092 0.103260 0.496687 -0.212746
C93   C     C_R   0.215620 0.714378 0.529710 0.408888
C94   C     C_R   0.784726 0.285346 0.529939 0.411686
C95   C     C_R   0.784729 0.714656 0.469165 0.411109
C96   C     C_R   0.216886 0.286928 0.468866 0.408282
C97   C     C_R   0.715427 0.214522 0.529674 0.411669
C98   C     C_R   0.285062 0.785087 0.530128 0.408575
C99   C     C_R   0.286507 0.216306 0.466468 0.405762
C100  C     C_R   0.715387 0.785496 0.469230 0.411142
C101  C     C_3   0.020227 0.406682 0.308580 -0.670205
C102  C     C_R   0.999995 0.499983 0.155863 -0.240591
C103  C     C_3   0.020094 0.593324 0.691458 -0.670328
C104  C     C_3   0.979762 0.593314 0.308533 -0.670299
C105  C     C_3   0.979967 0.406642 0.691360 -0.670026
C106  C     C_3   0.520457 0.906734 0.308684 -0.668261
C107  C     C_3   0.519684 0.093437 0.691313 -0.668042
C108  C     C_3   0.477236 0.092516 0.308788 -0.664282
C109  C     C_3   0.478903 0.907004 0.691376 -0.669149
C110  C     C_3   0.849511 0.455485 0.592998 -0.667901
C111  C     C_3   0.063661 0.661225 0.415139 -0.728450
C112  C     C_3   0.150398 0.544425 0.593180 -0.668012
F1    F     F_    0.022960 0.412676 0.160177 -0.610311
F2    F     F_    0.139095 0.729653 0.435999 -0.618102
F3    F     F_    0.218391 0.622375 0.605357 -0.617262
F4    F     F_    0.861641 0.269761 0.437197 -0.618081
F5    F     F_    0.218672 0.379099 0.393559 -0.617221
F6    F     F_    0.861222 0.730108 0.562715 -0.618105
F7    F     F_    0.781838 0.622543 0.394027 -0.617186
F8    F     F_    0.141209 0.271342 0.564143 -0.618291
F9    F     F_    0.280388 0.878640 0.601623 -0.617643
F10   F     F_    0.639505 0.229293 0.434870 -0.618087
F11   F     F_    0.717944 0.122957 0.606213 -0.617315
F12   F     F_    0.022795 0.587296 0.839857 -0.610298
F13   F     F_    0.363730 0.768171 0.440937 -0.617717
F14   F     F_    0.718266 0.877658 0.394176 -0.617230
F15   F     F_    0.366424 0.233897 0.553145 -0.617568
F16   F     F_    0.280783 0.121481 0.397803 -0.611655
F17   F     F_    0.639002 0.770051 0.562997 -0.618059
F18   F     F_    0.977034 0.587293 0.160124 -0.610242
F19   F     F_    0.977275 0.412605 0.839813 -0.610366
F20   F     F_    0.524771 0.913047 0.160406 -0.610144
F21   F     F_    0.523751 0.087248 0.839566 -0.610098
F22   F     F_    0.477145 0.087099 0.159784 -0.612032
F23   F     F_    0.477860 0.912683 0.840140 -0.610913
F24   F     F_    0.781524 0.377481 0.605003 -0.617321
H1    H     H_    0.002828 0.404754 0.361145 0.248144
H2    H     H_    0.997417 0.404643 0.638813 0.247791
H3    H     H_    0.994510 0.374176 0.722713 0.255164
H4    H     H_    0.940847 0.401538 0.685525 0.239016
H5    H     H_    0.502710 0.904818 0.361007 0.248110
H6    H     H_    0.505905 0.874402 0.277103 0.254411
H7    H     H_    0.559529 0.901387 0.314901 0.239188
H8    H     H_    0.502355 0.095102 0.638685 0.248641
H9    H     H_    0.504526 0.125621 0.722586 0.253907
H10   H     H_    0.558737 0.099226 0.685729 0.238914
H11   H     H_    0.496763 0.096119 0.359565 0.243528
H12   H     H_    0.005654 0.374224 0.277288 0.255157
H13   H     H_    0.487730 0.126053 0.276102 0.257648
H14   H     H_    0.438138 0.094163 0.318291 0.243260
H15   H     H_    0.497198 0.904393 0.639511 0.246460
H16   H     H_    0.491745 0.873986 0.723246 0.257117
H17   H     H_    0.439734 0.903455 0.684039 0.239382
H18   H     H_    0.874483 0.454753 0.639385 0.242442
H19   H     H_    0.857762 0.488780 0.558764 0.201933
H20   H     H_    0.812966 0.461406 0.614524 0.284618
H21   H     H_    0.029175 0.654391 0.443007 0.198345
H22   H     H_    0.063382 0.701401 0.397023 0.297137
H23   H     H_    0.059354 0.401553 0.314329 0.239022
H24   H     H_    0.067043 0.637140 0.366403 0.241617
H25   H     H_    0.125299 0.545176 0.639414 0.242514
H26   H     H_    0.142264 0.511110 0.558921 0.202146
H27   H     H_    0.186878 0.538518 0.614951 0.284541
H28   H     H_    0.971280 0.345673 0.443846 0.198198
H29   H     H_    0.937394 0.298162 0.398376 0.297088
H30   H     H_    0.933412 0.362212 0.366931 0.241527
H31   H     H_    0.125224 0.455166 0.359879 0.242617
H32   H     H_    0.141300 0.489677 0.440379 0.202051
H33   H     H_    0.186598 0.462896 0.384965 0.283942
H34   H     H_    0.002755 0.595243 0.638852 0.248121
H35   H     H_    0.970912 0.654402 0.556747 0.198345
H36   H     H_    0.936694 0.701557 0.602499 0.297215
H37   H     H_    0.932933 0.637345 0.633294 0.241598
H38   H     H_    0.858264 0.511160 0.440868 0.201793
H39   H     H_    0.813040 0.538318 0.385675 0.284196
H40   H     H_    0.874422 0.545316 0.360114 0.242499
H41   H     H_    0.068241 0.363751 0.633941 0.241606
H42   H     H_    0.030539 0.345126 0.557889 0.198860
H43   H     H_    0.065646 0.299149 0.604568 0.297238
H44   H     H_    0.373448 0.958621 0.633884 0.244527
H45   H     H_    0.005425 0.625763 0.722728 0.255155
H46   H     H_    0.354978 0.989357 0.551356 0.204164
H47   H     H_    0.311579 0.962509 0.610200 0.286341
H48   H     H_    0.529678 0.154419 0.440986 0.198060
H49   H     H_    0.564478 0.200435 0.394016 0.297094
H50   H     H_    0.567751 0.135709 0.365362 0.242290
H51   H     H_    0.625008 0.045868 0.640239 0.242658
H52   H     H_    0.641922 0.011403 0.560045 0.202228
H53   H     H_    0.686584 0.038972 0.615830 0.284204
H54   H     H_    0.472782 0.845955 0.447332 0.196844
H55   H     H_    0.440204 0.796316 0.404353 0.296944
H56   H     H_    0.059219 0.598487 0.685790 0.239087
H57   H     H_    0.435235 0.859290 0.368947 0.240704
H58   H     H_    0.625422 0.955285 0.360838 0.242625
H59   H     H_    0.642260 0.988991 0.441685 0.201658
H60   H     H_    0.686970 0.961761 0.385577 0.284466
H61   H     H_    0.473960 0.153529 0.549890 0.196098
H62   H     H_    0.442376 0.204805 0.590722 0.297188
H63   H     H_    0.436262 0.142746 0.628851 0.240289
H64   H     H_    0.370131 0.012396 0.431387 0.214340
H65   H     H_    0.308452 0.027964 0.429637 0.264647
H66   H     H_    0.346703 0.047362 0.356202 0.262213
H67   H     H_    0.997159 0.595256 0.361096 0.248032
H68   H     H_    0.567314 0.863005 0.633646 0.241922
H69   H     H_    0.529292 0.845588 0.557370 0.197923
H70   H     H_    0.563691 0.798681 0.603306 0.297237
H71   H     H_    0.994330 0.625771 0.277216 0.255177
H72   H     H_    0.940634 0.598434 0.314290 0.239097
N1    N     N_R   0.000000 0.500000 0.310560 -0.139382
N2    N     N_R   0.501421 0.955771 0.964032 -0.062083
N3    N     N_R   0.501502 0.955836 0.036132 -0.062304
N4    N     N_R   0.501187 0.044221 0.963873 -0.062104
N5    N     N_R   0.796049 0.235283 0.531369 -0.075388
N6    N     N_R   0.262067 0.700154 0.531989 -0.072388
N7    N     N_R   0.204391 0.764471 0.529540 -0.074454
N8    N     N_R   0.738243 0.299505 0.530240 -0.073722
N9    N     N_R   0.263282 0.301223 0.465505 -0.071792
N10   N     N_R   0.738260 0.700514 0.468197 -0.073373
N11   N     N_R   0.796025 0.764716 0.468226 -0.075169
N12   N     N_R   0.000000 0.500000 0.689440 -0.139428
N13   N     N_R   0.205786 0.236824 0.469007 -0.075015
N14   N     N_R   0.238596 0.799313 0.529782 -0.072546
N15   N     N_R   0.704096 0.264592 0.530036 -0.075471
N16   N     N_R   0.761901 0.200370 0.531319 -0.073524
N17   N     N_R   0.296278 0.735003 0.532139 -0.073761
N18   N     N_R   0.761855 0.799639 0.468191 -0.073336
N19   N     N_R   0.240067 0.202044 0.467834 -0.072894
N20   N     N_R   0.297582 0.266420 0.464423 -0.071946
N21   N     N_R   0.704090 0.735436 0.468296 -0.075195
N22   N     N_R   0.500000 0.000000 0.310560 -0.138407
N23   N     N_R   0.500000 0.000000 0.689440 -0.139576
N24   N     N_R   0.999931 0.544191 0.036024 -0.061935
N25   N     N_R   0.000048 0.455732 0.963958 -0.061996
N26   N     N_R   0.000056 0.455741 0.036055 -0.061956
N27   N     N_R   0.999949 0.544182 0.963929 -0.061926
N28   N     N_R   0.501240 0.044287 0.035970 -0.062032
O1    O     O_R   0.050940 0.449070 0.560830 -0.616316
O2    O     O_R   0.449060 0.050930 0.439170 -0.623131
O3    O     O_R   0.449060 0.050930 0.560830 -0.614283
O4    O     O_R   0.550940 0.949070 0.439170 -0.624861
O5    O     O_R   0.449060 0.949070 0.439170 -0.618437
O6    O     O_R   0.550940 0.050930 0.560830 -0.624704
O7    O     O_R   0.550940 0.050930 0.439170 -0.615419
O8    O     O_R   0.449060 0.949070 0.560830 -0.624591
O9    O     O_R   0.949060 0.550930 0.439170 -0.624469
O10   O     O_R   0.949060 0.550930 0.560830 -0.615947
O11   O     O_R   0.050940 0.449070 0.439170 -0.624460
O12   O     O_R   0.949060 0.449070 0.439170 -0.615898
O13   O     O_R   0.050940 0.550930 0.560830 -0.624538
O14   O     O_R   0.050940 0.550930 0.439170 -0.616274
O15   O     O_R   0.949060 0.449070 0.560830 -0.624415
O16   O     O_R   0.550940 0.949070 0.560830 -0.615792
Zn1   Zn    Zn3+2 0.000000 0.500000 0.581210 0.927786
Zn2   Zn    Zn3+2 0.000000 0.500000 0.418790 0.927764
Zn3   Zn    Zn3+2 0.500000 0.000000 0.581210 0.928277
Zn4   Zn    Zn3+2 0.500000 0.000000 0.418790 0.929532

loop_
_geom_bond_atom_site_label_1
_geom_bond_atom_site_label_2
_ccdc_geom_bond_type
O14   Zn2   S    
N23   Zn3   S    
C101  H12   S    
O13   Zn1   S    
C35   C53   A    
N13   N19   A    
C96   N13   A    
C58   O16   A    
C34   N23   A    
C27   N1    A    
C49   C90   A    
C36   O15   A    
C12   C49   S    
C106  H7    S    
C46   C89   A    
C9    C45   S    
C112  H25   S    
C14   H62   S    
C43   C61   A    
C17   C23   A    
C22   C31   A    
C55   F3    S    
C77   C100  S    
C17   C26   A    
C47   C85   S    
O1    Zn1   S    
C100  N21   A    
C109  H15   S    
C111  H22   S    
C39   C84   A    
C63   F10   S    
N22   Zn4   S    
N1    Zn2   S    
N5    N16   A    
O12   Zn2   S    
O15   Zn1   S    
C93   N7    A    
C63   C76   A    
C54   C72   A    
C57   C73   A    
C96   N9    A    
C31   N22   A    
C54   F2    S    
C25   C87   S    
C95   N10   A    
C80   O5    A    
C7    H41   S    
C60   F7    S    
C17   C82   S    
C18   C102  A    
C104  H71   S    
C40   C86   A    
C66   C77   A    
N6    N17   A    
C21   F19   S    
C47   O14   A    
C24   F22   S    
C110  H19   S    
N4    N28   A    
C105  H2    S    
C52   C90   A    
C26   C34   A    
C38   C55   A    
C4    C40   S    
O8    Zn3   S    
C10   C46   S    
C103  H34   S    
C10   H52   S    
C48   C88   A    
C2    C79   S    
C7    C43   S    
C48   C65   A    
C89   C91   S    
C69   C92   S    
C109  H17   S    
C69   O2    A    
C68   F16   S    
C21   C30   A    
C99   N20   A    
C81   C102  S    
C108  H11   S    
C25   O10   A    
C64   C76   A    
C2    C19   A    
C32   N23   A    
C3    C39   S    
C28   N12   A    
C29   C104  S    
C70   C77   A    
O6    Zn3   S    
C12   H60   S    
C11   C48   S    
C33   C108  S    
C12   H58   S    
C58   O4    A    
C18   F1    S    
C15   H65   S    
C106  H6    S    
C82   N4    A    
C20   C29   A    
C50   C67   A    
C68   C78   A    
C41   C87   A    
C14   H61   S    
C19   F12   S    
O4    Zn4   S    
C10   H53   S    
C37   C111  S    
C4    H33   S    
C23   F21   S    
C38   C85   A    
C43   C86   A    
C104  H67   S    
C8    C44   S    
C109  H16   S    
C52   C70   A    
C79   N25   A    
C9    H50   S    
C1    O11   A    
N25   N26   A    
C42   C60   A    
C71   C94   S    
C107  H10   S    
C101  H1    S    
C80   O8    A    
C56   F4    S    
C70   F17   S    
C1    O1    A    
C76   C97   S    
C27   C101  S    
C75   C98   S    
O7    Zn4   S    
C4    H32   S    
C13   C24   A    
C46   C64   A    
C49   C66   A    
C81   N24   A    
C65   F13   S    
C111  H24   S    
N10   N21   A    
C110  H18   S    
C67   F15   S    
C51   C92   A    
C105  H3    S    
C58   C90   S    
C8    H44   S    
C55   C72   A    
C8    H46   S    
C39   C56   A    
C91   O6    A    
C56   C71   A    
N12   Zn1   S    
C2    C21   A    
C10   H51   S    
C5    H35   S    
C16   H70   S    
C7    H43   S    
O5    Zn4   S    
C100  N18   A    
C19   C28   A    
C69   O3    A    
C59   C74   A    
C41   C59   A    
N24   N27   A    
C35   C110  S    
C3    H28   S    
O16   Zn3   S    
C108  H14   S    
C37   C54   A    
C7    H42   S    
C8    H47   S    
C50   C92   A    
C91   O7    A    
C16   H69   S    
C59   F6    S    
C15   C51   S    
C112  H26   S    
C30   C105  S    
O3    Zn3   S    
C36   O12   A    
C12   H59   S    
C62   C75   A    
C72   C93   S    
C38   C112  S    
C33   N22   A    
C53   C71   A    
N7    N14   A    
C78   C99   S    
C15   H66   S    
C45   C89   A    
C3    H29   S    
C106  H5    S    
C57   F5    S    
O9    Zn2   S    
C37   C85   A    
C1    C86   S    
C112  H27   S    
C5    C41   S    
C94   N5    A    
C40   C57   A    
C22   F20   S    
C93   N6    A    
C103  H45   S    
C30   N12   A    
C5    H37   S    
C74   C95   S    
C18   C27   A    
C16   C52   S    
C97   N15   A    
C94   N8    A    
C35   C84   A    
C4    H31   S    
C99   N19   A    
C29   N1    A    
C103  H56   S    
O10   Zn1   S    
C64   F11   S    
C6    H38   S    
C14   H63   S    
C13   C83   S    
C9    H49   S    
C24   C33   A    
C65   C75   A    
C97   N16   A    
C67   C78   A    
C11   H54   S    
C44   C62   A    
C23   C32   A    
C98   N17   A    
C111  H21   S    
N8    N15   A    
C79   N27   A    
C61   C73   A    
C80   C88   S    
C9    H48   S    
C44   C88   A    
C6    C42   S    
C105  H4    S    
C15   H64   S    
C32   C107  S    
C28   C103  S    
C14   C50   S    
C6    H40   S    
C36   C84   S    
C107  H9    S    
C98   N14   A    
C60   C74   A    
C31   C106  S    
C5    H36   S    
C45   C63   A    
C13   C22   A    
C11   H55   S    
C51   C68   A    
C104  H72   S    
N11   N18   A    
C53   F24   S    
C47   O13   A    
C110  H20   S    
C26   F23   S    
N9    N20   A    
C108  H13   S    
O11   Zn2   S    
C66   F14   S    
C20   C102  A    
C83   N28   A    
C101  H23   S    
N2    N3    A    
C6    H39   S    
O2    Zn4   S    
C95   N11   A    
C34   C109  S    
C81   N26   A    
C20   F18   S    
C42   C87   A    
C73   C96   S    
C82   N2    A    
C107  H8    S    
C16   H68   S    
C62   F9    S    
C83   N3    A    
C3    H30   S    
C25   O9    A    
C61   F8    S    
C11   H57   S    
