data_mof_unit_pretest_615.cif
_audit_creation_date              2012-12-10T17:42:09-0500
_audit_creation_method            fapswitch 2.2
_symmetry_space_group_name_H-M    P1
_symmetry_Int_Tables_number       1
_space_group_crystal_system       triclinic
_cell_length_a                    15.063552
_cell_length_b                    13.757496
_cell_length_c                    10.805821
_cell_angle_alpha                 90.681964
_cell_angle_beta                  87.325238
_cell_angle_gamma                 89.402966
_cell_volume                      2236.63008125

loop_
_atom_site_label
_atom_site_type_symbol
_atom_type_description
_atom_site_fract_x
_atom_site_fract_y
_atom_site_fract_z
_atom_type_partial_charge
C1    C     C_R   0.328810 0.500433 0.504413 0.912407
C2    C     C_R   0.034309 0.519460 0.723787 -0.174752
C3    C     C_R   0.087854 0.515719 0.613229 0.086871
C4    C     C_R   0.497770 0.499579 0.259292 0.845199
C5    C     C_R   0.046721 0.513009 0.497768 -0.063649
C6    C     C_R   0.098744 0.508696 0.384829 0.009077
C7    C     C_R   0.055853 0.518471 0.271289 0.288948
C8    C     C_R   0.963266 0.519004 0.271431 -0.271098
C9    C     C_R   0.181425 0.512763 0.615352 0.145793
C10   C     C_R   0.232057 0.501747 0.503530 -0.150510
C11   C     C_R   0.191287 0.494066 0.389943 0.290025
C12   C     C_3   0.588765 0.525911 0.921004 -0.375217
C13   C     C_R   0.433602 0.794141 0.564029 0.024779
C14   C     C_R   0.432502 0.208304 0.561362 0.033198
C15   C     C_R   0.567348 0.792930 0.439317 0.581731
C16   C     C_R   0.570277 0.204207 0.446425 0.569290
C17   C     C_R   0.575994 0.895075 0.456064 -0.102856
C18   C     C_R   0.578004 0.101838 0.461470 -0.093181
C19   C     C_R   0.671095 0.499689 0.497547 0.826193
C20   C     C_R   0.504021 0.948117 0.512783 -0.044139
C21   C     C_R   0.504342 0.051641 0.513560 -0.038146
C22   C     C_R   0.431389 0.897464 0.567059 -0.115271
C23   C     C_R   0.817846 0.499950 0.379723 0.256664
C24   C     C_R   0.431062 0.105055 0.566058 -0.117712
C25   C     C_R   0.655032 0.945261 0.421971 0.242634
C26   C     C_R   0.656873 0.047687 0.428141 0.210135
C27   C     C_R   0.359152 0.054107 0.622875 0.354465
C28   C     C_R   0.359524 0.951128 0.623907 0.353942
C29   C     C_R   0.497224 0.500480 0.739834 0.784822
C30   C     C_3   0.430909 0.580454 0.074278 0.199792
C31   C     C_3   0.463930 0.398987 0.067474 0.203834
C32   C     C_3   0.427096 0.576348 0.931504 -0.410759
C33   C     C_3   0.468529 0.399595 0.925395 -0.394629
C34   C     C_R   0.767619 0.500185 0.493452 -0.091462
C35   C     C_3   0.590326 0.519208 0.063197 -0.347207
C36   C     C_3   0.496074 0.499330 0.120174 -0.047244
C37   C     C_3   0.495324 0.500916 0.876789 0.033488
C38   C     C_3   0.232785 0.420892 0.787008 -0.641849
C39   C     C_3   0.135183 0.630897 0.137996 -0.580925
C40   C     C_3   0.780077 0.855218 0.497738 -0.580015
C41   C     C_3   0.774370 0.138395 0.526706 -0.599762
C42   C     C_3   0.798219 0.408159 0.186166 -0.633493
C43   C     C_R   0.809110 0.506736 0.605827 -0.306781
C44   C     C_R   0.901308 0.511516 0.607845 0.134168
C45   C     C_R   0.953066 0.511538 0.495570 0.042283
C46   C     C_R   0.911184 0.509188 0.381369 0.037182
C47   C     C_R   0.942272 0.516759 0.720895 -0.184466
Cl1   Cl    Cl    0.459010 0.702398 0.119266 -0.529027
Cl2   Cl    Cl    0.524404 0.293320 0.112992 -0.529888
Cl3   Cl    Cl    0.256458 0.451243 0.259883 -0.664940
Cl4   Cl    Cl    0.634847 0.730702 0.325323 -0.552152
Cl5   Cl    Cl    0.643542 0.262858 0.341987 -0.593525
Cl6   Cl    Cl    0.267152 0.118347 0.692818 -0.540274
Cl7   Cl    Cl    0.268075 0.890296 0.695254 -0.537425
Cu1   Cu    Cu3+1 0.499990 0.597420 0.500010 1.024502
Cu2   Cu    Cu3+1 0.499990 0.402580 0.500010 1.032840
H1    H     H_    0.062541 0.522365 0.813883 0.147383
H2    H     H_    0.517765 0.344696 0.887474 0.237216
H3    H     H_    0.617499 0.587402 0.101728 0.239265
H4    H     H_    0.635620 0.459128 0.086542 0.200598
H5    H     H_    0.607033 0.600695 0.891820 0.201428
H6    H     H_    0.639476 0.475065 0.877644 0.156866
H7    H     H_    0.769102 0.507913 0.692051 0.134741
H8    H     H_    0.903022 0.517938 0.807608 0.138931
H9    H     H_    0.203441 0.569464 0.789975 0.259888
H10   H     H_    0.257212 0.429834 0.881624 0.222251
H11   H     H_    0.279957 0.373599 0.731282 0.250522
H12   H     H_    0.932599 0.528953 0.183955 0.180098
H13   H     H_    0.167181 0.384833 0.795643 0.251839
H14   H     H_    0.073486 0.505650 0.080192 0.243843
H15   H     H_    0.077753 0.681709 0.131869 0.215360
H16   H     H_    0.176571 0.633897 0.050346 0.228228
H17   H     H_    0.176602 0.654218 0.215195 0.255373
H18   H     H_    0.778682 0.926198 0.329009 0.280657
H19   H     H_    0.837824 0.809496 0.464849 0.237174
H20   H     H_    0.734398 0.809294 0.554996 0.225660
H21   H     H_    0.804259 0.915776 0.555567 0.221042
H22   H     H_    0.761045 0.120613 0.332039 0.300267
H23   H     H_    0.381458 0.753010 0.610314 0.191478
H24   H     H_    0.845792 0.155552 0.510698 0.238014
H25   H     H_    0.767458 0.088806 0.606866 0.222007
H26   H     H_    0.737372 0.206918 0.549254 0.243329
H27   H     H_    0.709007 0.512431 0.265130 0.260646
H28   H     H_    0.739255 0.362875 0.172475 0.282380
H29   H     H_    0.850061 0.361448 0.226099 0.245057
H30   H     H_    0.822578 0.433367 0.093639 0.207777
H31   H     H_    0.379161 0.251190 0.605056 0.182260
H32   H     H_    0.363151 0.567932 0.114961 0.157033
H33   H     H_    0.393901 0.387711 0.099912 0.178922
H34   H     H_    0.359066 0.556682 0.905662 0.153022
H35   H     H_    0.403244 0.378085 0.890886 0.159364
H36   H     H_    0.440453 0.648966 0.890846 0.239500
N1    N     N_R   0.499930 0.743810 0.499950 -0.233636
N2    N     N_R   0.499930 0.256190 0.499950 -0.223804
N3    N     N_2   0.225311 0.514940 0.729386 -0.464324
N4    N     N_2   0.104197 0.532713 0.156550 -0.382398
N5    N     N_2   0.735771 0.893069 0.392165 -0.375516
N6    N     N_2   0.741824 0.092256 0.416792 -0.433692
N7    N     N_2   0.774912 0.491911 0.264766 -0.429586
O1    O     O_R   0.370250 0.582280 0.500040 -0.586154
O2    O     O_R   0.370250 0.417720 0.500040 -0.569953
O3    O     O_R   0.499970 0.582270 0.317700 -0.502175
O4    O     O_R   0.499970 0.417730 0.317700 -0.490532
O5    O     O_R   0.629730 0.582260 0.499980 -0.558878
O6    O     O_R   0.629730 0.417740 0.499980 -0.543857
O7    O     O_R   0.500000 0.582270 0.682320 -0.598417
O8    O     O_R   0.500000 0.417730 0.682320 -0.608410

loop_
_geom_bond_atom_site_label_1
_geom_bond_atom_site_label_2
_ccdc_geom_bond_type
C23   N7    S    
Cu1   Cu2   S    
C13   H23   S    
C33   H2    S    
C18   C21   A    
C35   C36   S    
C18   C26   A    
C24   C27   A    
Cu1   N1    S    
C41   H24   S    
C4    C36   S    
C2    H1    S    
C43   H7    S    
C7    C8    A    
C45   C46   A    
Cu2   N2    S    
C7    N4    S    
Cu1   O3    S    
C30   Cl1   S    
C14   H31   S    
C33   H35   S    
C5    C6    A    
C4    O4    A    
C17   C20   A    
C35   H3    S    
C14   C24   A    
C12   C37   S    
C32   H34   S    
C38   H10   S    
C31   H33   S    
C4    O3    A    
Cu1   O1    S    
H22   N6    S    
C39   H16   S    
C31   C33   S    
C42   H30   S    
C15   Cl4   S    
C9    C10   A    
C9    N3    S    
C31   C36   S    
C44   C47   A    
C38   H13   S    
C23   C46   A    
H27   N7    S    
C31   Cl2   S    
C1    O1    A    
H18   N5    S    
C39   N4    S    
C1    C10   S    
Cu1   O7    S    
C42   H28   S    
C6    C11   A    
C28   Cl7   S    
C25   C26   A    
C5    C45   A    
Cu1   O5    S    
C33   C37   S    
C40   H20   S    
C13   N1    A    
C35   H4    S    
C38   N3    S    
H14   N4    S    
C43   C44   A    
Cu2   O8    S    
C15   N1    A    
C3    C9    A    
C12   H6    S    
C19   O5    A    
C23   C34   A    
C41   H25   S    
C27   Cl6   S    
C42   H29   S    
C32   C37   S    
C38   H11   S    
C12   C35   S    
C26   N6    S    
C19   O6    A    
C25   N5    S    
C20   C22   A    
C8    H12   S    
C29   O7    A    
C30   H32   S    
C1    O2    A    
C40   N5    S    
C44   C45   A    
C15   C17   A    
C40   H21   S    
C34   C43   A    
C16   Cl5   S    
Cu2   O4    S    
C3    C5    A    
C19   C34   S    
Cu2   O2    S    
C47   H8    S    
C6    C7    A    
C2    C47   A    
C16   N2    A    
C40   H19   S    
C30   C36   S    
C17   C25   A    
C2    C3    A    
C11   Cl3   S    
C42   N7    S    
C30   C32   S    
C12   H5    S    
C32   H36   S    
C41   H26   S    
C13   C22   A    
C39   H17   S    
C8    C46   A    
Cu2   O6    S    
C10   C11   A    
H9    N3    S    
C20   C21   A    
C16   C18   A    
C21   C24   A    
C29   C37   S    
C27   C28   A    
C39   H15   S    
C41   N6    S    
C29   O8    A    
C22   C28   A    
C14   N2    A    
