data_mof_unit_pretest_952.cif
_audit_creation_date              2013-03-05T16:44:37-0500
_audit_creation_method            fapswitch 2.2
_symmetry_space_group_name_H-M    P1
_symmetry_Int_Tables_number       1
_space_group_crystal_system       triclinic
_cell_length_a                    26.994355
_cell_length_b                    10.741402
_cell_length_c                    9.848932
_cell_angle_alpha                 90.139752
_cell_angle_beta                  91.063081
_cell_angle_gamma                 89.289637
_cell_volume                      2855.05096402

loop_
_atom_site_label
_atom_site_type_symbol
_atom_site_description
_atom_site_fract_x
_atom_site_fract_y
_atom_site_fract_z
_atom_type_partial_charge
O1    O     O_R   0.500010 0.316790 0.614690 -0.617273
O2    O     O_R   0.500000 0.316760 0.385350 -0.630528
C1    C     C_R   0.500251 0.260392 0.499873 0.859992
O3    O     O_R   0.428760 0.500040 0.614660 -0.612559
O4    O     O_R   0.428750 0.500000 0.385310 -0.605893
C2    C     C_R   0.405584 0.496307 0.498701 0.906444
Zn1   Zn    Zn3+2 0.500000 0.500020 0.653130 0.964390
Zn2   Zn    Zn3+2 0.500000 0.499980 0.346870 0.945046
O5    O     O_R   0.500000 0.683240 0.614650 -0.600663
O6    O     O_R   0.499990 0.683210 0.385310 -0.622060
O7    O     O_R   0.571250 0.500000 0.614690 -0.616267
O8    O     O_R   0.571240 0.499960 0.385340 -0.622381
C3    C     C_R   0.498749 0.739818 0.499917 0.905879
C4    C     C_R   0.594412 0.500742 0.501225 0.862798
C5    C     C_R   0.183527 0.286164 0.588042 0.546123
O9    O     O_2   0.213233 0.247137 0.691012 -0.530679
N1    N     N_R   0.203780 0.351915 0.484460 -0.357250
C6    C     C_R   0.176829 0.382836 0.370574 0.497193
C7    C     C_R   0.287324 0.344276 0.395462 -0.102858
C8    C     C_R   0.335963 0.383423 0.394991 -0.225091
C9    C     C_R   0.321456 0.509017 0.595443 -0.263777
C10   C     C_R   0.271730 0.472902 0.595201 0.040215
C11   C     C_R   0.254634 0.389224 0.493384 0.254995
C12   C     C_R   0.103744 0.295292 0.469949 -0.090308
C13   C     C_R   0.132239 0.260694 0.586618 -0.085312
C14   C     C_R   0.108055 0.204264 0.696563 0.232134
C15   C     C_R   0.127002 0.351554 0.359293 -0.000522
C16   C     C_R   0.353213 0.465933 0.494718 -0.035930
H1    H     H_    0.335208 0.572638 0.672418 0.165850
C17   C     C_R   0.646782 0.468902 0.503349 -0.066822
C18   C     C_R   0.974911 0.238811 0.585207 0.060307
C19   C     C_R   0.971875 0.299002 0.343555 0.045268
C20   C     C_R   0.947499 0.273291 0.466445 0.069281
C21   C     C_R   0.948728 0.218031 0.706217 -0.225249
C22   C     C_R   0.897675 0.234938 0.710980 -0.156041
C23   C     C_R   0.870786 0.272594 0.595459 -0.017646
C24   C     C_R   0.895333 0.287844 0.471860 -0.054845
C25   C     C_R   0.867864 0.322544 0.354692 -0.021296
C26   C     C_R   0.817319 0.350163 0.365473 0.522680
N2    N     N_R   0.795187 0.344209 0.488831 -0.347548
C27   C     C_R   0.820092 0.301298 0.601694 0.488727
C28   C     C_R   0.707375 0.301888 0.501761 -0.119038
C29   C     C_R   0.658505 0.341807 0.502187 -0.234440
C30   C     C_R   0.684420 0.559150 0.506345 -0.089316
C31   C     C_R   0.734463 0.517856 0.503056 0.000285
C32   C     C_R   0.745294 0.388546 0.500613 0.272326
O10   O     O_2   0.796182 0.290275 0.720129 -0.571480
C33   C     C_R   0.027481 0.233806 0.581241 0.003941
C34   C     C_R   0.051712 0.277832 0.464876 0.072466
C35   C     C_R   0.024126 0.309271 0.345083 0.052892
C36   C     C_R   0.056768 0.191377 0.692189 -0.263157
H2    H     H_    0.629403 0.273142 0.500571 0.131507
H3    H     H_    0.715933 0.203140 0.498935 0.145728
H4    H     H_    0.879571 0.222096 0.807150 0.186993
H5    H     H_    0.966780 0.195033 0.801487 0.143167
H6    H     H_    0.040641 0.146903 0.778415 0.161444
O11   O     O_2   0.198109 0.446469 0.269434 -0.588514
C37   C     C_R   0.099848 0.380073 0.241222 -0.118224
H7    H     H_    0.360526 0.346183 0.318813 0.143682
H8    H     H_    0.274702 0.279200 0.318477 0.164040
H9    H     H_    0.117259 0.422018 0.154482 0.189270
C38   C     C_R   0.942755 0.319996 0.224703 -0.224463
C39   C     C_R   0.891634 0.332505 0.230633 -0.143873
O12   O     O_2   0.790643 0.385624 0.254571 -0.566798
C40   C     C_R   0.049505 0.358213 0.233440 -0.212796
H10   H     H_    0.958434 0.328311 0.125335 0.140504
H11   H     H_    0.870996 0.353778 0.137969 0.190690
H12   H     H_    0.031139 0.387662 0.140728 0.142464
C41   C     C_R   0.510572 0.062609 0.617920 0.021213
C42   C     C_R   0.502389 0.129064 0.498554 -0.096020
C43   C     C_R   0.496177 0.064616 0.375223 -0.226598
H13   H     H_    0.490413 0.112851 0.279658 0.165577
C44   C     C_R   0.493940 0.936098 0.375906 -0.215919
H14   H     H_    0.485766 0.888249 0.281621 0.175872
C45   C     C_R   0.499658 0.871564 0.498929 -0.072242
C46   C     C_R   0.509964 0.937170 0.617425 0.007325
C47   C     C_3   0.496303 0.927744 0.764064 0.115498
C48   C     C_3   0.499053 0.072178 0.766752 -0.276537
H15   H     H_    0.531806 0.108133 0.824280 0.137679
C49   C     C_R   0.463926 0.561455 0.069876 0.205535
N3    N     N_R   0.499670 0.499140 0.142800 -0.128214
C50   C     C_R   0.537753 0.444643 0.073707 -0.142425
H16   H     H_    0.567712 0.399059 0.129388 0.158539
C51   C     C_R   0.537780 0.444800 0.929665 -0.122634
H17   H     H_    0.567758 0.399474 0.876607 0.150548
N4    N     N_R   0.499670 0.499180 0.857150 -0.104538
C52   C     C_R   0.463747 0.560638 0.927124 0.258640
C53   C     C_3   0.409707 0.533393 0.920088 -0.560355
C54   C     C_3   0.409795 0.536637 0.073941 -0.041231
H18   H     H_    0.387205 0.608755 0.872462 0.244563
H19   H     H_    0.402506 0.440330 0.876273 0.210460
H20   H     H_    0.401403 0.445440 0.120385 0.144794
C55   C     C_R   0.671845 0.694380 0.516275 0.089005
C56   C     C_R   0.691127 0.766303 0.623980 -0.143743
C57   C     C_R   0.679773 0.893391 0.632980 -0.133988
C58   C     C_R   0.648990 0.949764 0.534926 -0.120193
C59   C     C_R   0.629969 0.879497 0.426959 -0.145048
C60   C     C_R   0.641369 0.752443 0.417396 -0.184360
H21   H     H_    0.714563 0.723692 0.701720 0.134870
H22   H     H_    0.694479 0.947902 0.716679 0.148791
H23   H     H_    0.639771 0.047726 0.542791 0.125178
H24   H     H_    0.606422 0.923692 0.350697 0.143848
H25   H     H_    0.626752 0.699511 0.332676 0.136527
C61   C     C_R   0.775446 0.608267 0.495455 0.107666
C62   C     C_R   0.778949 0.686985 0.382423 -0.071373
C63   C     C_R   0.817456 0.772441 0.375313 -0.138457
C64   C     C_R   0.852724 0.779699 0.480645 -0.101362
C65   C     C_R   0.849502 0.701579 0.593343 -0.128863
C66   C     C_R   0.810975 0.616241 0.601025 -0.186574
H26   H     H_    0.751924 0.681890 0.299973 0.139899
H27   H     H_    0.819973 0.833000 0.288101 0.136746
H28   H     H_    0.882500 0.845955 0.475022 0.135097
H29   H     H_    0.876764 0.707465 0.675009 0.138984
H30   H     H_    0.808542 0.557382 0.689660 0.163287
I1    I     I_    0.422974 0.849556 0.783823 -0.360060
C67   C     C_R   0.238974 0.523355 0.702011 0.137546
C68   C     C_R   0.253875 0.515822 0.839418 -0.108110
C69   C     C_R   0.223234 0.562580 0.940846 -0.060385
C70   C     C_R   0.177485 0.617129 0.906296 -0.088727
C71   C     C_R   0.162557 0.626257 0.770017 -0.127696
C72   C     C_R   0.193247 0.580387 0.668070 -0.146493
H31   H     H_    0.289040 0.472897 0.868114 0.128844
H32   H     H_    0.235034 0.556555 0.046211 0.196523
H33   H     H_    0.153727 0.652902 0.985064 0.144735
H34   H     H_    0.127279 0.669421 0.743293 0.143593
H35   H     H_    0.181439 0.590002 0.562952 0.144488
C73   C     C_R   0.534910 0.862625 0.854581 0.110045
C74   C     C_R   0.575139 0.794184 0.801266 -0.085220
C75   C     C_R   0.607365 0.726994 0.886950 -0.132330
C76   C     C_R   0.600587 0.728479 0.026738 -0.118461
C77   C     C_R   0.561490 0.797067 0.081257 -0.141052
C78   C     C_R   0.528796 0.863829 0.995967 -0.164933
H36   H     H_    0.581427 0.789941 0.693420 0.145229
H37   H     H_    0.637317 0.672340 0.844881 0.138308
H38   H     H_    0.625434 0.675408 0.092412 0.130723
H39   H     H_    0.556266 0.796717 0.189570 0.145392
H40   H     H_    0.498089 0.914520 0.039717 0.145539
C79   C     C_R   0.450944 0.136305 0.808108 0.223483
C80   C     C_R   0.443920 0.158644 0.947213 -0.149210
C81   C     C_R   0.397999 0.199727 0.994274 -0.145635
C82   C     C_R   0.358736 0.221669 0.902775 -0.106040
C83   C     C_R   0.365543 0.204001 0.763820 -0.128151
C84   C     C_R   0.411164 0.160780 0.716365 -0.071666
H41   H     H_    0.473645 0.140225 0.019995 0.111660
H42   H     H_    0.392793 0.213774 0.101946 0.130664
H43   H     H_    0.323204 0.253480 0.939447 0.160430
H44   H     H_    0.335097 0.221247 0.692987 0.171649
H45   H     H_    0.414152 0.141361 0.609235 0.128354
I2    I     I_    0.369576 0.692514 0.154466 -0.324164
I3    I     I_    0.142284 0.141129 0.881861 -0.302158

loop_
_geom_bond_atom_site_label_1
_geom_bond_atom_site_label_2
_geom_bond_distance
_ccdc_geom_bond_type
C52   C53   1.491698 S    
C55   C56   1.406590 A    
C68   C69   1.397220 A    
C44   H14   1.080754 S    
C57   C58   1.396567 A    
C12   C15   1.408973 A    
C62   H26   1.083238 S    
C74   C75   1.396413 A    
C25   C39   1.395533 A    
N3    C50   1.368090 A    
C23   C27   1.401437 A    
C47   C48   1.554255 S    
C67   C68   1.406890 A    
Zn1   O7    1.967132 S    
C26   O12   1.350083 S    
C38   C39   1.387124 A    
O4    C2    1.290953 A    
C23   C24   1.407608 A    
C51   N4    1.367290 A    
C36   H6    1.076926 S    
C49   C52   1.405882 A    
C79   C84   1.413101 A    
C68   H31   1.083234 S    
C28   H3    1.083156 S    
C25   C26   1.398620 A    
O7    C4    1.290700 A    
C29   H2    1.084085 S    
C5    C13   1.414386 A    
Zn1   N4    2.009607 S    
C63   C64   1.397661 A    
C60   H25   1.079907 S    
C65   C66   1.398029 A    
C41   C46   1.347697 A    
C5    N1    1.368293 A    
C21   C22   1.389456 A    
C28   C32   1.392275 A    
C49   C54   1.489877 S    
O5    C3    1.284060 A    
C73   C78   1.405287 A    
C54   H20   1.109818 S    
C30   C55   1.490992 S    
C6    O11   1.350458 S    
C69   C70   1.397026 A    
C82   C83   1.396403 A    
C33   C36   1.410037 A    
C2    C16   1.454612 S    
C3    C45   1.415704 S    
C64   C65   1.397724 A    
C18   C20   1.419879 A    
C42   C43   1.404992 A    
C6    C15   1.392789 A    
C59   H24   1.081701 S    
C47   C73   1.523368 S    
C37   H9    1.084318 S    
C54   I2    2.142788 S    
C21   H5    1.077070 S    
C58   H23   1.081188 S    
C22   H4    1.083740 S    
C44   C45   1.402467 A    
C17   C30   1.412808 A    
C41   C48   1.507091 S    
C41   C42   1.389596 A    
C4    C17   1.450141 S    
O3    Zn1   1.953135 S    
C48   C79   1.524142 S    
C61   C62   1.404873 A    
C59   C60   1.398617 A    
C63   H27   1.082370 S    
C10   C11   1.419555 A    
C81   C82   1.396568 A    
C84   H45   1.079328 S    
C39   H11   1.083739 S    
C67   C72   1.406289 A    
C38   H10   1.077792 S    
Zn2   N3    2.009725 S    
C14   I3    2.138266 S    
C1    C42   1.411150 S    
C12   C13   1.418570 A    
O3    C2    1.292759 A    
C77   H39   1.078657 S    
C70   C71   1.397536 A    
C26   N2    1.365784 A    
C43   C44   1.382578 A    
C57   H22   1.082236 S    
C8    C16   1.398595 A    
C78   H40   1.081740 S    
C70   H33   1.082453 S    
C9    H1    1.082996 S    
C15   C37   1.395702 A    
C20   C24   1.416900 A    
O1    C1    1.281647 A    
C22   C23   1.396178 A    
C65   H29   1.082334 S    
C7    C11   1.400225 A    
C45   C46   1.387381 A    
C24   C25   1.408512 A    
C31   C61   1.484162 S    
C80   H41   1.082715 S    
C37   C40   1.382681 A    
C53   H19   1.105834 S    
Zn2   O8    1.953135 S    
C40   H12   1.077191 S    
C58   C59   1.396238 A    
N1    C6    1.365004 A    
C27   O10   1.349723 S    
C18   C21   1.416435 A    
C64   H28   1.082424 S    
N1    C11   1.435924 S    
C51   H17   1.081514 S    
C8    H7    1.083053 S    
C19   C35   1.415926 A    
C82   H43   1.082283 S    
C66   H30   1.082556 S    
N2    C27   1.366429 A    
C76   H38   1.081412 S    
C53   H18   1.106058 S    
C77   C78   1.399471 A    
C34   C35   1.422568 A    
C50   C51   1.418679 A    
C18   C33   1.420705 A    
C17   C29   1.397615 A    
C28   C29   1.382155 A    
N2    C32   1.429651 S    
C73   C74   1.412436 A    
C71   C72   1.398428 A    
N4    C52   1.363016 A    
C75   C76   1.392257 A    
C12   C34   1.419282 A    
Zn1   O5    2.005105 S    
C33   C34   1.415297 A    
O1    Zn1   2.003321 S    
C83   H44   1.082609 S    
C9    C16   1.397385 A    
O2    Zn2   2.005106 S    
C30   C31   1.417515 A    
O8    C4    1.291353 A    
C49   N3    1.362168 A    
O6    C3    1.281595 A    
C81   H42   1.082265 S    
O4    Zn2   1.967135 S    
C80   C81   1.397468 A    
C7    H8    1.083208 S    
C62   C63   1.398077 A    
C14   C36   1.392945 A    
C19   C20   1.417701 A    
C7    C8    1.383725 A    
C76   C77   1.394544 A    
C13   C14   1.416107 A    
C19   C38   1.414838 A    
C72   H35   1.082393 S    
C47   I1    2.172043 S    
C74   H36   1.079519 S    
C46   C47   1.501157 S    
C48   H15   1.113849 S    
C61   C66   1.404580 A    
C56   H21   1.082827 S    
C10   C67   1.483926 S    
C71   H34   1.082347 S    
O2    C1    1.281332 A    
C69   H32   1.081705 S    
C56   C57   1.398340 A    
C35   C40   1.412253 A    
C79   C80   1.406214 A    
C75   H37   1.081430 S    
C31   C32   1.416093 A    
C43   H13   1.083268 S    
C53   C54   1.515561 S    
Zn2   O6    2.003320 S    
C50   H16   1.081445 S    
C83   C84   1.398811 A    
C9    C10   1.401823 A    
C55   C60   1.405231 A    
C5    O9    1.345673 S    
