data_mof_unit_pretest_1524.cif
_audit_creation_date              2013-03-05T16:57:40-0500
_audit_creation_method            fapswitch 2.2
_symmetry_space_group_name_H-M    P1
_symmetry_Int_Tables_number       1
_space_group_crystal_system       triclinic
_cell_length_a                    15.808251
_cell_length_b                    17.526554
_cell_length_c                    16.795589
_cell_angle_alpha                 90.541975
_cell_angle_beta                  90.852608
_cell_angle_gamma                 90.688202
_cell_volume                      4652.38880708

loop_
_atom_site_label
_atom_site_type_symbol
_atom_site_description
_atom_site_fract_x
_atom_site_fract_y
_atom_site_fract_z
_atom_type_partial_charge
O1    O     O_R   0.500000 0.389130 0.566570 -0.632992
O2    O     O_R   0.500000 0.610870 0.433430 -0.642626
O3    O     O_R   0.499990 0.389100 0.433480 -0.592946
O4    O     O_R   0.500010 0.610900 0.566520 -0.584445
C1    C     C_R   0.500985 0.353173 0.499771 0.891601
C2    C     C_R   0.501060 0.646906 0.500290 0.892124
O5    O     O_R   0.376780 0.500010 0.566530 -0.629674
O6    O     O_R   0.623220 0.499990 0.433470 -0.619042
O7    O     O_R   0.376780 0.499980 0.433450 -0.560072
O8    O     O_R   0.623220 0.500020 0.566550 -0.568854
C3    C     C_R   0.337886 0.499949 0.499473 0.913511
C4    C     C_R   0.662106 0.500082 0.500552 0.906331
Zn1   Zn    Zn3+2 0.500000 0.500020 0.588860 1.030678
Zn2   Zn    Zn3+2 0.500000 0.499980 0.411140 1.034447
C5    C     C_3   0.971962 0.433759 0.528914 0.146382
C6    C     C_3   0.027980 0.566210 0.471734 0.144102
C7    C     C_3   0.025940 0.442888 0.454054 0.139426
C8    C     C_3   0.974000 0.557075 0.546593 0.141343
C9    C     C_1   0.249637 0.499987 0.498448 -0.059555
C10   C     C_1   0.750335 0.500023 0.501712 -0.047096
C11   C     C_3   0.030058 0.490910 0.574154 0.147534
C12   C     C_3   0.969903 0.509056 0.426492 0.143107
C13   C     C_3   0.084594 0.500042 0.499255 -0.227449
C14   C     C_3   0.915362 0.499924 0.501379 -0.228878
C15   C     C_1   0.174859 0.500029 0.498418 0.248205
C16   C     C_1   0.825106 0.499956 0.501992 0.253147
C17   C     C_R   0.521535 0.848527 0.574112 -0.128261
C18   C     C_R   0.546560 0.154148 0.432042 -0.118199
C19   C     C_R   0.509568 0.770011 0.573489 -0.118788
C20   C     C_R   0.534887 0.232439 0.430703 -0.111926
C21   C     C_R   0.509219 0.729596 0.500941 -0.043780
C22   C     C_R   0.509113 0.270771 0.499758 -0.046928
C23   C     C_R   0.520858 0.768483 0.429142 -0.167998
C24   C     C_R   0.495667 0.230281 0.570208 -0.160183
C25   C     C_R   0.532817 0.846957 0.430002 -0.121292
C26   C     C_R   0.507427 0.152078 0.571374 -0.122484
C27   C     C_R   0.533232 0.886415 0.502423 0.140925
C28   C     C_R   0.532847 0.114554 0.502377 0.134998
C29   C     C_1   0.538566 0.966688 0.502549 -0.018433
C30   C     C_1   0.538457 0.034417 0.502440 -0.016324
C31   C     C_R   0.431299 0.467206 0.830622 -0.214436
C32   C     C_R   0.539315 0.561733 0.169850 -0.215959
C33   C     C_R   0.433658 0.467544 0.746464 -0.031301
C34   C     C_R   0.538260 0.559075 0.253993 -0.021944
N1    N     N_R   0.500020 0.500030 0.707230 -0.152401
N2    N     N_R   0.499980 0.499970 0.292770 -0.149468
C35   C     C_R   0.566057 0.532090 0.750801 0.428160
C36   C     C_R   0.462667 0.441651 0.248684 0.437611
C37   C     C_R   0.565959 0.531721 0.834811 -0.272379
C38   C     C_R   0.463701 0.442357 0.164676 -0.260776
C39   C     C_R   0.498089 0.499949 0.875840 0.076353
C40   C     C_R   0.501307 0.502792 0.124150 0.080657
C41   C     C_1   0.498230 0.501569 0.963505 0.027679
C42   C     C_1   0.499954 0.503105 0.036482 0.028237
N3    N     N_R   0.051531 0.379872 0.402956 0.275312
O9    O     O_R   0.994300 0.336325 0.368759 -0.277570
O10   O     O_R   0.131171 0.366793 0.391139 -0.299053
N4    N     N_R   0.948337 0.620053 0.597710 0.276785
O11   O     O_R   0.005517 0.663649 0.631912 -0.277889
O12   O     O_R   0.868682 0.632973 0.609640 -0.289017
N5    N     N_R   0.636286 0.567006 0.712189 0.221091
O13   O     O_R   0.712738 0.546292 0.730915 -0.317173
O14   O     O_R   0.625700 0.630337 0.673903 -0.363273
N6    N     N_R   0.421339 0.379039 0.286549 0.210838
O15   O     O_R   0.437513 0.309749 0.263413 -0.395205
O16   O     O_R   0.353161 0.390997 0.326819 -0.313499
H1    H     H_    0.618515 0.557488 0.867867 0.193088
H2    H     H_    0.433675 0.396064 0.131137 0.192839
N7    N     N_R   0.944097 0.360663 0.560498 0.275857
O17   O     O_R   0.999758 0.310319 0.581335 -0.279930
O18   O     O_R   0.863977 0.345295 0.568123 -0.335080
N8    N     N_R   0.055796 0.639324 0.440158 0.275306
O19   O     O_R   0.000100 0.689639 0.419327 -0.280706
O20   O     O_R   0.135906 0.654756 0.432577 -0.337989
N9    N     N_R   0.939837 0.519074 0.344864 0.274240
O21   O     O_R   0.994000 0.525968 0.287795 -0.271745
O22   O     O_R   0.859258 0.521170 0.328503 -0.342460
N10   N     N_R   0.060160 0.480896 0.655770 0.274048
O23   O     O_R   0.006025 0.474023 0.712865 -0.263600
O24   O     O_R   0.140750 0.478793 0.672092 -0.352267
H3    H     H_    0.520709 0.879727 0.630119 0.155325
H4    H     H_    0.565618 0.124506 0.378421 0.160420
H5    H     H_    0.500646 0.741134 0.629518 0.189067
H6    H     H_    0.547188 0.262959 0.376284 0.198356
H7    H     H_    0.521175 0.738398 0.372518 0.162484
H8    H     H_    0.475957 0.258928 0.624151 0.169416
H9    H     H_    0.540816 0.876900 0.374392 0.153671
H10   H     H_    0.495876 0.120807 0.625595 0.153679
H11   H     H_    0.377656 0.441540 0.860016 0.181229
H12   H     H_    0.569608 0.609509 0.140855 0.170796
H13   H     H_    0.381891 0.441761 0.712627 0.176806
H14   H     H_    0.568183 0.604756 0.288225 0.156133

loop_
_geom_bond_atom_site_label_1
_geom_bond_atom_site_label_2
_geom_bond_distance
_ccdc_geom_bond_type
C31   H11   1.082901 S    
N3    O9    1.300226 A    
C17   C19   1.386718 A    
C8    C11   1.538508 S    
C6    N8    1.457037 S    
O7    Zn2   1.989076 S    
C35   C37   1.411089 A    
C41   C42   1.225621 T    
C26   H10   1.083982 S    
O5    C3    1.275092 A    
C3    C9    1.394922 S    
C7    C13   1.543333 S    
C8    C14   1.543249 S    
C25   C27   1.393393 A    
C14   C16   1.426982 S    
C19   H5    1.082987 S    
N7    O17   1.300227 A    
N10   O24   1.300175 A    
C36   N6    1.429643 S    
N4    O12   1.300194 A    
N5    O14   1.299335 A    
C24   H8    1.083320 S    
O4    Zn1   1.982714 S    
N7    O18   1.300151 A    
C23   H7    1.083158 S    
C25   H9    1.083949 S    
C8    N4    1.457127 S    
C34   N2    1.368527 A    
C37   C39   1.396774 A    
C11   N10   1.457199 S    
C38   C40   1.396134 A    
C21   C23   1.404179 A    
C7    N3    1.457108 S    
C24   C26   1.385682 A    
C34   H14   1.081401 S    
C1    C22   1.451457 S    
C36   C38   1.411473 A    
C2    C21   1.453374 S    
C28   C30   1.408382 S    
C31   C33   1.414596 A    
O2    C2    1.282953 A    
C32   C34   1.414783 A    
C12   N9    1.457216 S    
O2    Zn2   1.975768 S    
C40   C42   1.472348 S    
N1    C35   1.377119 A    
C5    N7    1.457042 S    
N2    C36   1.378097 A    
C18   H4    1.083849 S    
C17   H3    1.083909 S    
Zn2   N2    1.988088 S    
C29   C30   1.187107 T    
N10   O23   1.300225 A    
O6    Zn2   1.978180 S    
N4    O11   1.300217 A    
C33   H13   1.081348 S    
C32   H12   1.082880 S    
C22   C24   1.403074 A    
N9    O21   1.300220 A    
O7    C3    1.275913 A    
C18   C28   1.394132 A    
O6    C4    1.275389 A    
C4    C10   1.394613 S    
C6    C8    1.538532 S    
C33   N1    1.368307 A    
O3    Zn2   1.982716 S    
O8    C4    1.275491 A    
N8    O20   1.300135 A    
C5    C14   1.543363 S    
C6    C13   1.543470 S    
N3    O10   1.300171 A    
O1    C1    1.281991 A    
O4    C2    1.284324 A    
O1    Zn1   1.975769 S    
C26   C28   1.393820 A    
Zn1   N1    1.988089 S    
C5    C7    1.538502 S    
C6    C12   1.538329 S    
C37   H1    1.083962 S    
N8    O19   1.300232 A    
O3    C1    1.284286 A    
O8    Zn1   1.989072 S    
C35   N5    1.428374 S    
C7    C12   1.538360 S    
N6    O15   1.301024 A    
C11   C13   1.544069 S    
C19   C21   1.403527 A    
C20   C22   1.402998 A    
C5    C11   1.538453 S    
C10   C16   1.181956 T    
C17   C27   1.394169 A    
C18   C20   1.387065 A    
C23   C25   1.385976 A    
C12   C14   1.543954 S    
C13   C15   1.427212 S    
C20   H6    1.082304 S    
N5    O13   1.301055 A    
C9    C15   1.182113 T    
O5    Zn1   1.978179 S    
C27   C29   1.408404 S    
N9    O22   1.300150 A    
C32   C40   1.404881 A    
C39   C41   1.472348 S    
C38   H2    1.083988 S    
C31   C39   1.405083 A    
N6    O16   1.299009 A    
