data_mof_unit_pretest_1184.cif
_audit_creation_date              2012-12-10T16:48:04-0500
_audit_creation_method            fapswitch 2.2
_symmetry_space_group_name_H-M    P1
_symmetry_Int_Tables_number       1
_space_group_crystal_system       triclinic
_cell_length_a                    15.850094
_cell_length_b                    8.756881
_cell_length_c                    7.448872
_cell_angle_alpha                 102.613588
_cell_angle_beta                  94.786271
_cell_angle_gamma                 92.297663
_cell_volume                      1003.60376122

loop_
_atom_site_label
_atom_site_type_symbol
_atom_type_description
_atom_site_fract_x
_atom_site_fract_y
_atom_site_fract_z
_atom_type_partial_charge
C1    C     C_R   0.495698 0.200546 0.454571 0.827168
C2    C     C_3   0.979602 0.624200 0.630168 -0.218676
C3    C     C_1   0.250549 0.501072 0.502703 -0.131874
C4    C     C_1   0.749451 0.498927 0.497296 -0.131874
C5    C     C_3   0.035062 0.489930 0.665312 -0.021845
C6    C     C_3   0.964938 0.510068 0.334687 -0.021845
C7    C     C_3   0.083305 0.500761 0.497778 0.070093
C8    C     C_3   0.916695 0.499238 0.502221 0.070093
C9    C     C_1   0.175004 0.501282 0.500200 -0.005252
C10   C     C_1   0.824995 0.498717 0.499800 -0.005252
C11   C     C_1   0.939909 0.221091 0.583928 0.281801
C12   C     C_R   0.504302 0.799454 0.545429 0.827168
C13   C     C_1   0.060091 0.778907 0.416071 0.281800
C14   C     C_1   0.923584 0.521664 0.154635 0.270149
C15   C     C_1   0.076416 0.478335 0.845364 0.270149
C16   C     C_1   0.426580 0.953496 0.274662 0.308945
C17   C     C_1   0.573420 0.046504 0.725337 0.308945
C18   C     C_R   0.339994 0.500148 0.501277 0.818513
C19   C     C_R   0.660006 0.499851 0.498723 0.818512
C20   C     C_2   0.483272 0.034866 0.433816 -0.259857
C21   C     C_2   0.516728 0.965133 0.566184 -0.259857
C22   C     C_3   0.971688 0.366883 0.539412 -0.027931
C23   C     C_3   0.028311 0.633116 0.460588 -0.027931
C24   C     C_3   0.020398 0.375798 0.369832 -0.218676
Cu1   Cu    Cu3+1 0.509330 0.517380 0.684380 0.996426
Cu2   Cu    Cu3+1 0.490670 0.482620 0.315620 0.996426
H1    H     H_    0.037704 0.274928 0.263488 0.174970
H2    H     H_    0.962296 0.725071 0.736511 0.174970
H3    H     H_    0.434783 0.377075 0.948206 0.231348
H4    H     H_    0.565216 0.622925 0.051794 0.231348
N1    N     N_2   0.476600 0.456420 0.038510 -0.200582
N2    N     N_2   0.523400 0.543580 0.961490 -0.200582
N3    N     N_1   0.914888 0.106171 0.619066 -0.275185
N4    N     N_1   0.085112 0.893827 0.380933 -0.275185
N5    N     N_1   0.890557 0.530806 0.013182 -0.282857
N6    N     N_1   0.109443 0.469192 0.986817 -0.282857
N7    N     N_1   0.381498 0.889281 0.148032 -0.248179
N8    N     N_1   0.618502 0.110718 0.851967 -0.248179
O1    O     O_R   0.506070 0.286130 0.619780 -0.584330
O2    O     O_R   0.493930 0.713870 0.380220 -0.584330
O3    O     O_R   0.490300 0.256770 0.308360 -0.575037
O4    O     O_R   0.509700 0.743230 0.691640 -0.575038
O5    O     O_R   0.386960 0.514660 0.655680 -0.580533
O6    O     O_R   0.613040 0.485340 0.344320 -0.580534
O7    O     O_R   0.371190 0.485310 0.344260 -0.567273
O8    O     O_R   0.628810 0.514690 0.655740 -0.567273

loop_
_geom_bond_atom_site_label_1
_geom_bond_atom_site_label_2
_ccdc_geom_bond_type
Cu1   O4    S    
C12   O2    A    
C8    C22   S    
C3    C9    T    
C6    C14   S    
C2    H2    S    
C11   C22   S    
N1    N2    D    
C24   H1    S    
C16   N7    T    
C16   C20   S    
C6    C24   S    
Cu1   O5    S    
Cu1   N2    S    
Cu1   Cu2   S    
C19   O8    A    
Cu2   O6    S    
C13   N4    T    
H3    N1    S    
C18   O5    A    
Cu1   O1    S    
H4    N2    S    
Cu2   O2    S    
C7    C23   S    
C6    C23   S    
C12   C21   S    
C1    O3    A    
C17   N8    T    
C22   C24   S    
C5    C15   S    
C2    C5    S    
C1    O1    A    
C12   O4    A    
C7    C24   S    
C18   O7    A    
C15   N6    T    
C11   N3    T    
C19   O6    A    
C13   C23   S    
C3    C18   S    
C5    C7    S    
Cu2   N1    S    
C2    C23   S    
C7    C9    S    
C1    C20   S    
C6    C8    S    
Cu2   O7    S    
C20   C21   D    
C4    C19   S    
C4    C10   T    
Cu1   O8    S    
C14   N5    T    
C8    C10   S    
C2    C8    S    
C5    C22   S    
Cu2   O3    S    
C17   C21   S    
