data_mof_unit_pretest_1929.cif
_audit_creation_date              2012-12-10T16:57:54-0500
_audit_creation_method            fapswitch 2.2
_symmetry_space_group_name_H-M    P1
_symmetry_Int_Tables_number       1
_space_group_crystal_system       triclinic
_cell_length_a                    12.89175
_cell_length_b                    13.072212
_cell_length_c                    15.144995
_cell_angle_alpha                 86.893601
_cell_angle_beta                  99.172261
_cell_angle_gamma                 90.406689
_cell_volume                      2515.95031239

loop_
_atom_site_label
_atom_site_type_symbol
_atom_type_description
_atom_site_fract_x
_atom_site_fract_y
_atom_site_fract_z
_atom_type_partial_charge
Br1   Br    Br    0.585408 0.319156 0.856658 -0.464252
Br2   Br    Br    0.538535 0.051266 0.658357 -0.407442
Br3   Br    Br    0.441118 0.740590 0.784253 -0.397154
Br4   Br    Br    0.537305 0.115859 0.348938 -0.438422
Br5   Br    Br    0.333067 0.941729 0.376217 -0.375933
C1    C     C_R   0.465126 0.773491 0.465513 0.531904
C2    C     C_2   0.539953 0.056792 0.468841 0.153611
C3    C     C_2   0.458914 0.885183 0.446983 0.199529
C4    C     C_R   0.535412 0.226160 0.532144 0.564861
C5    C     C_2   0.540163 0.944388 0.480801 -0.062910
C6    C     C_2   0.107274 0.470643 0.476967 -0.108287
C7    C     C_2   0.066038 0.444257 0.551128 -0.159026
C8    C     C_2   0.895234 0.533542 0.543419 -0.092362
C9    C     C_2   0.951132 0.444467 0.551654 -0.038822
C10   C     C_R   0.778712 0.533543 0.527204 0.497063
C11   C     C_R   0.221845 0.466998 0.476291 0.517999
C12   C     C_R   0.520028 0.376328 0.135964 -0.110993
C13   C     C_R   0.512607 0.518095 0.740867 0.569389
C14   C     C_R   0.486564 0.480543 0.258863 0.517804
C15   C     C_R   0.509101 0.529188 0.835591 0.046948
C16   C     C_R   0.485878 0.469065 0.163656 0.029833
C17   C     C_R   0.533179 0.366694 0.047654 -0.082877
C18   C     C_R   0.902192 0.342947 0.567462 0.066665
C19   C     C_R   0.918413 0.261151 0.514654 -0.060952
C20   C     C_R   0.873588 0.165350 0.529744 -0.085196
C21   C     C_R   0.813193 0.150080 0.598131 -0.084596
C22   C     C_R   0.797230 0.230650 0.651468 -0.091598
C23   C     C_R   0.462566 0.552140 0.101991 -0.111279
C24   C     C_R   0.841693 0.326649 0.636524 -0.073446
C25   C     C_R   0.477912 0.544031 0.013215 -0.014148
C26   C     C_R   0.513998 0.450546 0.985301 0.050645
C27   C     C_R   0.530297 0.443534 0.896160 0.120362
C28   C     C_R   0.474943 0.622153 0.864350 0.128225
C29   C     C_R   0.459755 0.628936 0.952748 -0.098502
C30   C     C_2   0.542822 0.114065 0.540756 0.145277
H1    H     H_    0.116138 0.411648 0.610308 0.171772
H2    H     H_    0.885802 0.102865 0.488464 0.137872
H3    H     H_    0.778789 0.075788 0.609772 0.144612
H4    H     H_    0.750423 0.218704 0.704444 0.172164
H5    H     H_    0.829432 0.388036 0.679000 0.119420
H6    H     H_    0.935771 0.606646 0.543185 0.115659
H7    H     H_    0.056370 0.501348 0.417421 0.129313
H8    H     H_    0.559934 0.293607 0.029782 0.188382
H9    H     H_    0.432514 0.700523 0.973931 0.165153
H10   H     H_    0.538160 0.311328 0.183339 0.177728
H11   H     H_    0.437453 0.624187 0.124073 0.138055
H12   H     H_    0.608299 0.909930 0.523214 0.134700
H13   H     H_    0.964972 0.271803 0.461330 0.128512
O1    O     O_3   0.500000 0.500000 0.500000 -0.465830
O2    O     O_R   0.563230 0.581310 0.697440 -0.500490
O3    O     O_R   0.421030 0.536630 0.288090 -0.532183
O4    O     O_R   0.459330 0.447650 0.700640 -0.504631
O5    O     O_R   0.556410 0.434400 0.313840 -0.529387
O6    O     O_R   0.733070 0.467190 0.476550 -0.529134
O7    O     O_R   0.261010 0.525210 0.419080 -0.523043
O8    O     O_R   0.532760 0.736590 0.530220 -0.537511
O9    O     O_R   0.473150 0.271000 0.574150 -0.487100
O10   O     O_R   0.407210 0.713280 0.414580 -0.504041
O11   O     O_R   0.586880 0.279120 0.481060 -0.517272
O12   O     O_R   0.723250 0.592730 0.566440 -0.531461
O13   O     O_R   0.282660 0.414860 0.537920 -0.529865
Zn1   Zn    Zn3+2 0.592480 0.421540 0.443840 0.981577
Zn2   Zn    Zn3+2 0.578450 0.600910 0.572270 0.992892
Zn3   Zn    Zn3+2 0.430000 0.409940 0.576840 1.019095
Zn4   Zn    Zn3+2 0.399070 0.567610 0.407050 0.993125

loop_
_geom_bond_atom_site_label_1
_geom_bond_atom_site_label_2
_ccdc_geom_bond_type
C9    C18   S    
Br2   C30   S    
O13   Zn3   S    
C6    C7    D    
O1    Zn2   S    
C12   C17   A    
C7    H1    S    
C6    C11   S    
C1    O10   A    
O10   Zn4   S    
C4    O9    A    
C26   C27   A    
C18   C19   A    
C20   H2    S    
C17   C26   A    
C14   O5    A    
C23   C25   A    
C28   C29   A    
O8    Zn2   S    
C13   O4    A    
O1    Zn3   S    
C8    C9    D    
C19   C20   A    
O2    Zn2   S    
C23   H11   S    
C21   C22   A    
O1    Zn4   S    
O9    Zn3   S    
Br4   C2    S    
C15   C28   A    
C18   C24   A    
C24   H5    S    
C8    H6    S    
C14   C16   S    
C16   C23   A    
C7    C9    S    
C13   C15   S    
C8    C10   S    
C15   C27   A    
C25   C26   A    
O12   Zn2   S    
C11   O7    A    
Br5   C3    S    
O3    Zn4   S    
C11   O13   A    
Br3   C28   S    
C22   H4    S    
C19   H13   S    
C10   O6    A    
C14   O3    A    
Br1   C27   S    
C29   H9    S    
C22   C24   A    
C13   O2    A    
C6    H7    S    
C3    C5    D    
O4    Zn3   S    
C2    C5    S    
C1    O8    A    
C5    H12   S    
C4    C30   S    
C25   C29   A    
C21   H3    S    
O11   Zn1   S    
C1    C3    S    
O1    Zn1   S    
O6    Zn1   S    
O7    Zn4   S    
C20   C21   A    
C2    C30   D    
C10   O12   A    
C12   C16   A    
C17   H8    S    
O5    Zn1   S    
C12   H10   S    
C4    O11   A    
