data_mof_unit_pretest_1854.cif
_audit_creation_date              2012-12-10T17:48:01-0500
_audit_creation_method            fapswitch 2.2
_symmetry_space_group_name_H-M    P1
_symmetry_Int_Tables_number       1
_space_group_crystal_system       triclinic
_cell_length_a                    26.030778
_cell_length_b                    27.683974
_cell_length_c                    27.6765
_cell_angle_alpha                 89.95614
_cell_angle_beta                  90.027256
_cell_angle_gamma                 89.970901
_cell_volume                      19944.6544557

loop_
_atom_site_label
_atom_site_type_symbol
_atom_type_description
_atom_site_fract_x
_atom_site_fract_y
_atom_site_fract_z
_atom_type_partial_charge
C1    C     C_R   0.391558 0.999668 0.250165 0.939131
C2    C     C_R   0.391658 0.999443 0.749698 0.895327
C3    C     C_R   0.608606 0.998229 0.251483 0.923572
C4    C     C_R   0.608486 0.999825 0.749789 0.970660
C5    C     C_R   0.891451 0.500448 0.249598 1.024934
C6    C     C_R   0.891576 0.500506 0.750799 0.859521
C7    C     C_R   0.108423 0.500112 0.249638 0.859107
C8    C     C_R   0.108442 0.500291 0.750200 0.928211
C9    C     C_R   0.891524 0.000134 0.749822 0.987598
C10   C     C_R   0.891611 0.999847 0.250133 0.869931
C11   C     C_R   0.108543 0.001349 0.748566 0.910478
C12   C     C_R   0.108552 0.000347 0.250288 1.023687
C13   C     C_R   0.391500 0.500615 0.749187 0.979161
C14   C     C_R   0.391665 0.499373 0.249654 0.902868
C15   C     C_R   0.608564 0.501564 0.748021 0.936622
C16   C     C_R   0.608495 0.499796 0.249739 0.962599
C17   C     C_3   0.029937 0.006552 0.302831 0.147638
C18   C     C_3   0.030080 0.042427 0.783062 0.148899
C19   C     C_3   0.970235 0.008836 0.303249 0.150325
C20   C     C_3   0.970729 0.042134 0.782710 0.154236
C21   C     C_3   0.530480 0.515570 0.299811 0.197465
C22   C     C_3   0.530093 0.550064 0.769949 0.130661
C23   C     C_3   0.470814 0.521744 0.298225 0.168989
C24   C     C_3   0.470643 0.549509 0.770012 0.153399
C25   C     C_3   0.530349 0.010457 0.801267 0.196310
C26   C     C_3   0.531146 0.040309 0.220232 0.127984
C27   C     C_3   0.470842 0.018079 0.799672 0.174286
C28   C     C_3   0.472207 0.045255 0.227119 0.214925
C29   C     C_3   0.030452 0.496081 0.803152 0.216980
C30   C     C_3   0.029731 0.505028 0.196001 0.152815
C31   C     C_3   0.971280 0.504974 0.804257 0.167954
C32   C     C_3   0.970101 0.502482 0.196573 0.149050
C33   C     C_3   0.030136 0.044553 0.218548 0.636603
C34   C     C_3   0.030979 0.949870 0.763694 0.636850
C35   C     C_3   0.969708 0.040781 0.214732 0.593902
C36   C     C_3   0.970360 0.950899 0.770590 0.610694
C37   C     C_3   0.530070 0.535351 0.209080 0.625611
C38   C     C_3   0.530958 0.455550 0.775279 0.632537
C39   C     C_3   0.470170 0.529410 0.204925 0.586631
C40   C     C_3   0.470216 0.458080 0.781247 0.611555
C41   C     C_3   0.529976 0.038485 0.712283 0.623470
C42   C     C_3   0.530547 0.003236 0.306024 0.697884
C43   C     C_3   0.470163 0.032759 0.707429 0.584978
C44   C     C_3   0.469930 0.995077 0.305930 0.561787
C45   C     C_3   0.029891 0.548283 0.725710 0.644496
C46   C     C_3   0.030336 0.544053 0.281266 0.594529
C47   C     C_3   0.969769 0.545128 0.720699 0.593166
C48   C     C_3   0.969823 0.547263 0.277379 0.638728
C49   C     C_3   0.051085 0.999802 0.249569 -0.335398
C50   C     C_3   0.050879 0.002083 0.747314 -0.364481
C51   C     C_3   0.949355 0.999001 0.250200 -0.360204
C52   C     C_3   0.949136 0.000597 0.748692 -0.359936
C53   C     C_3   0.550867 0.498964 0.248970 -0.300755
C54   C     C_3   0.550881 0.501789 0.746070 -0.367463
C55   C     C_3   0.449496 0.498642 0.249968 -0.363736
C56   C     C_3   0.449110 0.500746 0.747659 -0.365789
C57   C     C_3   0.550838 0.998901 0.748973 -0.304043
C58   C     C_3   0.551148 0.996527 0.252149 -0.374289
C59   C     C_3   0.449479 0.998655 0.749853 -0.356469
C60   C     C_3   0.449160 0.997972 0.250886 -0.423404
C61   C     C_3   0.050719 0.499808 0.749524 -0.341061
C62   C     C_3   0.050696 0.499394 0.249619 -0.358120
C63   C     C_3   0.949323 0.500021 0.751121 -0.386605
C64   C     C_3   0.948956 0.500043 0.250263 -0.337440
C65   C     C_1   0.250170 0.000179 0.069006 -0.143558
C66   C     C_1   0.250351 0.000209 0.930997 -0.152087
C67   C     C_1   0.750186 0.999910 0.069005 -0.133343
C68   C     C_1   0.750354 0.999854 0.930987 -0.130944
C69   C     C_1   0.750061 0.500056 0.068999 -0.130163
C70   C     C_1   0.750163 0.500045 0.930990 -0.148935
C71   C     C_1   0.249695 0.500186 0.069006 -0.140684
C72   C     C_1   0.249773 0.500170 0.930993 -0.137763
C73   C     C_1   0.750024 0.000121 0.569008 -0.133093
C74   C     C_1   0.750234 0.000103 0.430999 -0.137456
C75   C     C_1   0.250223 0.999873 0.569019 -0.137013
C76   C     C_1   0.250070 0.999913 0.431003 -0.128375
C77   C     C_1   0.250102 0.500014 0.569006 -0.142288
C78   C     C_1   0.250197 0.500018 0.430994 -0.144495
C79   C     C_1   0.750048 0.499889 0.569005 -0.143855
C80   C     C_1   0.750179 0.499744 0.430992 -0.139801
C81   C     C_1   0.250347 0.000269 0.025482 0.004165
C82   C     C_1   0.250439 0.000282 0.974522 -0.000447
C83   C     C_1   0.750405 0.999875 0.025478 0.001605
C84   C     C_1   0.750556 0.999857 0.974515 -0.008050
C85   C     C_1   0.750144 0.500071 0.025472 0.006189
C86   C     C_1   0.750181 0.500062 0.974514 -0.003076
C87   C     C_1   0.249580 0.500240 0.025480 0.001891
C88   C     C_1   0.249632 0.500242 0.974521 -0.001431
C89   C     C_1   0.750096 0.000184 0.525482 -0.002570
C90   C     C_1   0.750232 0.000158 0.474524 0.001217
C91   C     C_1   0.250311 0.999839 0.525492 -0.001389
C92   C     C_1   0.250188 0.999865 0.474532 0.009612
C93   C     C_1   0.250220 0.500006 0.525481 0.000190
C94   C     C_1   0.250266 0.500010 0.474520 -0.000456
C95   C     C_1   0.750085 0.499790 0.525477 -0.000494
C96   C     C_1   0.750135 0.499715 0.474518 0.007761
C97   C     C_R   0.249996 0.999986 0.379203 0.823120
C98   C     C_R   0.250024 0.999981 0.620804 0.804305
C99   C     C_R   0.750094 0.000041 0.379207 0.816436
C100  C     C_R   0.749993 0.000011 0.620796 0.813071
C101  C     C_R   0.750092 0.499889 0.379198 0.802200
C102  C     C_R   0.749994 0.499985 0.620799 0.800197
C103  C     C_R   0.250065 0.500011 0.379204 0.800952
C104  C     C_R   0.250001 0.499989 0.620795 0.813008
C105  C     C_R   0.750062 0.999955 0.879198 0.815362
C106  C     C_R   0.750013 0.999991 0.120801 0.801453
C107  C     C_R   0.250124 0.000073 0.879205 0.819390
C108  C     C_R   0.250022 0.000030 0.120796 0.809527
C109  C     C_R   0.249943 0.500032 0.879200 0.825174
C110  C     C_R   0.249908 0.500061 0.120800 0.813897
C111  C     C_R   0.750078 0.500030 0.879204 0.826536
C112  C     C_R   0.749990 0.499996 0.120794 0.817208
C113  C     C_R   0.250013 0.129213 0.249967 0.815845
C114  C     C_R   0.249958 0.129200 0.749978 0.803779
C115  C     C_R   0.749956 0.129204 0.249954 0.800458
C116  C     C_R   0.750081 0.129209 0.749912 0.808159
C117  C     C_R   0.749979 0.629213 0.249994 0.813517
C118  C     C_R   0.749903 0.629203 0.749925 0.806709
C119  C     C_R   0.250018 0.629204 0.250003 0.803078
C120  C     C_R   0.250069 0.629210 0.749920 0.813051
C121  C     C_R   0.249982 0.870772 0.249966 0.819669
C122  C     C_R   0.250078 0.870764 0.749955 0.825226
C123  C     C_R   0.750049 0.870768 0.249973 0.802875
C124  C     C_R   0.749869 0.870768 0.749894 0.818557
C125  C     C_R   0.749986 0.370773 0.249994 0.811422
C126  C     C_R   0.750109 0.370764 0.749927 0.829399
C127  C     C_R   0.250034 0.370768 0.249999 0.807791
C128  C     C_R   0.249960 0.370768 0.749975 0.822182
C129  C     C_1   0.250023 0.818993 0.249924 -0.148569
C130  C     C_1   0.250204 0.818984 0.749880 -0.140988
C131  C     C_1   0.750088 0.818993 0.249951 -0.151345
C132  C     C_1   0.749569 0.818982 0.749696 -0.130051
C133  C     C_1   0.749896 0.318994 0.249929 -0.135333
C134  C     C_1   0.750335 0.318983 0.749783 -0.140882
C135  C     C_1   0.250085 0.318995 0.250003 -0.156167
C136  C     C_1   0.249853 0.318979 0.749940 -0.133207
C137  C     C_1   0.250078 0.775477 0.249897 0.000689
C138  C     C_1   0.250304 0.775467 0.749803 0.008278
C139  C     C_1   0.750072 0.775480 0.249935 0.003921
C140  C     C_1   0.749383 0.775464 0.749612 0.004382
C141  C     C_1   0.749824 0.275477 0.249861 0.003240
C142  C     C_1   0.750479 0.275466 0.749678 0.009340
C143  C     C_1   0.250090 0.275481 0.249990 -0.000162
C144  C     C_1   0.249763 0.275458 0.749940 0.005240
C145  C     C_1   0.250086 0.724521 0.249922 0.003930
C146  C     C_1   0.250331 0.724517 0.749752 0.012642
C147  C     C_1   0.750011 0.724531 0.249937 0.010371
C148  C     C_1   0.749405 0.724509 0.749634 0.006820
C149  C     C_1   0.749811 0.224521 0.249831 0.004931
C150  C     C_1   0.750468 0.224514 0.749649 0.010233
C151  C     C_1   0.250079 0.224531 0.249951 0.010643
C152  C     C_1   0.249747 0.224503 0.749948 0.004554
C153  C     C_1   0.250052 0.680999 0.249969 -0.131428
C154  C     C_1   0.250229 0.680998 0.749785 -0.130264
C155  C     C_1   0.749975 0.681009 0.249954 -0.124083
C156  C     C_1   0.749609 0.680991 0.749736 -0.134725
C157  C     C_1   0.749864 0.180998 0.249866 -0.132627
C158  C     C_1   0.750307 0.180995 0.749724 -0.133023
C159  C     C_1   0.250040 0.181009 0.249933 -0.130191
C160  C     C_1   0.249833 0.180985 0.749949 -0.140492
C161  C     C_3   0.031391 0.951224 0.225279 0.728663
C162  C     C_3   0.030039 0.013553 0.693945 0.683109
C163  C     C_3   0.970456 0.947771 0.230972 0.696647
C164  C     C_3   0.969136 0.005294 0.694102 0.747458
C165  C     C_3   0.531235 0.446026 0.237370 0.766637
C166  C     C_3   0.530051 0.498848 0.691242 0.688982
C167  C     C_3   0.470892 0.444062 0.246010 0.710063
C168  C     C_3   0.469133 0.491437 0.693523 0.756250
C169  C     C_3   0.531280 0.947147 0.732947 0.768428
C170  C     C_3   0.529611 0.945342 0.233005 0.728010
C171  C     C_3   0.470924 0.944529 0.741873 0.707179
C172  C     C_3   0.470036 0.950888 0.223084 0.763875
C173  C     C_3   0.030452 0.455000 0.719479 0.755075
C174  C     C_3   0.029815 0.449981 0.273175 0.692936
C175  C     C_3   0.970045 0.450819 0.727166 0.766156
C176  C     C_3   0.968836 0.453725 0.278593 0.727425
H1    H     H_    0.041573 0.043755 0.312261 0.124654
H2    H     H_    0.042650 0.032269 0.820233 0.038958
H3    H     H_    0.960603 0.046820 0.312851 0.020570
H4    H     H_    0.960851 0.029952 0.819532 0.152248
H5    H     H_    0.548234 0.551565 0.307113 0.033479
H6    H     H_    0.542698 0.550253 0.808453 0.050896
H7    H     H_    0.464169 0.561370 0.298304 -0.005214
H8    H     H_    0.461071 0.547007 0.808780 0.156136
H9    H     H_    0.549292 0.044682 0.813003 0.030965
H10   H     H_    0.548477 0.074360 0.234614 0.101150
H11   H     H_    0.465226 0.057725 0.802174 -0.006734
H12   H     H_    0.469218 0.072424 0.255696 0.075209
H13   H     H_    0.050021 0.525059 0.824372 0.034010
H14   H     H_    0.039217 0.542299 0.183694 0.022245
H15   H     H_    0.966637 0.542843 0.816809 0.006327
H16   H     H_    0.958175 0.538699 0.184021 0.124303
O1    O     O_3   0.250000 0.999990 0.250000 -0.501333
O2    O     O_3   0.250000 0.999990 0.750000 -0.492024
O3    O     O_3   0.750000 0.999990 0.250000 -0.498294
O4    O     O_3   0.750000 0.999990 0.750000 -0.507124
O5    O     O_3   0.750000 0.499990 0.250000 -0.514210
O6    O     O_3   0.750000 0.499990 0.750000 -0.489773
O7    O     O_3   0.250000 0.499990 0.250000 -0.491739
O8    O     O_3   0.250000 0.499990 0.750000 -0.500661
O9    O     O_R   0.366860 0.972110 0.222130 -0.651669
O10   O     O_R   0.366860 0.972110 0.777870 -0.687246
O11   O     O_R   0.633140 0.972110 0.222130 -0.638600
O12   O     O_R   0.633140 0.972110 0.777870 -0.603059
O13   O     O_R   0.866860 0.472110 0.222130 -0.627300
O14   O     O_R   0.866860 0.472110 0.777870 -0.678052
O15   O     O_R   0.133140 0.472110 0.222130 -0.673151
O16   O     O_R   0.133140 0.472110 0.777870 -0.650127
O17   O     O_R   0.866860 0.972110 0.722130 -0.619845
O18   O     O_R   0.866860 0.972110 0.277870 -0.678666
O19   O     O_R   0.133140 0.972110 0.722130 -0.593496
O20   O     O_R   0.133140 0.972110 0.277870 -0.626976
O21   O     O_R   0.366860 0.472110 0.722130 -0.627403
O22   O     O_R   0.366860 0.472110 0.277870 -0.692399
O23   O     O_R   0.633140 0.472110 0.722130 -0.617118
O24   O     O_R   0.633140 0.472110 0.277870 -0.599011
O25   O     O_R   0.280630 0.027850 0.356260 -0.619804
O26   O     O_R   0.280630 0.027850 0.643740 -0.613703
O27   O     O_R   0.719370 0.027850 0.356260 -0.609491
O28   O     O_R   0.719370 0.027850 0.643740 -0.617495
O29   O     O_R   0.780630 0.527850 0.356260 -0.622749
O30   O     O_R   0.780630 0.527850 0.643740 -0.617780
O31   O     O_R   0.219370 0.527850 0.356260 -0.619446
O32   O     O_R   0.219370 0.527850 0.643740 -0.621347
O33   O     O_R   0.780630 0.027850 0.856260 -0.624528
O34   O     O_R   0.780630 0.027850 0.143740 -0.622946
O35   O     O_R   0.219370 0.027850 0.856260 -0.635799
O36   O     O_R   0.219370 0.027850 0.143740 -0.621775
O37   O     O_R   0.280630 0.527850 0.856260 -0.620637
O38   O     O_R   0.280630 0.527850 0.143740 -0.613294
O39   O     O_R   0.719370 0.527850 0.856260 -0.628757
O40   O     O_R   0.719370 0.527850 0.143740 -0.621715
O41   O     O_R   0.280630 0.106260 0.277850 -0.633639
O42   O     O_R   0.280630 0.106260 0.722150 -0.623492
O43   O     O_R   0.719370 0.106260 0.277850 -0.634701
O44   O     O_R   0.719370 0.106260 0.722150 -0.620733
O45   O     O_R   0.780630 0.606260 0.277850 -0.624110
O46   O     O_R   0.780630 0.606260 0.722150 -0.621420
O47   O     O_R   0.219370 0.606260 0.277850 -0.625376
O48   O     O_R   0.219370 0.606260 0.722150 -0.620373
O49   O     O_R   0.780630 0.106260 0.777850 -0.640288
O50   O     O_R   0.780630 0.106260 0.222150 -0.626261
O51   O     O_R   0.219370 0.106260 0.777850 -0.649113
O52   O     O_R   0.219370 0.106260 0.222150 -0.624098
O53   O     O_R   0.280630 0.606260 0.777850 -0.634420
O54   O     O_R   0.280630 0.606260 0.222150 -0.633042
O55   O     O_R   0.719370 0.606260 0.777850 -0.649091
O56   O     O_R   0.719370 0.606260 0.222150 -0.628271
O57   O     O_R   0.280650 0.893700 0.222130 -0.647417
O58   O     O_R   0.280650 0.893700 0.777870 -0.649985
O59   O     O_R   0.719350 0.893700 0.222130 -0.636402
O60   O     O_R   0.719350 0.893700 0.777870 -0.627660
O61   O     O_R   0.780650 0.393700 0.222130 -0.638584
O62   O     O_R   0.780650 0.393700 0.777870 -0.640500
O63   O     O_R   0.219350 0.393700 0.222130 -0.634508
O64   O     O_R   0.219350 0.393700 0.777870 -0.635961
O65   O     O_R   0.780650 0.893700 0.722130 -0.636369
O66   O     O_R   0.780650 0.893700 0.277870 -0.638012
O67   O     O_R   0.219350 0.893700 0.722130 -0.615388
O68   O     O_R   0.219350 0.893700 0.277870 -0.632541
O69   O     O_R   0.280650 0.393700 0.722130 -0.641727
O70   O     O_R   0.280650 0.393700 0.277870 -0.646606
O71   O     O_R   0.719350 0.393700 0.722130 -0.622220
O72   O     O_R   0.719350 0.393700 0.277870 -0.627954
O73   O     O_R   0.219370 0.972130 0.356260 -0.639155
O74   O     O_R   0.219370 0.972130 0.643740 -0.668064
O75   O     O_R   0.780630 0.972130 0.356260 -0.657336
O76   O     O_R   0.780630 0.972130 0.643740 -0.658098
O77   O     O_R   0.719370 0.472130 0.356260 -0.649422
O78   O     O_R   0.719370 0.472130 0.643740 -0.675760
O79   O     O_R   0.280630 0.472130 0.356260 -0.652127
O80   O     O_R   0.280630 0.472130 0.643740 -0.662337
O81   O     O_R   0.719370 0.972130 0.856260 -0.651978
O82   O     O_R   0.719370 0.972130 0.143740 -0.635181
O83   O     O_R   0.280630 0.972130 0.856260 -0.645712
O84   O     O_R   0.280630 0.972130 0.143740 -0.652457
O85   O     O_R   0.219370 0.472130 0.856260 -0.660544
O86   O     O_R   0.219370 0.472130 0.143740 -0.657555
O87   O     O_R   0.780630 0.472130 0.856260 -0.656108
O88   O     O_R   0.780630 0.472130 0.143740 -0.637663
O89   O     O_R   0.366850 0.027840 0.277850 -0.625903
O90   O     O_R   0.366850 0.027840 0.722150 -0.582885
O91   O     O_R   0.633150 0.027840 0.277850 -0.596650
O92   O     O_R   0.633150 0.027840 0.722150 -0.580901
O93   O     O_R   0.866850 0.527840 0.277850 -0.576220
O94   O     O_R   0.866850 0.527840 0.722150 -0.575686
O95   O     O_R   0.133150 0.527840 0.277850 -0.578878
O96   O     O_R   0.133150 0.527840 0.722150 -0.561240
O97   O     O_R   0.866850 0.027840 0.777850 -0.620532
O98   O     O_R   0.866850 0.027840 0.222150 -0.577817
O99   O     O_R   0.133150 0.027840 0.777850 -0.653454
O100  O     O_R   0.133150 0.027840 0.222150 -0.578348
O101  O     O_R   0.366850 0.527840 0.777850 -0.616309
O102  O     O_R   0.366850 0.527840 0.222150 -0.585280
O103  O     O_R   0.633150 0.527840 0.777850 -0.656806
O104  O     O_R   0.633150 0.527840 0.222150 -0.584189
Zn1   Zn    Zn3+2 0.206230 0.960180 0.289800 0.985558
Zn2   Zn    Zn3+2 0.206230 0.960180 0.710200 0.989994
Zn3   Zn    Zn3+2 0.793770 0.960180 0.289800 0.939600
Zn4   Zn    Zn3+2 0.793770 0.960180 0.710200 0.972643
Zn5   Zn    Zn3+2 0.706230 0.460180 0.289800 0.980249
Zn6   Zn    Zn3+2 0.706230 0.460180 0.710200 0.972139
Zn7   Zn    Zn3+2 0.293770 0.460180 0.289800 0.935744
Zn8   Zn    Zn3+2 0.293770 0.460180 0.710200 0.958333
Zn9   Zn    Zn3+2 0.706230 0.960180 0.789800 0.982852
Zn10  Zn    Zn3+2 0.706230 0.960180 0.210200 0.967812
Zn11  Zn    Zn3+2 0.293770 0.960180 0.789800 0.950839
Zn12  Zn    Zn3+2 0.293770 0.960180 0.210200 0.949761
Zn13  Zn    Zn3+2 0.206230 0.460180 0.789800 0.954436
Zn14  Zn    Zn3+2 0.206230 0.460180 0.210200 0.940783
Zn15  Zn    Zn3+2 0.793770 0.460180 0.789800 0.951107
Zn16  Zn    Zn3+2 0.793770 0.460180 0.210200 0.977806
Zn17  Zn    Zn3+2 0.293770 0.039800 0.289800 1.003333
Zn18  Zn    Zn3+2 0.293770 0.039800 0.710200 1.005452
Zn19  Zn    Zn3+2 0.706230 0.039800 0.289800 1.005842
Zn20  Zn    Zn3+2 0.706230 0.039800 0.710200 1.019959
Zn21  Zn    Zn3+2 0.793770 0.539800 0.289800 1.019658
Zn22  Zn    Zn3+2 0.793770 0.539800 0.710200 1.000452
Zn23  Zn    Zn3+2 0.206230 0.539800 0.289800 0.997532
Zn24  Zn    Zn3+2 0.206230 0.539800 0.710200 1.021874
Zn25  Zn    Zn3+2 0.793770 0.039800 0.789800 0.994058
Zn26  Zn    Zn3+2 0.793770 0.039800 0.210200 0.996953
Zn27  Zn    Zn3+2 0.206230 0.039800 0.789800 0.953265
Zn28  Zn    Zn3+2 0.206230 0.039800 0.210200 1.023743
Zn29  Zn    Zn3+2 0.293770 0.539800 0.789800 1.004771
Zn30  Zn    Zn3+2 0.293770 0.539800 0.210200 1.004251
Zn31  Zn    Zn3+2 0.706230 0.539800 0.789800 0.964011
Zn32  Zn    Zn3+2 0.706230 0.539800 0.210200 1.013636
O105  O     O_3   0.057324 0.912250 0.247858 -0.838480
H17   H     H_    0.040181 0.881144 0.240818 0.346301
O106  O     O_3   0.039997 0.062136 0.680707 -0.832831
H18   H     H_    0.075365 0.071143 0.690279 0.341263
O107  O     O_3   0.960296 0.909052 0.263222 -0.844298
H19   H     H_    0.927184 0.912842 0.279820 0.379635
O108  O     O_3   0.941655 0.043333 0.671685 -0.869809
H20   H     H_    0.960516 0.055867 0.643293 0.340379
O109  O     O_3   0.557697 0.413557 0.268592 -0.711275
H21   H     H_    0.540710 0.381584 0.269113 0.342473
O110  O     O_3   0.540562 0.542002 0.665471 -0.832599
H22   H     H_    0.575676 0.553354 0.673215 0.336562
O111  O     O_3   0.463677 0.417334 0.289461 -0.760771
H23   H     H_    0.429935 0.423192 0.304190 0.382086
O112  O     O_3   0.442163 0.522933 0.662202 -0.868803
H24   H     H_    0.460890 0.527283 0.631394 0.341340
O113  O     O_3   0.558106 0.912225 0.761095 -0.718324
H25   H     H_    0.540750 0.880463 0.759579 0.339685
O114  O     O_3   0.554304 0.928587 0.190387 -0.787384
H26   H     H_    0.552831 0.953113 0.164653 0.401448
O115  O     O_3   0.464022 0.915289 0.783686 -0.758777
H27   H     H_    0.429488 0.918786 0.797574 0.380025
O116  O     O_3   0.462111 0.955942 0.172873 -0.842695
H28   H     H_    0.428205 0.942340 0.163962 0.345789
O117  O     O_3   0.054693 0.412328 0.736673 -0.700360
H29   H     H_    0.090307 0.411222 0.724079 0.317357
O118  O     O_3   0.040321 0.408751 0.244397 -0.844656
H30   H     H_    0.073405 0.411529 0.227494 0.377551
O119  O     O_3   0.962406 0.409952 0.757495 -0.710497
H31   H     H_    0.929628 0.412151 0.775099 0.367148
O120  O     O_3   0.942917 0.412995 0.259521 -0.843578
H32   H     H_    0.960304 0.382634 0.268995 0.346086
O121  O     O_3   0.045411 0.953887 0.175206 -0.578941
C177  C     C_3   0.053210 0.909379 0.151071 0.230170
H33   H     H_    0.040481 0.914453 0.113091 0.166112
H34   H     H_    0.029328 0.879378 0.165148 0.107267
C178  C     C_3   0.110540 0.896567 0.150385 -0.382556
H35   H     H_    0.132234 0.926164 0.132468 0.227091
H36   H     H_    0.125520 0.892766 0.187743 0.247722
C179  C     C_3   0.120158 0.849483 0.123277 -0.959602
H37   H     H_    0.099555 0.819226 0.141153 0.269074
H38   H     H_    0.161933 0.841327 0.123291 0.273479
H39   H     H_    0.106883 0.852675 0.085257 0.270446
O122  O     O_3   0.051741 0.980469 0.659403 -0.608712
C180  C     C_3   0.091964 0.997946 0.629292 0.225026
H40   H     H_    0.115823 0.966233 0.619263 0.183148
H41   H     H_    0.118839 0.022900 0.647735 0.102202
C181  C     C_3   0.071216 0.019908 0.582288 -0.436508
H42   H     H_    0.049811 0.991857 0.561855 0.211157
H43   H     H_    0.044801 0.050343 0.590264 0.251154
C182  C     C_3   0.114717 0.038369 0.550352 -0.925667
H44   H     H_    0.137806 0.065906 0.569843 0.262614
H45   H     H_    0.098456 0.055095 0.517224 0.270882
H46   H     H_    0.139920 0.007919 0.539466 0.266782
O123  O     O_3   0.949806 0.937698 0.183944 -0.604147
C183  C     C_3   0.905549 0.907854 0.182193 0.165673
H47   H     H_    0.881316 0.920919 0.151823 0.147834
H48   H     H_    0.880757 0.910024 0.214552 0.131314
C184  C     C_3   0.920679 0.855441 0.171729 -0.380155
H49   H     H_    0.940569 0.853618 0.136249 0.215470
H50   H     H_    0.947468 0.842051 0.199958 0.251032
C185  C     C_3   0.873618 0.822636 0.170486 -0.921359
H51   H     H_    0.854369 0.822515 0.206279 0.269157
H52   H     H_    0.885633 0.785154 0.161776 0.272699
H53   H     H_    0.846033 0.835138 0.142500 0.259804
O124  O     O_3   0.956704 0.960577 0.670702 -0.558479
C186  C     C_3   0.953295 0.961720 0.619592 0.221316
H54   H     H_    0.972413 0.928608 0.605781 0.169340
H55   H     H_    0.973403 0.992398 0.602585 0.100808
C187  C     C_3   0.897121 0.960935 0.603614 -0.304754
H56   H     H_    0.877437 0.929409 0.620219 0.257272
H57   H     H_    0.877685 0.994454 0.615907 0.250169
C188  C     C_3   0.892865 0.957468 0.548731 -1.011016
H58   H     H_    0.911823 0.989010 0.531542 0.270976
H59   H     H_    0.851825 0.957028 0.537966 0.284824
H60   H     H_    0.911267 0.923746 0.535574 0.272892
O125  O     O_3   0.543076 0.436948 0.187537 -0.598889
C189  C     C_3   0.557690 0.389258 0.175192 0.202190
H61   H     H_    0.545768 0.383394 0.137106 0.171959
H62   H     H_    0.537329 0.360996 0.195995 0.097700
C190  C     C_3   0.616253 0.383510 0.177711 -0.374333
H63   H     H_    0.634613 0.410823 0.153854 0.223355
H64   H     H_    0.630197 0.389673 0.215064 0.256396
C191  C     C_3   0.632887 0.333147 0.161741 -0.958439
H65   H     H_    0.616130 0.305342 0.186021 0.270382
H66   H     H_    0.675406 0.330362 0.163329 0.269026
H67   H     H_    0.620291 0.326162 0.124037 0.268509
O126  O     O_3   0.550994 0.457452 0.666565 -0.600664
C192  C     C_3   0.590078 0.465452 0.631392 0.247449
H68   H     H_    0.616327 0.433837 0.633193 0.186047
H69   H     H_    0.614977 0.497092 0.638334 0.124030
C193  C     C_3   0.568200 0.467420 0.580150 -0.448613
H70   H     H_    0.547020 0.433421 0.572603 0.221690
H71   H     H_    0.541562 0.498579 0.576619 0.237531
C194  C     C_3   0.610908 0.472486 0.542737 -0.923041
H72   H     H_    0.630583 0.507834 0.546911 0.266294
H73   H     H_    0.594170 0.470244 0.505924 0.265474
H74   H     H_    0.639460 0.442916 0.546777 0.272801
O127  O     O_3   0.448534 0.420301 0.204942 -0.617172
C195  C     C_3   0.409870 0.385407 0.214259 0.140249
H75   H     H_    0.383240 0.385812 0.182886 0.149320
H76   H     H_    0.385477 0.393423 0.245869 0.161977
C196  C     C_3   0.432977 0.334677 0.218082 -0.386365
H77   H     H_    0.452866 0.325645 0.183736 0.216741
H78   H     H_    0.461443 0.333313 0.247918 0.243693
C197  C     C_3   0.391452 0.296950 0.227606 -0.911203
H79   H     H_    0.371765 0.304551 0.262388 0.275604
H80   H     H_    0.409215 0.260535 0.229700 0.269838
H81   H     H_    0.362708 0.297023 0.197922 0.259037
O128  O     O_3   0.456431 0.442268 0.682018 -0.558051
C198  C     C_3   0.449543 0.431146 0.632404 0.209526
H82   H     H_    0.465384 0.394373 0.626404 0.167804
H83   H     H_    0.470629 0.455207 0.607666 0.099551
C199  C     C_3   0.392464 0.430625 0.619316 -0.298387
H84   H     H_    0.371605 0.405816 0.644064 0.257705
H85   H     H_    0.376432 0.467500 0.623395 0.267061
C200  C     C_3   0.384057 0.414295 0.567272 -0.985238
H86   H     H_    0.403970 0.439100 0.541872 0.265596
H87   H     H_    0.342328 0.414683 0.558906 0.283965
H88   H     H_    0.398835 0.377008 0.562116 0.273421
O129  O     O_3   0.542941 0.942213 0.682502 -0.598002
C201  C     C_3   0.555488 0.895167 0.666227 0.209361
H89   H     H_    0.543269 0.892736 0.627850 0.170500
H90   H     H_    0.533899 0.866163 0.684866 0.101919
C202  C     C_3   0.613807 0.887054 0.667989 -0.376524
H91   H     H_    0.633001 0.913590 0.643840 0.223371
H92   H     H_    0.628778 0.892743 0.705075 0.252201
C203  C     C_3   0.627887 0.836038 0.651945 -0.964031
H93   H     H_    0.610095 0.808983 0.676432 0.266396
H94   H     H_    0.670256 0.831475 0.653213 0.270954
H95   H     H_    0.614551 0.829560 0.614376 0.269624
O130  O     O_3   0.534602 0.909417 0.270102 -0.597856
C204  C     C_3   0.580219 0.881537 0.268954 0.216849
H96   H     H_    0.614427 0.904545 0.274693 0.158376
H97   H     H_    0.583614 0.861123 0.234498 0.170707
C205  C     C_3   0.578220 0.844797 0.310127 -0.362616
H98   H     H_    0.573641 0.864072 0.345088 0.265859
H99   H     H_    0.544520 0.820681 0.305039 0.222526
C206  C     C_3   0.626973 0.814221 0.312024 -0.961987
H100  H     H_    0.632306 0.794434 0.277483 0.271888
H101  H     H_    0.623945 0.787507 0.341826 0.275331
H102  H     H_    0.660947 0.837519 0.318777 0.262519
O131  O     O_3   0.448379 0.923282 0.699507 -0.621100
C207  C     C_3   0.408935 0.888717 0.706996 0.131963
H103  H     H_    0.384037 0.889178 0.674395 0.149052
H104  H     H_    0.382906 0.897580 0.737165 0.153627
C208  C     C_3   0.430860 0.837550 0.712228 -0.385198
H105  H     H_    0.448975 0.826414 0.677629 0.210792
H106  H     H_    0.460656 0.836394 0.740840 0.248711
C209  C     C_3   0.388725 0.801552 0.725301 -0.933851
H107  H     H_    0.369449 0.812477 0.759389 0.278059
H108  H     H_    0.405873 0.765313 0.730848 0.269167
H109  H     H_    0.359815 0.799419 0.695846 0.261353
O132  O     O_3   0.442347 0.909642 0.240784 -0.617785
C210  C     C_3   0.452407 0.865918 0.215664 0.139939
H110  H     H_    0.473477 0.841213 0.240338 0.173434
H111  H     H_    0.476203 0.870273 0.182555 0.179740
C211  C     C_3   0.401281 0.842314 0.202211 -0.361759
H112  H     H_    0.377914 0.836975 0.235404 0.242183
H113  H     H_    0.379647 0.866454 0.177376 0.240874
C212  C     C_3   0.409364 0.793550 0.177723 -0.932453
H114  H     H_    0.431739 0.798107 0.143860 0.271202
H115  H     H_    0.371507 0.777441 0.168663 0.277525
H116  H     H_    0.430161 0.768500 0.202270 0.268950
O133  O     O_3   0.043028 0.463101 0.669694 -0.611338
C213  C     C_3   0.041900 0.421392 0.639881 0.170817
H117  H     H_    0.013517 0.427883 0.610585 0.188937
H118  H     H_    0.029801 0.387748 0.658694 0.153455
C214  C     C_3   0.094725 0.414201 0.616760 -0.380494
H119  H     H_    0.105289 0.447154 0.596045 0.251995
H120  H     H_    0.124153 0.408558 0.645281 0.202167
C215  C     C_3   0.094962 0.370840 0.582768 -0.956073
H121  H     H_    0.085526 0.337297 0.602948 0.267214
H122  H     H_    0.133698 0.366752 0.566483 0.274145
H123  H     H_    0.066527 0.376099 0.553284 0.265705
O134  O     O_3   0.050547 0.443973 0.320873 -0.605604
C216  C     C_3   0.095760 0.415586 0.324946 0.174481
H124  H     H_    0.119726 0.431897 0.353868 0.150590
H125  H     H_    0.120302 0.415474 0.292334 0.123236
C217  C     C_3   0.082364 0.363910 0.340074 -0.385985
H126  H     H_    0.062143 0.364657 0.375429 0.213675
H127  H     H_    0.056383 0.347248 0.312974 0.251374
C218  C     C_3   0.130575 0.332852 0.344681 -0.927169
H128  H     H_    0.150600 0.330492 0.309332 0.267174
H129  H     H_    0.119757 0.295827 0.356276 0.271235
H130  H     H_    0.157101 0.348448 0.371975 0.260105
O135  O     O_3   0.946677 0.444083 0.680682 -0.634033
C219  C     C_3   0.903712 0.412590 0.678726 0.134051
H131  H     H_    0.877501 0.426684 0.650329 0.153333
H132  H     H_    0.880401 0.411715 0.712119 0.128288
C220  C     C_3   0.920323 0.361575 0.664092 -0.372335
H133  H     H_    0.939106 0.362936 0.628064 0.209833
H134  H     H_    0.948428 0.347029 0.690559 0.261702
C221  C     C_3   0.874355 0.327464 0.661615 -0.949222
H135  H     H_    0.856363 0.323852 0.697824 0.267631
H136  H     H_    0.887290 0.291232 0.649484 0.272774
H137  H     H_    0.845383 0.341244 0.635536 0.263452
O136  O     O_3   0.954764 0.460489 0.328242 -0.576460
C222  C     C_3   0.948745 0.418098 0.356383 0.231588
H138  H     H_    0.962264 0.426711 0.393463 0.165975
H139  H     H_    0.972951 0.387399 0.344415 0.107666
C223  C     C_3   0.891816 0.404263 0.359467 -0.379692
H140  H     H_    0.869672 0.435081 0.374620 0.230772
H141  H     H_    0.876336 0.396346 0.322951 0.244399
C224  C     C_3   0.883959 0.360036 0.391511 -0.968542
H142  H     H_    0.905050 0.328540 0.376520 0.268125
H143  H     H_    0.842423 0.351051 0.393123 0.275773
H144  H     H_    0.897821 0.367408 0.428749 0.267773
O137  O     O_3   0.054673 0.982847 0.342565 -0.612655
C225  C     C_3   0.049889 0.932206 0.346089 0.291326
H145  H     H_    0.084538 0.915047 0.330388 0.202918
H146  H     H_    0.015282 0.917808 0.328697 0.236728
C226  C     C_3   0.048379 0.917900 0.399404 -0.417763
H147  H     H_    0.082827 0.932492 0.418141 0.238169
H148  H     H_    0.013666 0.933444 0.416560 0.238116
C227  C     C_3   0.047115 0.863119 0.405547 -0.928906
H149  H     H_    0.012505 0.847840 0.387719 0.277977
H150  H     H_    0.045768 0.853998 0.444602 0.274112
H151  H     H_    0.082086 0.846560 0.389593 0.271243
O138  O     O_3   0.049472 0.088755 0.770398 -0.593106
C228  C     C_3   0.062716 0.116393 0.811461 0.155444
H152  H     H_    0.091644 0.097114 0.834042 0.155320
H153  H     H_    0.027913 0.124090 0.833496 0.159316
C229  C     C_3   0.086487 0.163944 0.794542 -0.345634
H154  H     H_    0.121173 0.156161 0.772452 0.239401
H155  H     H_    0.058602 0.183786 0.771500 0.224962
C230  C     C_3   0.101765 0.195751 0.837166 -0.932311
H156  H     H_    0.067490 0.204736 0.859308 0.265027
H157  H     H_    0.118961 0.229849 0.823562 0.276386
H158  H     H_    0.130569 0.176955 0.860091 0.269349
O139  O     O_3   0.949601 0.976479 0.338278 -0.600428
C231  C     C_3   0.914058 0.999314 0.369823 0.191000
H159  H     H_    0.888234 0.970955 0.384511 0.173028
H160  H     H_    0.888807 0.025598 0.350621 0.111199
C232  C     C_3   0.941382 0.023859 0.412312 -0.388596
H161  H     H_    0.959962 0.996112 0.435365 0.221316
H162  H     H_    0.971558 0.048824 0.398861 0.235013
C233  C     C_3   0.903389 0.052391 0.443111 -0.977969
H163  H     H_    0.885930 0.082004 0.421531 0.266005
H164  H     H_    0.923736 0.068442 0.474499 0.272004
H165  H     H_    0.872444 0.028327 0.456691 0.272095
O140  O     O_3   0.946452 0.088372 0.785434 -0.606694
C234  C     C_3   0.941265 0.114381 0.742115 0.237756
H166  H     H_    0.906277 0.101919 0.722945 0.177572
H167  H     H_    0.975852 0.111860 0.719198 0.241658
C235  C     C_3   0.932753 0.167563 0.754582 -0.384972
H168  H     H_    0.897274 0.171214 0.776652 0.242673
H169  H     H_    0.965593 0.181067 0.776335 0.233675
C236  C     C_3   0.927376 0.198501 0.709209 -0.967110
H170  H     H_    0.962753 0.196085 0.686907 0.273049
H171  H     H_    0.921388 0.236793 0.719713 0.282590
H172  H     H_    0.893880 0.186399 0.687483 0.266318
O141  O     O_3   0.545488 0.482178 0.336425 -0.493054
C237  C     C_3   0.553235 0.505683 0.381443 0.207018
H173  H     H_    0.541212 0.480648 0.410708 0.151531
H174  H     H_    0.529234 0.538651 0.385614 0.118057
C238  C     C_3   0.610008 0.518245 0.388588 -0.374866
H175  H     H_    0.631228 0.484928 0.398685 0.249666
H176  H     H_    0.626512 0.532686 0.354517 0.218409
C239  C     C_3   0.617097 0.556187 0.428036 -0.995984
H177  H     H_    0.599385 0.590908 0.416693 0.267327
H178  H     H_    0.658660 0.562339 0.434456 0.277252
H179  H     H_    0.599000 0.544181 0.462251 0.271912
O142  O     O_3   0.549425 0.591329 0.745336 -0.604004
C240  C     C_3   0.564009 0.628504 0.777489 0.148024
H180  H     H_    0.593440 0.615359 0.803616 0.158061
H181  H     H_    0.529844 0.642049 0.797507 0.163197
C241  C     C_3   0.587635 0.669777 0.748281 -0.356895
H182  H     H_    0.621891 0.656176 0.728522 0.226508
H183  H     H_    0.559381 0.683068 0.721264 0.224856
C242  C     C_3   0.603834 0.711620 0.780726 -0.939484
H184  H     H_    0.570037 0.726348 0.800293 0.266870
H185  H     H_    0.620788 0.740840 0.758319 0.269768
H186  H     H_    0.633091 0.699358 0.807281 0.275020
O143  O     O_3   0.448248 0.500647 0.340173 -0.570460
C243  C     C_3   0.407487 0.528773 0.359495 0.159695
H187  H     H_    0.378775 0.503331 0.374725 0.185614
H188  H     H_    0.386927 0.550808 0.331866 0.090395
C244  C     C_3   0.426673 0.561382 0.400263 -0.423389
H189  H     H_    0.446762 0.539136 0.427879 0.227925
H190  H     H_    0.454046 0.588376 0.385463 0.210767
C245  C     C_3   0.382218 0.588023 0.424389 -0.929305
H191  H     H_    0.361685 0.610883 0.397607 0.260516
H192  H     H_    0.397300 0.611592 0.453569 0.271079
H193  H     H_    0.354790 0.561839 0.440499 0.264255
O144  O     O_3   0.445947 0.594723 0.760844 -0.611051
C246  C     C_3   0.441071 0.608501 0.712225 0.240859
H194  H     H_    0.405819 0.591813 0.697092 0.167080
H195  H     H_    0.475626 0.599586 0.690898 0.248035
C247  C     C_3   0.433447 0.663148 0.709721 -0.407745
H196  H     H_    0.397432 0.673039 0.728915 0.233913
H197  H     H_    0.465999 0.681630 0.727905 0.234039
C248  C     C_3   0.430127 0.680454 0.657407 -0.967222
H198  H     H_    0.466118 0.671546 0.637775 0.274108
H199  H     H_    0.424679 0.720196 0.656458 0.275762
H200  H     H_    0.397102 0.663115 0.638835 0.270295
O145  O     O_3   0.543929 0.972331 0.833384 -0.500208
C249  C     C_3   0.546876 0.987634 0.882202 0.211769
H201  H     H_    0.520494 0.964508 0.903674 0.181019
H202  H     H_    0.535045 0.025790 0.888355 0.088231
C250  C     C_3   0.601472 0.980856 0.901047 -0.343777
H203  H     H_    0.614259 0.943157 0.894213 0.261881
H204  H     H_    0.627519 0.005950 0.881554 0.218178
C251  C     C_3   0.604356 0.991163 0.955163 -0.981204
H205  H     H_    0.594015 0.029387 0.962548 0.262409
H206  H     H_    0.643941 0.984550 0.968322 0.283216
H207  H     H_    0.577857 0.967013 0.975313 0.271844
O146  O     O_3   0.543428 0.034153 0.170678 -0.630198
C252  C     C_3   0.583566 0.064960 0.155054 0.122648
H208  H     H_    0.602898 0.047134 0.124043 0.159092
H209  H     H_    0.613784 0.070415 0.183045 0.107456
C253  C     C_3   0.561776 0.113428 0.137898 -0.347615
H210  H     H_    0.534444 0.107057 0.107717 0.225874
H211  H     H_    0.540614 0.131230 0.167850 0.235846
C254  C     C_3   0.604429 0.147036 0.120628 -0.961939
H212  H     H_    0.631709 0.154611 0.150564 0.264616
H213  H     H_    0.587480 0.181727 0.108264 0.271860
H214  H     H_    0.625594 0.130416 0.090009 0.266097
O147  O     O_3   0.447098 0.994790 0.839854 -0.577369
C255  C     C_3   0.408810 0.023761 0.862141 0.159560
H215  H     H_    0.379805 0.998985 0.877969 0.184594
H216  H     H_    0.387831 0.047296 0.836059 0.095962
C256  C     C_3   0.431645 0.054231 0.902959 -0.422592
H217  H     H_    0.450766 0.030183 0.929642 0.223481
H218  H     H_    0.460619 0.079605 0.888005 0.214006
C257  C     C_3   0.390074 0.083300 0.928733 -0.938657
H219  H     H_    0.370218 0.107664 0.902845 0.263192
H220  H     H_    0.407897 0.105622 0.957517 0.271901
H221  H     H_    0.361485 0.058695 0.945543 0.267230
O148  O     O_3   0.444868 0.071972 0.191032 -0.630879
C258  C     C_3   0.431090 0.047757 0.148224 0.208613
H222  H     H_    0.400870 0.020791 0.155535 0.161328
H223  H     H_    0.464620 0.031384 0.129971 0.238343
C259  C     C_3   0.407720 0.084535 0.113353 -0.413586
H224  H     H_    0.373715 0.101720 0.130551 0.231373
H225  H     H_    0.436328 0.113220 0.105297 0.231461
C260  C     C_3   0.391012 0.060742 0.066145 -0.962498
H226  H     H_    0.424787 0.045369 0.047036 0.271403
H227  H     H_    0.372609 0.088115 0.042462 0.274954
H228  H     H_    0.362800 0.031535 0.073356 0.270291
O149  O     O_3   0.042728 0.449845 0.822666 -0.496505
C261  C     C_3   0.049103 0.450774 0.873547 0.199141
H229  H     H_    0.029002 0.418758 0.888658 0.174740
H230  H     H_    0.032337 0.483167 0.891130 0.097182
C262  C     C_3   0.105940 0.448001 0.886591 -0.326840
H231  H     H_    0.124164 0.417244 0.867295 0.266962
H232  H     H_    0.124699 0.482152 0.875209 0.228636
C263  C     C_3   0.113412 0.441524 0.940902 -0.992387
H233  H     H_    0.095984 0.472286 0.960719 0.266007
H234  H     H_    0.155053 0.440081 0.949374 0.286040
H235  H     H_    0.095377 0.407315 0.953228 0.270205
O150  O     O_3   0.050481 0.470178 0.163549 -0.598841
C264  C     C_3   0.084410 0.490994 0.129148 0.192735
H236  H     H_    0.110184 0.461911 0.115852 0.171978
H237  H     H_    0.109881 0.518938 0.145458 0.114839
C265  C     C_3   0.055172 0.511965 0.085810 -0.386385
H238  H     H_    0.035516 0.482481 0.066021 0.223131
H239  H     H_    0.025666 0.538154 0.098219 0.234096
C266  C     C_3   0.091746 0.537547 0.051133 -0.979082
H240  H     H_    0.110039 0.568921 0.069270 0.266945
H241  H     H_    0.070042 0.550765 0.019197 0.271141
H242  H     H_    0.122156 0.512307 0.038657 0.270587
O151  O     O_3   0.947423 0.472577 0.837508 -0.578094
C267  C     C_3   0.911258 0.495880 0.868173 0.178576
H243  H     H_    0.881536 0.468781 0.877784 0.193122
H244  H     H_    0.890739 0.526277 0.850067 0.102439
C268  C     C_3   0.936339 0.513468 0.914994 -0.446438
H245  H     H_    0.954627 0.482435 0.933817 0.225826
H246  H     H_    0.966171 0.540886 0.906551 0.213911
C269  C     C_3   0.896736 0.536010 0.948804 -0.919594
H247  H     H_    0.877690 0.567259 0.931057 0.260479
H248  H     H_    0.916095 0.548827 0.982174 0.271420
H249  H     H_    0.867250 0.508881 0.959017 0.267263
O152  O     O_3   0.945840 0.475366 0.158848 -0.609025
C270  C     C_3   0.950434 0.424600 0.160134 0.290114
H250  H     H_    0.915758 0.409135 0.177442 0.204256
H251  H     H_    0.985124 0.411815 0.178657 0.235576
C271  C     C_3   0.951765 0.405291 0.108442 -0.417258
H252  H     H_    0.917727 0.418761 0.088216 0.239650
H253  H     H_    0.986917 0.418345 0.090052 0.236796
C272  C     C_3   0.951771 0.350160 0.107616 -0.931635
H254  H     H_    0.985896 0.335910 0.127099 0.277791
H255  H     H_    0.953143 0.337340 0.069633 0.273203
H256  H     H_    0.916318 0.335936 0.124826 0.271255
O153  O     O_3   0.046826 0.088758 0.239473 -0.765913
H257  H     H_    0.022649 0.100053 0.264614 0.317430
O154  O     O_3   0.055784 0.932671 0.806079 -0.770655
H258  H     H_    0.068062 0.959756 0.826196 0.296051
O155  O     O_3   0.947236 0.086799 0.223559 -0.762940
H259  H     H_    0.931119 0.088236 0.255805 0.303767
O156  O     O_3   0.955538 0.945623 0.819796 -0.789467
H260  H     H_    0.981165 0.960014 0.841885 0.325403
O157  O     O_3   0.544638 0.583373 0.220738 -0.747625
H261  H     H_    0.522865 0.596234 0.246983 0.297905
O158  O     O_3   0.555549 0.450001 0.820757 -0.769384
H262  H     H_    0.564956 0.481682 0.834478 0.303406
O159  O     O_3   0.447190 0.575777 0.200281 -0.737613
H263  H     H_    0.437622 0.588865 0.232207 0.308159
O160  O     O_3   0.454849 0.464889 0.830076 -0.775152
H264  H     H_    0.479882 0.484759 0.848104 0.323179
O161  O     O_3   0.544382 0.085319 0.728094 -0.744192
H265  H     H_    0.523172 0.095332 0.755920 0.300152
O162  O     O_3   0.545018 0.048872 0.324929 -0.728781
H266  H     H_    0.523715 0.075047 0.311578 0.293337
O163  O     O_3   0.447109 0.079313 0.706284 -0.731649
H267  H     H_    0.436597 0.089580 0.738973 0.310055
O164  O     O_3   0.446270 0.027851 0.338441 -0.725511
H268  H     H_    0.440773 0.059742 0.323477 0.326479
O165  O     O_3   0.045797 0.588517 0.753687 -0.753400
H269  H     H_    0.024949 0.590888 0.783421 0.311271
O166  O     O_3   0.052411 0.589189 0.268035 -0.770366
H270  H     H_    0.072104 0.586799 0.237634 0.305713
O167  O     O_3   0.947871 0.590037 0.734908 -0.752157
H271  H     H_    0.927246 0.586702 0.764708 0.308723
O168  O     O_3   0.952750 0.589503 0.252872 -0.769459
H272  H     H_    0.976781 0.598810 0.226795 0.321616
O169  O     O_3   0.051278 0.043329 0.171548 -0.643713
H273  H     H_    0.044915 0.075212 0.156160 0.363623
O170  O     O_3   0.043350 0.916876 0.726573 -0.626876
H274  H     H_    0.040154 0.883594 0.739695 0.394151
O171  O     O_3   0.956048 0.027726 0.167055 -0.649780
H275  H     H_    0.956932 0.057078 0.146410 0.371864
O172  O     O_3   0.949112 0.911036 0.745653 -0.657904
H276  H     H_    0.915359 0.902830 0.760197 0.369268
O173  O     O_3   0.552883 0.524621 0.164049 -0.655770
H277  H     H_    0.545712 0.552053 0.141885 0.366691
O174  O     O_3   0.543847 0.414160 0.748072 -0.631546
H278  H     H_    0.540224 0.385351 0.769232 0.392927
O175  O     O_3   0.457987 0.503332 0.162577 -0.655642
H279  H     H_    0.459144 0.525776 0.134585 0.374145
O176  O     O_3   0.449138 0.413301 0.766811 -0.660975
H280  H     H_    0.413604 0.410837 0.779600 0.358829
O177  O     O_3   0.552782 0.031757 0.666470 -0.650091
H281  H     H_    0.545540 0.061001 0.646780 0.370071
O178  O     O_3   0.554235 0.968744 0.336232 -0.690621
H282  H     H_    0.542994 0.975426 0.369869 0.387472
O179  O     O_3   0.458199 0.009887 0.663202 -0.653916
H283  H     H_    0.459171 0.034405 0.637002 0.377331
O180  O     O_3   0.459657 0.948627 0.324484 -0.652712
H284  H     H_    0.421928 0.945877 0.329038 0.358382
O181  O     O_3   0.051377 0.554329 0.679236 -0.641700
H285  H     H_    0.044940 0.588182 0.668935 0.367118
O182  O     O_3   0.044267 0.535396 0.329891 -0.647670
H286  H     H_    0.043476 0.566522 0.347703 0.372909
O183  O     O_3   0.956537 0.537388 0.671760 -0.650608
H287  H     H_    0.957025 0.568943 0.654673 0.375072
O184  O     O_3   0.948972 0.549893 0.324435 -0.639405
H288  H     H_    0.955181 0.582987 0.337004 0.364979

loop_
_geom_bond_atom_site_label_1
_geom_bond_atom_site_label_2
_ccdc_geom_bond_type
C220  C221  S    
C271  H253  S    
C242  H184  S    
O67   Zn2   S    
O149  C261  S    
C24   H8    S    
C169  C171  S    
C238  H175  S    
O164  H268  S    
C2    O10   A    
C239  H179  S    
O79   Zn7   S    
O127  C195  S    
C184  C185  S    
C42   C58   S    
C262  H231  S    
C161  O121  S    
C114  O42   A    
O107  H19   S    
C28   O148  S    
O6    Zn6   S    
C102  O30   A    
O119  H31   S    
O89   Zn17  S    
C46   C62   S    
C23   O143  S    
C122  C130  S    
C193  H70   S    
C258  H223  S    
C119  O54   A    
O148  C258  S    
O2    Zn18  S    
C251  H205  S    
C256  C257  S    
C271  C272  S    
O74   Zn2   S    
C247  H196  S    
O174  H278  S    
O153  H257  S    
O122  C180  S    
C223  H140  S    
C176  O120  S    
C13   O21   A    
O11   Zn10  S    
O18   Zn3   S    
C110  O38   A    
C261  C262  S    
C103  O31   A    
O44   Zn20  S    
C229  C230  S    
C194  H72   S    
O3    Zn19  S    
C205  H98   S    
C259  C260  S    
C46   O166  S    
C79   C102  S    
C237  H173  S    
O1    Zn12  S    
C38   O158  S    
C147  C155  T    
O2    Zn11  S    
C65   C108  S    
C251  H207  S    
C123  C131  S    
C254  H214  S    
C36   O172  S    
O36   Zn28  S    
C72   C88   T    
C117  O45   A    
C119  C153  S    
C197  H79   S    
C261  H230  S    
C41   C43   S    
C9    C52   S    
C42   C44   S    
C255  C256  S    
C59   C171  S    
C34   O170  S    
C115  O43   A    
C179  H37   S    
C161  C163  S    
C267  H244  S    
O109  H21   S    
C266  H242  S    
C162  C164  S    
C45   C47   S    
O58   Zn11  S    
C46   C48   S    
O78   Zn6   S    
C37   O173  S    
C39   O159  S    
C270  H250  S    
C15   C54   S    
O178  H282  S    
C241  H182  S    
O42   Zn18  S    
C15   O23   A    
O20   Zn1   S    
C180  C181  S    
C263  H234  S    
O63   Zn14  S    
C2    C59   S    
C185  H52   S    
C108  O36   A    
O3    Zn3   S    
C123  O66   A    
O159  H263  S    
C75   C98   S    
C5    C64   S    
C175  O135  S    
C111  O87   A    
C6    C63   S    
C202  C203  S    
C7    C62   S    
C12   C49   S    
C235  H168  S    
C209  H108  S    
C66   C82   T    
C214  C215  S    
O158  H262  S    
C146  C154  T    
C162  O106  S    
C236  H172  S    
C237  C238  S    
O100  Zn28  S    
C234  H167  S    
C32   O152  S    
C27   H11   S    
C47   C63   S    
C260  H228  S    
O90   Zn18  S    
C74   C99   S    
C25   H9    S    
O55   Zn31  S    
C97   O73   A    
C231  H159  S    
C206  H101  S    
C124  O65   A    
C170  O114  S    
C245  H192  S    
C224  H143  S    
C35   C51   S    
C252  H208  S    
C238  C239  S    
C257  H220  S    
C248  H200  S    
C132  C140  T    
C269  H248  S    
O123  C183  S    
C130  C138  T    
C19   H3    S    
C208  H105  S    
O21   Zn8   S    
O53   Zn29  S    
O134  C216  S    
O82   Zn10  S    
O22   Zn7   S    
C17   H1    S    
O23   Zn6   S    
C11   C50   S    
C22   H6    S    
O50   Zn26  S    
O73   Zn1   S    
C193  C194  S    
C241  H183  S    
C219  H131  S    
C183  H48   S    
O5    Zn32  S    
C41   O161  S    
C256  H217  S    
C23   C55   S    
C47   O167  S    
C24   C56   S    
C245  H193  S    
C48   O184  S    
C125  C133  S    
O15   Zn14  S    
O1    Zn28  S    
C171  O131  S    
O126  C192  S    
C74   C90   T    
C269  H249  S    
C28   H12   S    
O137  C225  S    
C270  C271  S    
C22   O142  S    
O84   Zn12  S    
O125  C189  S    
C227  H149  S    
C1    O89   A    
C78   C94   T    
C205  C206  S    
C240  H180  S    
C125  O72   A    
C161  O105  S    
C251  H206  S    
C126  O71   A    
O37   Zn29  S    
C200  H86   S    
C163  O123  S    
O124  C186  S    
C167  O111  S    
C121  O68   A    
C73   C89   T    
O108  H20   S    
C8    O96   A    
C122  O67   A    
C210  C211  S    
C129  C137  T    
C126  C134  S    
C182  H44   S    
C242  H186  S    
C165  O125  S    
O120  H32   S    
C266  H241  S    
C232  H162  S    
C190  H63   S    
C248  H198  S    
C179  H39   S    
C151  C159  T    
C265  H239  S    
C222  C223  S    
C201  H90   S    
C67   C83   T    
O115  H27   S    
O101  Zn29  S    
C50   C162  S    
C95   C96   S    
C111  O39   A    
C244  H189  S    
C241  C242  S    
C66   C107  S    
C29   H13   S    
C6    O94   A    
C253  H210  S    
O80   Zn8   S    
C188  H58   S    
C244  C245  S    
O97   Zn25  S    
C196  H78   S    
C85   C86   S    
C47   O183  S    
C23   H7    S    
C14   O22   A    
O60   Zn9   S    
O6    Zn31  S    
O5    Zn5   S    
C127  O63   A    
C191  H65   S    
C43   O163  S    
C239  H178  S    
C168  O128  S    
C268  H246  S    
O183  H287  S    
C136  C144  T    
C254  H212  S    
C201  C202  S    
O68   Zn1   S    
O33   Zn25  S    
C215  H121  S    
C40   O160  S    
C211  C212  S    
C272  H255  S    
O181  H285  S    
C33   O153  S    
O27   Zn19  S    
O8    Zn29  S    
O72   Zn5   S    
C48   O168  S    
C10   O18   A    
C231  C232  S    
C21   O141  S    
C83   C84   S    
C215  H122  S    
C203  H93   S    
C107  O35   A    
C117  C155  S    
C252  C253  S    
C169  O113  S    
C174  O118  S    
O75   Zn3   S    
O4    Zn25  S    
C105  O33   A    
C64   C176  S    
C49   C161  S    
C36   C52   S    
C75   C91   T    
C13   C56   S    
C37   C53   S    
C135  C143  T    
C14   C55   S    
C218  H130  S    
C165  C167  S    
C39   O175  S    
O171  H275  S    
C166  C168  S    
C264  H237  S    
O141  C237  S    
C25   C57   S    
C219  C220  S    
C192  H69   S    
C35   O155  S    
O157  H261  S    
C174  C176  S    
C173  C175  S    
C178  H36   S    
C213  H118  S    
C216  H125  S    
C174  O134  S    
O52   Zn28  S    
C227  H151  S    
C31   C63   S    
C207  H103  S    
C32   C64   S    
C255  H216  S    
O12   Zn9   S    
C178  C179  S    
C17   C49   S    
C91   C92   S    
C182  H46   S    
C100  O76   A    
C236  H171  S    
C101  O77   A    
O46   Zn22  S    
C240  H181  S    
O151  C267  S    
C214  H120  S    
C103  O79   A    
C200  H88   S    
C125  O61   A    
C112  O88   A    
C116  C158  S    
C226  H147  S    
C25   O145  S    
C122  O58   A    
C265  C266  S    
O65   Zn4   S    
C196  H77   S    
O66   Zn3   S    
C29   C31   S    
C165  O109  S    
C120  C154  S    
O2    Zn27  S    
C176  O136  S    
C126  O62   A    
C44   O164  S    
C113  C159  S    
C190  C191  S    
C212  H115  S    
C114  C160  S    
O144  C246  S    
C246  H195  S    
C198  C199  S    
C203  H94   S    
C202  H92   S    
C42   O178  S    
C245  H191  S    
C211  H112  S    
O38   Zn30  S    
C259  H225  S    
C260  H227  S    
C68   C105  S    
O135  C219  S    
C253  C254  S    
C188  H60   S    
C69   C85   T    
C195  H75   S    
O34   Zn26  S    
O7    Zn30  S    
O14   Zn15  S    
C204  C205  S    
C46   O182  S    
C220  H134  S    
O131  C207  S    
C233  H163  S    
C124  C132  S    
C234  C235  S    
C235  C236  S    
C257  H219  S    
O9    Zn12  S    
O25   Zn17  S    
C163  O107  S    
C191  H67   S    
O10   Zn11  S    
O142  C240  S    
C254  H213  S    
C140  C148  S    
C109  O85   A    
O176  H280  S    
C181  C182  S    
C45   O181  S    
C12   O100  A    
C13   O101  A    
C127  O70   A    
O31   Zn23  S    
C105  O81   A    
O32   Zn24  S    
C193  H71   S    
C89   C90   S    
C30   O150  S    
C228  H152  S    
C124  O60   A    
O91   Zn19  S    
C250  H203  S    
O77   Zn5   S    
C256  H218  S    
C119  O47   A    
C247  H197  S    
C98   O74   A    
C203  H95   S    
C143  C151  S    
C4    O92   A    
O56   Zn32  S    
C187  H57   S    
C30   H14   S    
C209  H107  S    
C230  H158  S    
C6    O14   A    
O163  H267  S    
C131  C139  T    
C221  H135  S    
O83   Zn11  S    
C18   H2    S    
C205  H99   S    
O129  C201  S    
O40   Zn32  S    
O5    Zn21  S    
O168  H272  S    
O103  Zn31  S    
C237  H174  S    
O7    Zn23  S    
C199  H84   S    
O175  H279  S    
C18   O138  S    
C104  O32   A    
C218  H128  S    
O1    Zn1   S    
C217  H126  S    
C247  C248  S    
C73   C100  S    
C87   C88   S    
O110  H22   S    
O30   Zn22  S    
C223  C224  S    
C3    O11   A    
O172  H276  S    
C35   O171  S    
C207  C208  S    
C55   C167  S    
O154  H258  S    
C1    O9    A    
O13   Zn16  S    
C179  H38   S    
C249  H201  S    
O184  H288  S    
C2    O90   A    
O39   Zn31  S    
C265  H238  S    
C113  O41   A    
C38   O174  S    
C225  H145  S    
C93   C94   S    
C16   O104  A    
C137  C145  S    
C263  H233  S    
C5    O93   A    
C127  C135  S    
O8    Zn13  S    
C226  C227  S    
C128  C136  S    
C30   C62   S    
O117  H29   S    
C186  C187  S    
C19   O139  S    
C48   C64   S    
C14   O102  A    
C10   C51   S    
C33   C49   S    
C69   C112  S    
C71   C110  S    
C31   H15   S    
O4    Zn9   S    
C32   H16   S    
C264  H236  S    
C16   O24   A    
O51   Zn27  S    
O128  C198  S    
C235  H169  S    
C72   C109  S    
C109  O37   A    
C39   C55   S    
C170  C172  S    
C40   C56   S    
C167  O127  S    
O170  H274  S    
C51   C163  S    
O57   Zn12  S    
C259  H224  S    
C195  C196  S    
C118  O46   A    
C11   O99   A    
C271  H252  S    
C234  H166  S    
C29   C61   S    
C224  H142  S    
O61   Zn16  S    
C249  H202  S    
C238  H176  S    
C257  H221  S    
O98   Zn26  S    
O62   Zn15  S    
C225  H146  S    
C54   C166  S    
C262  H232  S    
C7    O15   A    
C81   C82   S    
O28   Zn20  S    
C186  H55   S    
O69   Zn8   S    
O93   Zn21  S    
O70   Zn7   S    
O5    Zn16  S    
O156  H260  S    
C68   C84   T    
O71   Zn6   S    
O95   Zn23  S    
O6    Zn15  S    
C258  C259  S    
O85   Zn13  S    
C10   O98   A    
C250  C251  S    
O162  H266  S    
C172  O116  S    
C118  O55   A    
C164  O124  S    
C184  H50   S    
O140  C234  S    
C204  H96   S    
C232  H161  S    
C27   O147  S    
C36   O156  S    
C227  H150  S    
C21   H5    S    
C198  H82   S    
C104  O80   A    
O47   Zn23  S    
C194  H74   S    
C170  O130  S    
O102  Zn30  S    
C134  C142  T    
C115  O50   A    
C65   C81   T    
C266  H240  S    
C38   C54   S    
C34   O154  S    
C113  O52   A    
C15   O103  A    
C116  O44   A    
O177  H281  S    
C166  O126  S    
O87   Zn15  S    
C26   C58   S    
O96   Zn24  S    
C120  O48   A    
C217  C218  S    
C71   C87   T    
C217  H127  S    
C219  H132  S    
O150  C264  S    
C210  H111  S    
C99   O27   A    
C22   C54   S    
C21   C23   S    
C261  H229  S    
C22   C24   S    
C17   O137  S    
C1    C60   S    
C20   O140  S    
O54   Zn30  S    
O19   Zn2   S    
O43   Zn19  S    
O114  H26   S    
C40   O176  S    
C33   O169  S    
C267  H243  S    
C18   C50   S    
O145  C249  S    
C101  O29   A    
C222  H139  S    
C116  O49   A    
C150  C158  T    
C58   C170  S    
O49   Zn25  S    
C263  H235  S    
C121  C129  S    
C108  O84   A    
O3    Zn10  S    
C253  H211  S    
C178  H35   S    
C186  H54   S    
C244  H190  S    
C67   C106  S    
C185  H51   S    
O29   Zn21  S    
O88   Zn16  S    
C204  H97   S    
C133  C141  T    
C112  O40   A    
C142  C150  S    
C191  H66   S    
C76   C97   S    
C41   C57   S    
C37   C39   S    
O106  H18   S    
C208  C209  S    
C38   C40   S    
O179  H283  S    
C177  H34   S    
C44   C60   S    
C21   C53   S    
C45   C61   S    
C243  H187  S    
C34   C36   S    
O7    Zn7   S    
O8    Zn8   S    
O1    Zn17  S    
C4    O12   A    
C70   C111  S    
C3    C58   S    
C206  H102  S    
O130  C204  S    
O4    Zn20  S    
O76   Zn4   S    
O132  C210  S    
C177  H33   S    
C224  H144  S    
C41   O177  S    
C246  H194  S    
C252  H209  S    
C189  H61   S    
C77   C104  S    
C169  O129  S    
C148  C156  T    
C269  H247  S    
C149  C157  T    
C144  C152  S    
C110  O86   A    
C177  C178  S    
C9    O97   A    
O112  H24   S    
C152  C160  T    
O152  C270  S    
C218  H129  S    
C272  H256  S    
C26   H10   S    
O105  H17   S    
C258  H222  S    
C106  O82   A    
C230  H156  S    
C183  H47   S    
C117  O56   A    
C185  H53   S    
C270  H251  S    
C192  H68   S    
C141  C149  S    
C220  H133  S    
C20   H4    S    
O160  H264  S    
C173  O117  S    
O155  H259  S    
C79   C95   T    
C213  C214  S    
C99   O75   A    
C216  H124  S    
O167  H271  S    
O45   Zn21  S    
C115  C157  S    
C210  H110  S    
C97   O25   A    
O138  C228  S    
C171  O115  S    
C207  H104  S    
O173  H277  S    
C228  C229  S    
C248  H199  S    
C242  H185  S    
C182  H45   S    
O48   Zn24  S    
C222  H138  S    
C62   C174  S    
O6    Zn22  S    
C18   C20   S    
C8    O16   A    
C214  H119  S    
O17   Zn4   S    
O41   Zn17  S    
C200  H87   S    
C16   C53   S    
C233  H165  S    
C33   C35   S    
O2    Zn2   S    
O104  Zn32  S    
O64   Zn13  S    
O118  H30   S    
C173  O133  S    
C9    O17   A    
C194  H73   S    
C189  C190  S    
C4    C57   S    
C106  O34   A    
C175  O119  S    
C166  O110  S    
C80   C96   T    
O3    Zn26  S    
C212  H114  S    
C24   O144  S    
C267  C268  S    
C8    C61   S    
C11   O19   A    
C43   O179  S    
C3    O91   A    
C201  H89   S    
C187  C188  S    
C272  H254  S    
C26   O146  S    
C197  H81   S    
C102  O78   A    
C168  O112  S    
C243  H188  S    
C188  H59   S    
C223  H141  S    
C195  H76   S    
C196  C197  S    
C57   C169  S    
O92   Zn20  S    
O166  H270  S    
C233  H164  S    
C240  C241  S    
C34   C50   S    
C162  O122  S    
C60   C172  S    
C206  H100  S    
C61   C173  S    
C239  H177  S    
C12   O20   A    
C250  H204  S    
C42   O162  S    
C268  C269  S    
O81   Zn9   S    
O143  C243  S    
C198  H83   S    
C209  H109  S    
O161  H265  S    
C128  O69   A    
O86   Zn14  S    
C243  C244  S    
O24   Zn5   S    
C31   O151  S    
C181  H43   S    
C211  H113  S    
C123  O59   A    
C121  O57   A    
O139  C231  S    
O99   Zn27  S    
C37   O157  S    
C262  C263  S    
C56   C168  S    
O165  H269  S    
C7    O95   A    
C45   O165  S    
O16   Zn13  S    
C228  H153  S    
C118  C156  S    
C230  H157  S    
C100  O28   A    
C28   C60   S    
C221  H136  S    
C76   C92   T    
C139  C147  S    
C229  H154  S    
C52   C164  S    
O94   Zn22  S    
C264  C265  S    
C107  O83   A    
C190  H64   S    
C120  O53   A    
C199  H85   S    
O180  H284  S    
C70   C86   T    
C183  C184  S    
O35   Zn27  S    
O182  H286  S    
C192  C193  S    
C181  H42   S    
C77   C93   T    
O147  C255  S    
O169  H273  S    
C53   C165  S    
C29   O149  S    
C268  H245  S    
C213  H117  S    
C216  C217  S    
C78   C103  S    
C187  H56   S    
C172  O132  S    
C255  H215  S    
C221  H137  S    
C197  H80   S    
C44   O180  S    
C63   C175  S    
C128  O64   A    
C43   C59   S    
C231  H160  S    
C25   C27   S    
O26   Zn18  S    
O121  C177  S    
C26   C28   S    
C208  H106  S    
C80   C101  S    
C138  C146  S    
C232  C233  S    
O133  C213  S    
C215  H123  S    
C199  C200  S    
C98   O26   A    
C260  H226  S    
C145  C153  T    
C20   C52   S    
C27   C59   S    
C180  H40   S    
C30   C32   S    
O4    Zn4   S    
O116  H28   S    
O59   Zn10  S    
C229  H155  S    
C17   C19   S    
C180  H41   S    
O8    Zn24  S    
C114  O51   A    
C246  C247  S    
C189  H62   S    
C202  H91   S    
C212  H116  S    
C249  C250  S    
C5    O13   A    
C19   C51   S    
C226  H148  S    
C225  C226  S    
C236  H170  S    
O111  H23   S    
O136  C222  S    
O7    Zn14  S    
O113  H25   S    
C164  O108  S    
C184  H49   S    
O146  C252  S    
