data_mof_unit_pretest_1523.cif
_audit_creation_date              2012-12-10T17:49:39-0500
_audit_creation_method            fapswitch 2.2
_symmetry_space_group_name_H-M    P1
_symmetry_Int_Tables_number       1
_space_group_crystal_system       triclinic
_cell_length_a                    27.781618
_cell_length_b                    36.264487
_cell_length_c                    27.78363
_cell_angle_alpha                 90.001772
_cell_angle_beta                  90.000196
_cell_angle_gamma                 90.001268
_cell_volume                      27991.6217012

loop_
_atom_site_label
_atom_site_type_symbol
_atom_type_description
_atom_site_fract_x
_atom_site_fract_y
_atom_site_fract_z
_atom_type_partial_charge
C1    C     C_R   0.499988 0.650389 0.249995 0.531976
C2    C     C_R   0.999997 0.650392 0.250001 0.532918
C3    C     C_1   0.499986 0.249987 0.431103 0.045329
C4    C     C_1   0.499987 0.250018 0.931103 0.038318
C5    C     C_1   0.499988 0.250015 0.068896 0.042295
C6    C     C_1   0.499982 0.749987 0.068896 0.041205
C7    C     C_1   0.499984 0.749989 0.931103 0.043380
C8    C     C_1   0.999984 0.750015 0.931104 0.041323
C9    C     C_1   0.999987 0.750016 0.068897 0.039325
C10   C     C_1   0.999985 0.249986 0.068896 0.042370
C11   C     C_1   0.999987 0.249986 0.931103 0.045872
C12   C     C_1   0.999987 0.250018 0.431103 0.038890
C13   C     C_R   0.999959 0.349606 0.249964 0.527193
C14   C     C_1   0.999988 0.250016 0.568897 0.043392
C15   C     C_1   0.999984 0.749986 0.568897 0.041537
C16   C     C_1   0.999985 0.749988 0.431104 0.043726
C17   C     C_1   0.499982 0.750021 0.474549 -0.002373
C18   C     C_1   0.499984 0.750022 0.525452 -0.003161
C19   C     C_1   0.499983 0.249979 0.525451 0.000452
C20   C     C_1   0.499984 0.249980 0.474549 0.001707
C21   C     C_1   0.499986 0.250025 0.974548 -0.003562
C22   C     C_1   0.499987 0.250024 0.025451 -0.001813
C23   C     C_1   0.499980 0.749981 0.025451 -0.000948
C24   C     C_R   0.999968 0.349610 0.750023 0.528883
C25   C     C_1   0.499981 0.749982 0.974549 0.000018
C26   C     C_1   0.999983 0.750023 0.974549 -0.001730
C27   C     C_1   0.999985 0.750023 0.025452 -0.002720
C28   C     C_1   0.999984 0.249979 0.025451 0.000699
C29   C     C_1   0.999985 0.249979 0.974549 0.002153
C30   C     C_1   0.999987 0.250026 0.474548 -0.002760
C31   C     C_1   0.999987 0.250024 0.525451 -0.000774
C32   C     C_1   0.999982 0.749980 0.525451 -0.000492
C33   C     C_1   0.999982 0.749981 0.474549 0.000425
C34   C     C_R   0.499988 0.749999 0.120637 0.513571
C35   C     C_R   0.999993 0.150389 0.249991 0.531954
C36   C     C_R   0.499988 0.750000 0.879363 0.514981
C37   C     C_R   0.499990 0.250002 0.879363 0.513472
C38   C     C_R   0.499989 0.250001 0.120637 0.514282
C39   C     C_R   0.499988 0.249999 0.620637 0.511965
C40   C     C_R   0.499989 0.249999 0.379363 0.515461
C41   C     C_R   0.499987 0.750000 0.379363 0.513685
C42   C     C_R   0.499990 0.750002 0.620637 0.513864
C43   C     C_R   0.999988 0.749999 0.620637 0.512728
C44   C     C_R   0.999988 0.750000 0.379363 0.515201
C45   C     C_R   0.999990 0.250002 0.379362 0.513660
C46   C     C_R   0.999964 0.150394 0.749968 0.524964
C47   C     C_R   0.999990 0.250001 0.620637 0.514990
C48   C     C_R   0.999988 0.249999 0.120637 0.512242
C49   C     C_R   0.999989 0.249999 0.879363 0.515616
C50   C     C_R   0.999988 0.750000 0.879363 0.513316
C51   C     C_R   0.999990 0.750002 0.120637 0.513858
C52   C     C_R   0.370633 0.750000 0.250000 0.520389
C53   C     C_R   0.370634 0.749999 0.749999 0.512885
C54   C     C_R   0.370633 0.249999 0.750001 0.517926
C55   C     C_R   0.370634 0.250000 0.250001 0.511976
C56   C     C_R   0.870633 0.750000 0.750000 0.518990
C57   C     C_R   0.999979 0.849608 0.749984 0.533121
C58   C     C_R   0.870634 0.749999 0.249999 0.512773
C59   C     C_R   0.870633 0.249999 0.250001 0.517724
C60   C     C_R   0.870633 0.250000 0.750001 0.511234
C61   C     C_R   0.629360 0.750000 0.249999 0.518584
C62   C     C_R   0.629360 0.750001 0.749999 0.518111
C63   C     C_R   0.629359 0.250001 0.750001 0.517101
C64   C     C_R   0.629360 0.250000 0.250000 0.516733
C65   C     C_R   0.129360 0.750000 0.749999 0.518220
C66   C     C_R   0.129360 0.750001 0.249999 0.518362
C67   C     C_R   0.129359 0.250001 0.250001 0.517472
C68   C     C_R   0.999971 0.849608 0.250023 0.528082
C69   C     C_R   0.129360 0.250000 0.750000 0.516976
C70   C     C_1   0.681100 0.749999 0.249998 0.046543
C71   C     C_1   0.681100 0.750002 0.749999 0.046682
C72   C     C_1   0.681100 0.250003 0.750001 0.044916
C73   C     C_1   0.681100 0.249999 0.250002 0.044309
C74   C     C_1   0.181100 0.749999 0.749997 0.046815
C75   C     C_1   0.181100 0.750003 0.249999 0.047598
C76   C     C_1   0.181100 0.250003 0.250001 0.045516
C77   C     C_1   0.181100 0.250000 0.750001 0.046217
C78   C     C_1   0.724546 0.749998 0.249997 0.002822
C79   C     C_3   0.500220 0.978057 0.306883 0.080391
C80   C     C_1   0.724546 0.750002 0.749999 0.005137
C81   C     C_1   0.724545 0.250004 0.750001 0.001844
C82   C     C_1   0.724545 0.249998 0.250003 0.002532
C83   C     C_1   0.224546 0.749998 0.749996 0.003141
C84   C     C_1   0.224546 0.750003 0.249999 0.006286
C85   C     C_1   0.224546 0.250004 0.250001 0.002742
C86   C     C_1   0.224545 0.249999 0.750002 0.004708
C87   C     C_1   0.775448 0.749997 0.249997 0.000533
C88   C     C_1   0.775448 0.750001 0.749999 0.007184
C89   C     C_1   0.775448 0.250003 0.750001 0.001058
C90   C     C_3   0.510916 0.978548 0.694457 0.119373
C91   C     C_1   0.775448 0.249997 0.250003 0.004345
C92   C     C_1   0.275448 0.749997 0.749996 0.000889
C93   C     C_1   0.275448 0.750001 0.249999 0.008353
C94   C     C_1   0.275448 0.250003 0.250001 0.002306
C95   C     C_1   0.275448 0.249998 0.750002 0.006097
C96   C     C_1   0.818894 0.749997 0.249998 0.041330
C97   C     C_1   0.818893 0.750000 0.749999 0.051213
C98   C     C_1   0.818893 0.250002 0.750001 0.043030
C99   C     C_1   0.818893 0.249997 0.250002 0.048256
C100  C     C_1   0.318894 0.749997 0.749997 0.041701
C101  C     C_3   0.504926 0.021869 0.692873 0.080712
C102  C     C_1   0.318893 0.750000 0.249999 0.052222
C103  C     C_1   0.318894 0.250002 0.250001 0.044395
C104  C     C_1   0.318893 0.249998 0.750001 0.049433
C105  C     C_3   0.546679 0.977914 0.228165 0.037750
C106  C     C_3   0.539652 0.978750 0.781663 0.056994
C107  C     C_3   0.544684 0.022114 0.775156 0.040746
C108  C     C_3   0.542169 0.021275 0.221316 0.060717
C109  C     C_3   0.538719 0.478710 0.716719 0.056228
C110  C     C_3   0.541736 0.478759 0.278765 0.058089
C111  C     C_3   0.546366 0.522113 0.271945 0.040351
C112  C     C_R   0.499999 0.650392 0.750005 0.533284
C113  C     C_3   0.506364 0.021360 0.305926 0.120600
C114  C     C_3   0.543955 0.522086 0.723006 0.028556
C115  C     C_3   0.042498 0.977886 0.720668 0.038010
C116  C     C_3   0.041673 0.978748 0.279028 0.056213
C117  C     C_3   0.046255 0.022112 0.272196 0.039994
C118  C     C_3   0.037035 0.021285 0.714842 0.034831
C119  C     C_3   0.036265 0.478713 0.214141 0.056226
C120  C     C_3   0.038007 0.478762 0.783392 0.057647
C121  C     C_3   0.043424 0.522116 0.777179 0.039900
C122  C     C_3   0.041936 0.522088 0.220043 0.028282
C123  C     C_3   0.512692 0.478604 0.804770 0.119291
C124  C     C_3   0.507284 0.478544 0.193579 0.123468
C125  C     C_3   0.501293 0.521893 0.192437 0.089288
C126  C     C_3   0.506708 0.521893 0.806462 0.105246
C127  C     C_3   0.010342 0.978042 0.806233 0.086064
C128  C     C_3   0.007143 0.978549 0.193945 0.118316
C129  C     C_3   0.001052 0.021868 0.192768 0.080058
C130  C     C_3   0.016261 0.021355 0.804272 0.119266
C131  C     C_3   0.016569 0.478602 0.303819 0.119237
C132  C     C_R   0.499962 0.349606 0.749967 0.527608
C133  C     C_3   0.014050 0.478544 0.694686 0.123749
C134  C     C_3   0.008249 0.521896 0.692832 0.089335
C135  C     C_3   0.010724 0.521893 0.305934 0.105057
C136  C     C_1   0.000292 0.610952 0.250630 0.162315
C137  C     C_1   0.000341 0.610946 0.749203 0.132687
C138  C     C_1   0.000278 0.389053 0.749323 0.166692
C139  C     C_1   0.000227 0.389042 0.250551 0.164267
C140  C     C_1   0.000322 0.110959 0.750628 0.127943
C141  C     C_1   0.000173 0.110943 0.249350 0.131583
C142  C     C_1   0.000123 0.889050 0.249485 0.171558
C143  C     C_R   0.499975 0.349610 0.250016 0.528706
C144  C     C_1   0.000312 0.889048 0.750644 0.152907
C145  C     C_1   0.500239 0.610951 0.750590 0.162535
C146  C     C_1   0.500228 0.610944 0.249283 0.133056
C147  C     C_1   0.500181 0.389053 0.249404 0.166967
C148  C     C_1   0.500179 0.389042 0.750513 0.164342
C149  C     C_1   0.500142 0.110958 0.250504 0.151531
C150  C     C_1   0.500236 0.110944 0.749304 0.131159
C151  C     C_1   0.500175 0.889049 0.749441 0.171558
C152  C     C_1   0.500148 0.889049 0.250526 0.152908
C153  C     C_3   0.499346 0.962965 0.253614 -0.108189
C154  C     C_R   0.499990 0.150389 0.749996 0.530198
C155  C     C_3   0.499533 0.962979 0.746371 -0.096989
C156  C     C_3   0.499605 0.037042 0.745858 -0.099675
C157  C     C_3   0.499332 0.037018 0.253267 -0.101942
C158  C     C_3   0.499721 0.462978 0.753266 -0.106176
C159  C     C_3   0.499384 0.462985 0.246173 -0.101003
C160  C     C_3   0.499461 0.537046 0.245693 -0.101777
C161  C     C_3   0.499799 0.537036 0.753654 -0.113224
C162  C     C_3   0.000255 0.962964 0.753907 -0.106392
C163  C     C_3   0.999270 0.962979 0.246507 -0.097194
C164  C     C_3   0.999304 0.037040 0.245992 -0.099609
C165  C     C_R   0.499976 0.150394 0.249983 0.526561
C166  C     C_3   0.000275 0.037024 0.753629 -0.106283
C167  C     C_3   0.999969 0.462978 0.253369 -0.106130
C168  C     C_3   0.999885 0.462986 0.745948 -0.100843
C169  C     C_3   0.000023 0.537050 0.745479 -0.101656
C170  C     C_3   0.000076 0.537038 0.253754 -0.113175
C171  C     C_3   0.951248 0.521243 0.232612 0.106786
C172  C     C_3   0.952281 0.521240 0.768917 0.080841
C173  C     C_3   0.949471 0.478030 0.763174 0.089775
C174  C     C_3   0.948791 0.478017 0.238379 0.082102
C175  C     C_3   0.949223 0.022049 0.738161 0.074615
C176  C     C_R   0.499990 0.849607 0.249997 0.534978
C177  C     C_3   0.954748 0.021256 0.275072 0.081281
C178  C     C_3   0.951350 0.978020 0.269856 0.089288
C179  C     C_3   0.951675 0.978840 0.732286 0.112835
C180  C     C_3   0.452597 0.521241 0.729093 0.107336
C181  C     C_3   0.454884 0.521237 0.274703 0.081214
C182  C     C_3   0.451405 0.478026 0.269340 0.090317
C183  C     C_3   0.449737 0.478016 0.734672 0.082653
C184  C     C_3   0.451711 0.022030 0.229256 0.065325
C185  C     C_3   0.453199 0.021258 0.771879 0.079844
C186  C     C_3   0.450156 0.978022 0.766446 0.088793
C187  C     C_R   0.499966 0.849608 0.750028 0.527698
C188  C     C_3   0.455182 0.978807 0.223938 0.113907
C189  C     C_1   0.000138 0.577736 0.251890 0.134062
C190  C     C_1   0.000137 0.577733 0.747561 0.103053
C191  C     C_1   0.000144 0.422270 0.747840 0.150553
C192  C     C_1   0.000195 0.422256 0.251804 0.149830
C193  C     C_1   0.000417 0.077744 0.751933 0.091177
C194  C     C_1   0.999706 0.077725 0.247912 0.102345
C195  C     C_1   0.999770 0.922268 0.248166 0.160494
C196  C     C_1   0.000260 0.922264 0.751969 0.115927
C197  C     C_1   0.499993 0.577733 0.751807 0.134355
C198  C     C_R   0.999981 0.650389 0.750005 0.529017
C199  C     C_1   0.499824 0.577728 0.247732 0.103224
C200  C     C_1   0.499867 0.422272 0.248004 0.150812
C201  C     C_1   0.500058 0.422257 0.751732 0.149959
C202  C     C_1   0.499881 0.077743 0.251694 0.128753
C203  C     C_1   0.499876 0.077729 0.747809 0.102033
C204  C     C_1   0.499918 0.922266 0.748071 0.160828
C205  C     C_1   0.499786 0.922265 0.251735 0.117129
C206  C     C_1   0.499983 0.750014 0.431104 0.040685
C207  C     C_1   0.499986 0.750015 0.568897 0.039024
C208  C     C_1   0.499984 0.249986 0.568897 0.042225
H1    H     H_    0.534068 0.967472 0.322918 0.167134
H2    H     H_    0.046078 0.974290 0.187340 0.211615
H3    H     H_    0.035184 0.032446 0.177315 0.179463
H4    H     H_    0.055769 0.025544 0.804632 0.192708
H5    H     H_    0.056066 0.474374 0.303757 0.213342
H6    H     H_    0.053492 0.474238 0.692821 0.210863
H7    H     H_    0.044058 0.532407 0.681716 0.182318
H8    H     H_    0.046931 0.532493 0.315528 0.194551
H9    H     H_    0.465999 0.974701 0.185674 0.091580
H10   H     H_    0.448018 0.967338 0.804018 0.104291
H11   H     H_    0.460830 0.025441 0.810881 0.052508
H12   H     H_    0.550205 0.974284 0.690476 0.211662
H13   H     H_    0.452505 0.032768 0.191673 0.078839
H14   H     H_    0.446350 0.467300 0.697217 0.114377
H15   H     H_    0.451552 0.467260 0.306933 0.105561
H16   H     H_    0.465116 0.525305 0.313124 0.053005
H17   H     H_    0.458988 0.525451 0.689870 0.094779
H18   H     H_    0.955732 0.974755 0.692728 0.090770
H19   H     H_    0.951740 0.967337 0.307485 0.104343
H20   H     H_    0.964976 0.025441 0.313473 0.053136
H21   H     H_    0.943549 0.032806 0.701009 0.080188
H22   H     H_    0.942747 0.467301 0.201259 0.114006
H23   H     H_    0.540023 0.032442 0.679750 0.179650
H24   H     H_    0.945095 0.467263 0.800512 0.105038
H25   H     H_    0.957820 0.525307 0.808289 0.052448
H26   H     H_    0.954834 0.525452 0.193033 0.094383
H27   H     H_    0.547511 0.965825 0.191294 0.128890
H28   H     H_    0.525501 0.975222 0.818881 0.101112
H29   H     H_    0.542463 0.034224 0.811957 0.126199
H30   H     H_    0.531054 0.024830 0.183084 0.101599
H31   H     H_    0.523410 0.475148 0.679967 0.102124
H32   H     H_    0.530015 0.475234 0.316819 0.102519
H33   H     H_    0.546598 0.534216 0.308815 0.127122
H34   H     H_    0.545218 0.025553 0.313078 0.212260
H35   H     H_    0.540605 0.534172 0.686280 0.130636
H36   H     H_    0.036864 0.965882 0.684175 0.128047
H37   H     H_    0.030056 0.975221 0.317113 0.101789
H38   H     H_    0.046516 0.034222 0.309062 0.127045
H39   H     H_    0.019572 0.024964 0.679084 0.105169
H40   H     H_    0.018379 0.475153 0.178572 0.101917
H41   H     H_    0.021792 0.475237 0.819761 0.101931
H42   H     H_    0.039217 0.534219 0.813810 0.126547
H43   H     H_    0.035982 0.534176 0.183649 0.130335
H44   H     H_    0.163221 0.520139 0.277363 0.402492
H45   H     H_    0.552093 0.474378 0.807516 0.213146
H46   H     H_    0.161932 0.520093 0.714307 0.397090
H47   H     H_    0.142550 0.421882 0.744710 0.381768
H48   H     H_    0.142416 0.421787 0.247987 0.384485
H49   H     H_    0.102927 0.082767 0.769146 0.351375
H50   H     H_    0.156241 0.020115 0.195363 0.396417
H51   H     H_    0.140696 0.921847 0.227856 0.382288
H52   H     H_    0.162582 0.978537 0.780701 0.403139
H53   H     H_    0.660856 0.520150 0.788820 0.400874
H54   H     H_    0.656422 0.520134 0.195206 0.395758
H55   H     H_    0.640913 0.421915 0.227787 0.380799
H56   H     H_    0.546217 0.474243 0.186992 0.210844
H57   H     H_    0.642220 0.421810 0.758039 0.384048
H58   H     H_    0.640454 0.078110 0.273967 0.386130
H59   H     H_    0.659604 0.020068 0.705962 0.395685
H60   H     H_    0.641864 0.921838 0.737250 0.381664
H61   H     H_    0.655332 0.979815 0.306884 0.397813
H62   H     H_    0.509384 0.937427 0.400678 0.349180
H63   H     H_    0.501615 0.895853 0.617830 0.378287
H64   H     H_    0.477202 0.100933 0.646186 0.347255
H65   H     H_    0.486741 0.044362 0.433601 0.396937
H66   H     H_    0.507126 0.396270 0.882304 0.377250
H67   H     H_    0.535501 0.532409 0.177093 0.182341
H68   H     H_    0.490205 0.454744 0.065728 0.391134
H69   H     H_    0.472178 0.600995 0.147358 0.347558
H70   H     H_    0.479631 0.553677 0.929035 0.391205
H71   H     H_    0.035611 0.937616 0.897153 0.347754
H72   H     H_    0.992766 0.895852 0.118105 0.379723
H73   H     H_    0.970133 0.100932 0.148002 0.348356
H74   H     H_    0.018979 0.044373 0.933393 0.395421
H75   H     H_    0.016530 0.396273 0.381557 0.376846
H76   H     H_    0.012386 0.454781 0.565717 0.391033
H77   H     H_    0.984889 0.600997 0.644664 0.345983
H78   H     H_    0.542139 0.532496 0.818606 0.194322
H79   H     H_    0.992427 0.553647 0.430126 0.391749
H80   H     H_    0.330148 0.957626 0.188380 0.384934
H81   H     H_    0.371267 0.906249 0.711503 0.385629
H82   H     H_    0.413867 0.084364 0.827754 0.334547
H83   H     H_    0.373323 0.066047 0.181466 0.335898
H84   H     H_    0.324747 0.444941 0.732816 0.384005
H85   H     H_    0.369442 0.406726 0.217977 0.384304
H86   H     H_    0.419004 0.583500 0.334390 0.336464
H87   H     H_    0.374735 0.602733 0.714018 0.377880
H88   H     H_    0.822302 0.957794 0.719032 0.385994
H89   H     H_    0.046441 0.967415 0.816136 0.166411
H90   H     H_    0.868918 0.906229 0.220407 0.385355
H91   H     H_    0.919288 0.084394 0.333405 0.334900
H92   H     H_    0.863899 0.066258 0.704685 0.336309
H93   H     H_    0.824003 0.444927 0.245420 0.385805
H94   H     H_    0.874315 0.406743 0.702272 0.385331
H95   H     H_    0.909416 0.583473 0.823903 0.335612
H96   H     H_    0.872548 0.602752 0.223149 0.378627
O1    O     O_3   0.499990 0.750000 0.250000 -0.467237
O2    O     O_R   0.527870 0.668020 0.722120 -0.527297
O3    O     O_R   0.972140 0.331980 0.722150 -0.508457
O4    O     O_R   0.972140 0.168020 0.222150 -0.512124
O5    O     O_R   0.972140 0.168020 0.777850 -0.501950
O6    O     O_R   0.972140 0.831980 0.777850 -0.503441
O7    O     O_R   0.972140 0.831980 0.222150 -0.515097
O8    O     O_2   0.131797 0.542484 0.191457 -0.169553
O9    O     O_2   0.099346 0.576576 0.259127 -0.287143
O10   O     O_3   0.129772 0.510821 0.275362 -0.458298
O11   O     O_2   0.098909 0.576555 0.735315 -0.297642
O12   O     O_2   0.134519 0.542601 0.801494 -0.173184
O13   O     O_R   0.527870 0.331980 0.722120 -0.519831
O14   O     O_3   0.128609 0.510779 0.717873 -0.461262
O15   O     O_2   0.129985 0.471460 0.818932 -0.148886
O16   O     O_2   0.079765 0.416843 0.817815 -0.282928
O17   O     O_3   0.115493 0.438613 0.736845 -0.476446
O18   O     O_2   0.076304 0.416726 0.177988 -0.282653
O19   O     O_2   0.126425 0.471336 0.174284 -0.147206
O20   O     O_3   0.115883 0.438645 0.257079 -0.467096
O21   O     O_2   0.126727 0.028815 0.674363 -0.112488
O22   O     O_2   0.078067 0.083772 0.680568 -0.285442
O23   O     O_3   0.118460 0.059628 0.758337 -0.429781
O24   O     O_R   0.527870 0.331980 0.277880 -0.522854
O25   O     O_2   0.096275 0.076564 0.223935 -0.298434
O26   O     O_2   0.139643 0.042568 0.285264 -0.167894
O27   O     O_3   0.123604 0.010793 0.202959 -0.463738
O28   O     O_2   0.137300 0.971426 0.303094 -0.144269
O29   O     O_2   0.087307 0.916812 0.308043 -0.282495
O30   O     O_3   0.112926 0.938622 0.223353 -0.472916
O31   O     O_2   0.099350 0.922751 0.758941 -0.301127
O32   O     O_2   0.133012 0.958163 0.693096 -0.168354
O33   O     O_3   0.129328 0.988152 0.777970 -0.456719
O34   O     O_2   0.635630 0.542471 0.700883 -0.168603
O35   O     O_R   0.527870 0.168020 0.777880 -0.527846
O36   O     O_2   0.598447 0.576580 0.766052 -0.289060
O37   O     O_3   0.627636 0.510827 0.784439 -0.459557
O38   O     O_2   0.596425 0.576554 0.223728 -0.299804
O39   O     O_2   0.639739 0.542584 0.285121 -0.173408
O40   O     O_3   0.623804 0.510779 0.202816 -0.461588
O41   O     O_2   0.637327 0.471452 0.302994 -0.149958
O42   O     O_2   0.587338 0.416835 0.307907 -0.283081
O43   O     O_3   0.613074 0.438616 0.223239 -0.477146
O44   O     O_2   0.581236 0.416718 0.683520 -0.282583
O45   O     O_2   0.631489 0.471329 0.683369 -0.146487
O46   O     O_R   0.527870 0.168020 0.222120 -0.522948
O47   O     O_3   0.615091 0.438653 0.765215 -0.468138
O48   O     O_2   0.638109 0.028621 0.198600 -0.141549
O49   O     O_2   0.588178 0.083240 0.193034 -0.281400
O50   O     O_3   0.612602 0.061351 0.278052 -0.472436
O51   O     O_2   0.597819 0.076566 0.730351 -0.298150
O52   O     O_2   0.636966 0.042579 0.794473 -0.170358
O53   O     O_3   0.626495 0.010795 0.711274 -0.464342
O54   O     O_2   0.633439 0.971428 0.812089 -0.147635
O55   O     O_2   0.583221 0.916814 0.813673 -0.283505
O56   O     O_3   0.614470 0.938622 0.730889 -0.473094
O57   O     O_R   0.527870 0.831980 0.222120 -0.529535
O58   O     O_2   0.595940 0.923446 0.277165 -0.302741
O59   O     O_2   0.640272 0.957504 0.216578 -0.169842
O60   O     O_3   0.622882 0.989207 0.298662 -0.462762
O61   O     O_2   0.411942 0.979656 0.353467 -0.078537
O62   O     O_2   0.444512 0.919043 0.335385 -0.245244
O63   O     O_3   0.483343 0.955934 0.403800 -0.413411
O64   O     O_2   0.437544 0.948587 0.639378 -0.142651
O65   O     O_2   0.510051 0.969230 0.597451 -0.179867
O66   O     O_3   0.514843 0.909170 0.646008 -0.524588
O67   O     O_2   0.492901 0.042188 0.599962 -0.219362
O68   O     O_R   0.527870 0.831980 0.777880 -0.520913
O69   O     O_2   0.420573 0.020294 0.639684 -0.078240
O70   O     O_3   0.450854 0.085651 0.659585 -0.457424
O71   O     O_2   0.503227 0.086310 0.354553 -0.271224
O72   O     O_2   0.428842 0.050627 0.355913 -0.127724
O73   O     O_3   0.500727 0.028666 0.407992 -0.429313
O74   O     O_2   0.514255 0.469772 0.901840 -0.184573
O75   O     O_2   0.441219 0.448070 0.861813 -0.139173
O76   O     O_3   0.519133 0.409552 0.853558 -0.524925
O77   O     O_2   0.503327 0.413182 0.145731 -0.272128
O78   O     O_2   0.430209 0.450247 0.142001 -0.140874
O79   O     O_R   0.027870 0.668020 0.777880 -0.527942
O80   O     O_3   0.504116 0.470356 0.091467 -0.433370
O81   O     O_2   0.483142 0.541945 0.100346 -0.214881
O82   O     O_2   0.413329 0.521152 0.145198 -0.084186
O83   O     O_3   0.446304 0.586125 0.162368 -0.459887
O84   O     O_2   0.455028 0.580808 0.841478 -0.246712
O85   O     O_2   0.424496 0.519943 0.862882 -0.116271
O86   O     O_3   0.501771 0.543547 0.904413 -0.451543
O87   O     O_2   0.931356 0.979570 0.867257 -0.077246
O88   O     O_2   0.960553 0.918985 0.844009 -0.247589
O89   O     O_3   0.010407 0.956062 0.904664 -0.415401
O90   O     O_R   0.027870 0.668020 0.222120 -0.526613
O91   O     O_2   0.930263 0.948539 0.143930 -0.142884
O92   O     O_2   0.999730 0.969251 0.097201 -0.175352
O93   O     O_3   0.007888 0.909186 0.145297 -0.523221
O94   O     O_2   0.982804 0.042203 0.100874 -0.216380
O95   O     O_2   0.913327 0.020258 0.145339 -0.078134
O96   O     O_3   0.944806 0.085628 0.163198 -0.457521
O97   O     O_2   0.021352 0.086350 0.852634 -0.293265
O98   O     O_2   0.948506 0.050480 0.866966 -0.122171
O99   O     O_3   0.028466 0.028748 0.905732 -0.432202
O100  O     O_2   0.025058 0.469757 0.400520 -0.184305
O101  O     O_R   0.027870 0.331980 0.222120 -0.519211
O102  O     O_2   0.949327 0.448093 0.365813 -0.138830
O103  O     O_3   0.026420 0.409540 0.352004 -0.525425
O104  O     O_2   0.015803 0.413171 0.646738 -0.273705
O105  O     O_2   0.943715 0.450290 0.634205 -0.140664
O106  O     O_3   0.023207 0.470334 0.592956 -0.433874
O107  O     O_2   0.001318 0.541936 0.599228 -0.215313
O108  O     O_2   0.926597 0.521192 0.635376 -0.084149
O109  O     O_3   0.957338 0.586150 0.656367 -0.460309
O110  O     O_2   0.961695 0.580817 0.344538 -0.247153
O111  O     O_2   0.932724 0.519959 0.368043 -0.115776
O112  O     O_3   0.499990 0.750000 0.750000 -0.466059
O113  O     O_R   0.027870 0.331980 0.777880 -0.521478
O114  O     O_3   0.012768 0.543532 0.403987 -0.450894
O115  O     O_2   0.409398 0.914988 0.201155 -0.301767
O116  O     O_2   0.378025 0.946936 0.271683 -0.130605
O117  O     O_3   0.359266 0.973357 0.187048 -0.436323
O118  O     O_2   0.359045 0.955179 0.782268 -0.220681
O119  O     O_2   0.373551 0.980946 0.702680 -0.107883
O120  O     O_3   0.403684 0.915098 0.720824 -0.507576
O121  O     O_2   0.381002 0.053670 0.717611 -0.076620
O122  O     O_2   0.358462 0.028950 0.796086 -0.184607
O123  O     O_3   0.406113 0.089526 0.793615 -0.511323
O124  O     O_R   0.027870 0.168020 0.277880 -0.527821
O125  O     O_2   0.369743 0.018931 0.286179 -0.073545
O126  O     O_2   0.401757 0.080055 0.270220 -0.250362
O127  O     O_3   0.358387 0.046595 0.201555 -0.429658
O128  O     O_2   0.404055 0.419651 0.779147 -0.254951
O129  O     O_2   0.375044 0.480883 0.800740 -0.109946
O130  O     O_3   0.353897 0.454810 0.716826 -0.467746
O131  O     O_2   0.361696 0.454561 0.290568 -0.224063
O132  O     O_2   0.370694 0.481608 0.210910 -0.111195
O133  O     O_3   0.402372 0.415627 0.225187 -0.501144
O134  O     O_2   0.379830 0.554545 0.225533 -0.081530
O135  O     O_R   0.027870 0.168020 0.722120 -0.522290
O136  O     O_2   0.361678 0.528663 0.304518 -0.186606
O137  O     O_3   0.409452 0.589182 0.300857 -0.513532
O138  O     O_2   0.357532 0.528801 0.707342 -0.185374
O139  O     O_2   0.381880 0.553462 0.785527 -0.135031
O140  O     O_3   0.405311 0.589315 0.708578 -0.551858
O141  O     O_2   0.902545 0.915112 0.717450 -0.300607
O142  O     O_2   0.884014 0.946797 0.792568 -0.130197
O143  O     O_3   0.850757 0.973515 0.712677 -0.435937
O144  O     O_2   0.861490 0.955197 0.291766 -0.220771
O145  O     O_2   0.870627 0.980926 0.211371 -0.108280
O146  O     O_R   0.027870 0.831980 0.722120 -0.528152
O147  O     O_3   0.901895 0.915081 0.227503 -0.508535
O148  O     O_2   0.879031 0.053630 0.225786 -0.079473
O149  O     O_2   0.861856 0.028958 0.305622 -0.188572
O150  O     O_3   0.909212 0.089535 0.299875 -0.513586
O151  O     O_2   0.878200 0.018853 0.808254 -0.075051
O152  O     O_2   0.907101 0.080004 0.787335 -0.241966
O153  O     O_3   0.852586 0.046757 0.726942 -0.429049
O154  O     O_2   0.906404 0.419657 0.286009 -0.253827
O155  O     O_2   0.878989 0.480893 0.309586 -0.109064
O156  O     O_3   0.851939 0.454799 0.227395 -0.467477
O157  O     O_R   0.027870 0.831980 0.277880 -0.521466
O158  O     O_2   0.857871 0.454549 0.773453 -0.223487
O159  O     O_2   0.876382 0.481625 0.695466 -0.110000
O160  O     O_3   0.906129 0.415642 0.713414 -0.499639
O161  O     O_2   0.883719 0.554582 0.711072 -0.080156
O162  O     O_2   0.856160 0.528656 0.787267 -0.186066
O163  O     O_3   0.904034 0.589174 0.789457 -0.512409
O164  O     O_2   0.854876 0.528797 0.217694 -0.183507
O165  O     O_2   0.884745 0.553482 0.293932 -0.134142
O166  O     O_3   0.902624 0.589309 0.215485 -0.551821
O167  O     O_R   0.472130 0.728510 0.143730 -0.527014
O168  O     O_R   0.472130 0.728510 0.856270 -0.521960
O169  O     O_R   0.472130 0.271490 0.856270 -0.524914
O170  O     O_R   0.472130 0.271490 0.143730 -0.521156
O171  O     O_R   0.472130 0.228510 0.643730 -0.526907
O172  O     O_3   0.499990 0.250000 0.750000 -0.466792
O173  O     O_R   0.472130 0.228510 0.356270 -0.518859
O174  O     O_R   0.472130 0.771490 0.356270 -0.522259
O175  O     O_R   0.472130 0.771490 0.643730 -0.526391
O176  O     O_R   0.972130 0.728510 0.643730 -0.526021
O177  O     O_R   0.972130 0.728510 0.356270 -0.521560
O178  O     O_R   0.972130 0.271490 0.356270 -0.524367
O179  O     O_R   0.972130 0.271490 0.643730 -0.521817
O180  O     O_R   0.972130 0.228510 0.143730 -0.527680
O181  O     O_R   0.972130 0.228510 0.856270 -0.518932
O182  O     O_R   0.972130 0.771490 0.856270 -0.521451
O183  O     O_3   0.499990 0.250000 0.250000 -0.469057
O184  O     O_R   0.972130 0.771490 0.143730 -0.526564
O185  O     O_R   0.393720 0.728520 0.222140 -0.518309
O186  O     O_R   0.393720 0.728520 0.777860 -0.525008
O187  O     O_R   0.393720 0.271480 0.777860 -0.525819
O188  O     O_R   0.393720 0.271480 0.222140 -0.530147
O189  O     O_R   0.393720 0.228520 0.722140 -0.516855
O190  O     O_R   0.393720 0.228520 0.277860 -0.521951
O191  O     O_R   0.393720 0.771480 0.277860 -0.521610
O192  O     O_R   0.393720 0.771480 0.722140 -0.527880
O193  O     O_R   0.893720 0.728520 0.722140 -0.518192
O194  O     O_3   0.999990 0.750000 0.750000 -0.468080
O195  O     O_R   0.893720 0.728520 0.277860 -0.525582
O196  O     O_R   0.893720 0.271480 0.277860 -0.525626
O197  O     O_R   0.893720 0.271480 0.722140 -0.530377
O198  O     O_R   0.893720 0.228520 0.222140 -0.517747
O199  O     O_R   0.893720 0.228520 0.777860 -0.523031
O200  O     O_R   0.893720 0.771480 0.777860 -0.522509
O201  O     O_R   0.893720 0.771480 0.222140 -0.527758
O202  O     O_R   0.606280 0.728500 0.277860 -0.523785
O203  O     O_R   0.606280 0.728500 0.722140 -0.521586
O204  O     O_R   0.606280 0.271500 0.722140 -0.524424
O205  O     O_3   0.999990 0.750000 0.250000 -0.466211
O206  O     O_R   0.606280 0.271500 0.277860 -0.523571
O207  O     O_R   0.606280 0.228500 0.777860 -0.522352
O208  O     O_R   0.606280 0.228500 0.222140 -0.521413
O209  O     O_R   0.606280 0.771500 0.222140 -0.523954
O210  O     O_R   0.606280 0.771500 0.777860 -0.523578
O211  O     O_R   0.106280 0.728500 0.777860 -0.523247
O212  O     O_R   0.106280 0.728500 0.222140 -0.521357
O213  O     O_R   0.106280 0.271500 0.222140 -0.524676
O214  O     O_R   0.106280 0.271500 0.777860 -0.524386
O215  O     O_R   0.106280 0.228500 0.277860 -0.522203
O216  O     O_3   0.999990 0.250000 0.250000 -0.466638
O217  O     O_R   0.106280 0.228500 0.722140 -0.520424
O218  O     O_R   0.106280 0.771500 0.722140 -0.523231
O219  O     O_R   0.106280 0.771500 0.277860 -0.522940
O220  O     O_R   0.527850 0.771500 0.143710 -0.528018
O221  O     O_R   0.527850 0.771500 0.856290 -0.526590
O222  O     O_R   0.527850 0.228500 0.856290 -0.528788
O223  O     O_R   0.527850 0.228500 0.143710 -0.528529
O224  O     O_R   0.527850 0.271500 0.643710 -0.526365
O225  O     O_R   0.527850 0.271500 0.356290 -0.528028
O226  O     O_R   0.527850 0.728500 0.356290 -0.530254
O227  O     O_3   0.999990 0.250000 0.750000 -0.469111
O228  O     O_R   0.527850 0.728500 0.643710 -0.527857
O229  O     O_R   0.027850 0.771500 0.643710 -0.528218
O230  O     O_R   0.027850 0.771500 0.356290 -0.526794
O231  O     O_R   0.027850 0.228500 0.356290 -0.528694
O232  O     O_R   0.027850 0.228500 0.643710 -0.526232
O233  O     O_R   0.027850 0.271500 0.143710 -0.525629
O234  O     O_R   0.027850 0.271500 0.856290 -0.527270
O235  O     O_R   0.027850 0.728500 0.856290 -0.530226
O236  O     O_R   0.027850 0.728500 0.143710 -0.527739
O237  O     O_R   0.472140 0.668020 0.222150 -0.511749
O238  O     O_R   0.527870 0.668020 0.277880 -0.528693
O239  O     O_R   0.472140 0.668020 0.777850 -0.508839
O240  O     O_R   0.472140 0.331980 0.777850 -0.512709
O241  O     O_R   0.472140 0.331980 0.222150 -0.506938
O242  O     O_R   0.472140 0.168020 0.722150 -0.509842
O243  O     O_R   0.472140 0.168020 0.277850 -0.502719
O244  O     O_R   0.472140 0.831980 0.277850 -0.504939
O245  O     O_R   0.472140 0.831980 0.722150 -0.515475
O246  O     O_R   0.972140 0.668020 0.722150 -0.508219
O247  O     O_R   0.972140 0.668020 0.277850 -0.509022
O248  O     O_R   0.972140 0.331980 0.277850 -0.512980
S1    S     S_3+6 0.101939 0.539057 0.236341 0.060075
S2    S     S_3+6 0.602818 0.539070 0.245854 0.052986
S3    S     S_3+6 0.596696 0.451213 0.279143 0.069674
S4    S     S_3+6 0.593369 0.451148 0.711125 0.075668
S5    S     S_3+6 0.597114 0.048825 0.221867 0.077196
S6    S     S_3+6 0.602726 0.039079 0.752844 0.054061
S7    S     S_3+6 0.594464 0.951201 0.785606 0.072101
S8    S     S_3+6 0.602676 0.960954 0.255213 0.053070
S9    S     S_3+6 0.457479 0.957853 0.349138 0.138652
S10   S     S_3+6 0.491228 0.951791 0.642720 0.116541
S11   S     S_3+6 0.465980 0.041801 0.646910 0.137520
S12   S     S_3+6 0.102599 0.539077 0.758065 0.054016
S13   S     S_3+6 0.482685 0.047991 0.356088 0.116939
S14   S     S_3+6 0.494736 0.451901 0.857164 0.112548
S15   S     S_3+6 0.484104 0.451866 0.143187 0.114874
S16   S     S_3+6 0.459614 0.542042 0.149069 0.135723
S17   S     S_3+6 0.469165 0.541900 0.853456 0.125882
S18   S     S_3+6 0.975552 0.957842 0.855241 0.138457
S19   S     S_3+6 0.984046 0.951789 0.143637 0.118375
S20   S     S_3+6 0.959095 0.041790 0.149524 0.138893
S21   S     S_3+6 0.001566 0.047981 0.857756 0.108183
S22   S     S_3+6 0.002378 0.451900 0.357353 0.112872
S23   S     S_3+6 0.092519 0.451217 0.790374 0.070750
S24   S     S_3+6 0.997076 0.451867 0.641882 0.114619
S25   S     S_3+6 0.972103 0.542057 0.644768 0.135351
S26   S     S_3+6 0.976624 0.541903 0.355477 0.126288
S27   S     S_3+6 0.399566 0.952248 0.222712 0.101317
S28   S     S_3+6 0.395021 0.958008 0.742022 0.118837
S29   S     S_3+6 0.397709 0.047887 0.768322 0.127569
S30   S     S_3+6 0.394948 0.042167 0.249454 0.134441
S31   S     S_3+6 0.395385 0.458014 0.760717 0.119658
S32   S     S_3+6 0.394887 0.458151 0.248094 0.117444
S33   S     S_3+6 0.399363 0.547949 0.275047 0.123931
S34   S     S_3+6 0.090376 0.451151 0.204672 0.075760
S35   S     S_3+6 0.397235 0.547808 0.734341 0.104910
S36   S     S_3+6 0.896659 0.952292 0.740619 0.101417
S37   S     S_3+6 0.894690 0.958003 0.249200 0.118726
S38   S     S_3+6 0.899136 0.047879 0.275251 0.123972
S39   S     S_3+6 0.896790 0.042177 0.767864 0.138474
S40   S     S_3+6 0.896435 0.458016 0.268228 0.120667
S41   S     S_3+6 0.895927 0.458156 0.735277 0.118649
S42   S     S_3+6 0.897127 0.547956 0.762579 0.125183
S43   S     S_3+6 0.896403 0.547811 0.241782 0.106000
S44   S     S_3+6 0.091473 0.048645 0.706033 0.094270
S45   S     S_3+6 0.102675 0.039073 0.246037 0.055121
S46   S     S_3+6 0.096631 0.951200 0.279289 0.073808
S47   S     S_3+6 0.102278 0.960706 0.737478 0.055872
S48   S     S_3+6 0.602650 0.539055 0.743526 0.059369
Zn1   Zn    Zn3+2 0.539790 0.780710 0.210180 0.993279
Zn2   Zn    Zn3+2 0.039790 0.780710 0.289820 0.998613
Zn3   Zn    Zn3+2 0.039790 0.219290 0.289820 0.992893
Zn4   Zn    Zn3+2 0.039790 0.219290 0.710180 0.998581
Zn5   Zn    Zn3+2 0.039790 0.280710 0.210180 0.996874
Zn6   Zn    Zn3+2 0.039790 0.280710 0.789820 0.997695
Zn7   Zn    Zn3+2 0.039790 0.719290 0.789820 0.990855
Zn8   Zn    Zn3+2 0.039790 0.719290 0.210180 0.996722
Zn9   Zn    Zn3+2 0.460190 0.719300 0.210200 1.005641
Zn10  Zn    Zn3+2 0.460190 0.719300 0.789800 1.003414
Zn11  Zn    Zn3+2 0.460190 0.280700 0.789800 0.999632
Zn12  Zn    Zn3+2 0.539790 0.780710 0.789820 0.998136
Zn13  Zn    Zn3+2 0.460190 0.280700 0.210200 0.998621
Zn14  Zn    Zn3+2 0.460190 0.219300 0.710200 1.005116
Zn15  Zn    Zn3+2 0.460190 0.219300 0.289800 1.009917
Zn16  Zn    Zn3+2 0.460190 0.780700 0.289800 1.012397
Zn17  Zn    Zn3+2 0.460190 0.780700 0.710200 0.990274
Zn18  Zn    Zn3+2 0.960190 0.719300 0.710200 1.006304
Zn19  Zn    Zn3+2 0.960190 0.719300 0.289800 1.003043
Zn20  Zn    Zn3+2 0.960190 0.280700 0.289800 1.000195
Zn21  Zn    Zn3+2 0.960190 0.280700 0.710200 0.997138
Zn22  Zn    Zn3+2 0.960190 0.219300 0.210200 1.003364
Zn23  Zn    Zn3+2 0.539790 0.219290 0.789820 0.992086
Zn24  Zn    Zn3+2 0.960190 0.219300 0.789800 1.007848
Zn25  Zn    Zn3+2 0.960190 0.780700 0.789800 1.011695
Zn26  Zn    Zn3+2 0.960190 0.780700 0.210200 0.990378
Zn27  Zn    Zn3+2 0.539790 0.219290 0.210180 0.996205
Zn28  Zn    Zn3+2 0.539790 0.280710 0.710180 0.996174
Zn29  Zn    Zn3+2 0.539790 0.280710 0.289820 0.996908
Zn30  Zn    Zn3+2 0.539790 0.719290 0.289820 0.990806
Zn31  Zn    Zn3+2 0.539790 0.719290 0.710180 0.995915
Zn32  Zn    Zn3+2 0.039790 0.780710 0.710180 0.993566

loop_
_geom_bond_atom_site_label_1
_geom_bond_atom_site_label_2
_ccdc_geom_bond_type
C61   C70   S    
O98   S21   D    
C175  H21   S    
C107  S6    S    
C8    C50   S    
C8    C26   T    
C73   C82   T    
C19   C20   S    
C109  S4    S    
C74   C83   T    
C15   C32   T    
O82   S16   D    
C188  H9    S    
O41   S3    D    
C182  H15   S    
H70   O86   S    
O93   S19   S    
C13   C139  S    
O5    Zn24  S    
C17   C206  T    
H68   O80   S    
C121  S12   S    
C60   C98   S    
C106  C107  S    
C124  H56   S    
C114  S48   S    
C180  H17   S    
C39   O224  A    
C46   O5    A    
O63   S9    S    
O23   S44   S    
C110  C111  S    
O212  Zn8   S    
O168  Zn10  S    
O172  Zn11  S    
O214  Zn6   S    
C134  C169  S    
C67   O215  A    
C166  C193  S    
O45   S4    D    
C154  O35   A    
C123  S14   S    
O144  S37   D    
C16   C44   S    
C88   C97   T    
C57   O146  A    
C122  S1    S    
C12   C30   T    
C21   C22   S    
H44   O10   S    
C105  H27   S    
C147  C200  T    
O222  Zn23  S    
C150  C203  T    
O169  Zn11  S    
O224  Zn28  S    
O11   S12   D    
O27   S45   S    
C184  S30   S    
C45   O178  A    
C109  H31   S    
O26   S45   D    
O14   S12   S    
C58   O195  A    
C105  S8    S    
O163  S42   S    
C135  S26   S    
O179  Zn21  S    
O178  Zn20  S    
C139  C192  T    
C35   O4    A    
C123  C126  S    
O88   S18   D    
C156  C185  S    
C181  S33   S    
C82   C91   S    
C129  C164  S    
H94   O160  S    
C111  C160  S    
C11   C49   S    
O43   S3    S    
C115  C118  S    
O215  Zn3   S    
C163  C178  S    
C26   C27   S    
H63   O66   S    
O174  Zn16  S    
C42   C207  S    
O104  S24   D    
O154  S40   D    
O86   S17   S    
O53   S6    S    
O183  Zn29  S    
O227  Zn6   S    
C167  C174  S    
O91   S19   D    
O60   S8    S    
C34   O220  A    
C159  C200  S    
C112  O239  A    
C37   O169  A    
O223  Zn27  S    
O157  Zn2   S    
H86   O137  S    
C119  C167  S    
C120  C168  S    
C125  H67   S    
O152  S39   D    
H75   O103  S    
O39   S2    D    
C143  O241  A    
C44   O230  A    
O216  Zn5   S    
O187  Zn11  S    
C175  C179  S    
C36   O221  A    
O135  Zn4   S    
O107  S25   D    
C161  C197  S    
O134  S33   D    
C62   O210  A    
C176  O57   A    
C187  O245  A    
O236  Zn8   S    
C165  O243  A    
C108  S5    S    
C179  H18   S    
C115  S47   S    
C80   C88   S    
C177  H20   S    
O191  Zn16  S    
C183  H14   S    
O165  S43   D    
C67   O213  A    
O118  S28   D    
H91   O150  S    
O188  Zn13  S    
O183  Zn15  S    
H74   O99   S    
C173  S41   S    
C86   C95   S    
C65   C74   S    
O194  Zn25  S    
C177  S38   S    
O121  S29   D    
C37   O222  A    
O211  Zn7   S    
C113  C157  S    
O125  S30   D    
H51   O30   S    
C76   C85   T    
C78   C87   S    
C105  C153  S    
C131  H5    S    
O72   S13   D    
C69   C77   S    
C138  C191  T    
C130  S21   S    
O79   Zn7   S    
C14   C31   T    
C128  C129  S    
O13   Zn28  S    
C129  H3    S    
C125  C160  S    
O194  Zn18  S    
O19   S34   D    
C117  H38   S    
C125  S16   S    
O247  Zn19  S    
C186  H10   S    
H49   O23   S    
O80   S15   S    
C106  H28   S    
O99   S21   S    
C62   O203  A    
O112  Zn10  S    
H60   O56   S    
O229  Zn32  S    
C198  O246  A    
O100  S22   D    
C164  C194  S    
C51   O236  A    
O126  S30   D    
C170  C171  S    
C65   O218  A    
C42   O175  A    
C47   O232  A    
O120  S28   S    
C135  C170  S    
H58   O50   S    
O50   S5    S    
O58   S8    D    
O227  Zn4   S    
C51   O184  A    
C54   O189  A    
C198  O79   A    
O111  S26   D    
C64   C73   S    
C57   C144  S    
C68   O7    A    
C68   C142  S    
C101  S11   S    
C157  C184  S    
O194  Zn7   S    
O150  S38   S    
C128  S19   S    
C158  C183  S    
C90   H12   S    
C50   O235  A    
C84   C93   S    
O173  Zn15  S    
O151  S39   D    
O161  S42   D    
O116  S27   D    
O210  Zn12  S    
C111  H33   S    
O206  Zn29  S    
H76   O106  S    
C143  O24   A    
O73   S13   S    
C56   C97   S    
O232  Zn4   S    
O2    Zn31  S    
C17   C18   S    
C160  C199  S    
O227  Zn21  S    
C55   O190  A    
C49   O181  A    
C184  H13   S    
H48   O20   S    
O220  Zn1   S    
C127  S18   S    
C149  C165  S    
O96   S20   S    
C133  C168  S    
O137  S33   S    
C68   O157  A    
O106  S24   S    
C108  C157  S    
O175  Zn17  S    
O167  Zn9   S    
O103  S22   S    
C66   O219  A    
C18   C207  T    
O162  S42   D    
O84   S17   D    
O183  Zn13  S    
C56   O193  A    
O205  Zn19  S    
O216  Zn22  S    
C79   C153  S    
O189  Zn14  S    
C135  H8    S    
C48   O233  A    
H85   O133  S    
C39   C208  S    
C1    O237  A    
O65   S10   D    
C162  C179  S    
O123  S29   S    
C137  C198  S    
O180  Zn22  S    
C174  H22   S    
C178  H19   S    
C119  S34   S    
C109  C114  S    
C153  C205  S    
O138  S35   D    
C127  C162  S    
C66   O212  A    
C34   O167  A    
C126  H78   S    
C19   C208  T    
O231  Zn3   S    
O40   S2    S    
O48   S5    D    
O18   S34   D    
O6    Zn25  S    
C160  C181  S    
C115  H36   S    
C120  C121  S    
C116  S46   S    
O205  Zn8   S    
O159  S41   D    
H57   O47   S    
C52   O191  A    
O122  S29   D    
C183  S31   S    
O112  Zn12  S    
C61   O202  A    
O105  S24   D    
O24   Zn29  S    
C77   C86   T    
O213  Zn5   S    
O170  Zn13  S    
C144  C196  T    
O8    S1    D    
O204  Zn28  S    
C44   O177  A    
O240  Zn11  S    
O115  S27   D    
C89   C98   T    
O244  Zn16  S    
C24   O3    A    
C79   C113  S    
O153  S39   S    
C15   C43   S    
C35   O124  A    
O219  Zn2   S    
C121  H42   S    
H92   O153  S    
C54   O187  A    
O184  Zn26  S    
C53   O192  A    
C63   C72   S    
C62   C71   S    
C64   O206  A    
O112  Zn17  S    
C134  S25   S    
H50   O27   S    
O112  Zn31  S    
C137  C190  T    
C2    O90   A    
O166  S43   S    
O64   S10   D    
C113  H34   S    
O71   S13   D    
C110  H32   S    
C158  C201  S    
C91   C99   T    
C156  C203  S    
C149  C202  T    
C188  S27   S    
H66   O76   S    
C46   O135  A    
O234  Zn6   S    
C106  S7    S    
O233  Zn5   S    
H95   O163  S    
O94   S20   D    
C7    C36   S    
C116  C163  S    
O235  Zn7   S    
O1    Zn30  S    
C9    C51   S    
C151  C204  T    
C110  S3    S    
O196  Zn20  S    
O164  S43   D    
C172  H25   S    
O3    Zn21  S    
C151  C187  S    
C170  C189  S    
C52   C102  S    
C166  C175  S    
O242  Zn14  S    
O44   S4    D    
O15   S23   D    
C133  H6    S    
C40   O225  A    
C54   C104  S    
C28   C29   S    
O29   S46   D    
O243  Zn15  S    
C30   C31   S    
C120  S23   S    
O61   S9    D    
H54   O40   S    
C179  S36   S    
O37   S48   S    
C41   C206  S    
H46   O14   S    
C128  H2    S    
C2    O247  A    
O69   S11   D    
O1    Zn1   S    
C142  C195  T    
C90   S10   S    
O76   S14   S    
C69   O214  A    
O7    Zn26  S    
O185  Zn9   S    
O77   S15   D    
C126  C161  S    
O119  S28   D    
O226  Zn30  S    
C72   C81   T    
O117  S27   S    
O207  Zn23  S    
O225  Zn29  S    
O248  Zn20  S    
H53   O37   S    
O205  Zn2   S    
O55   S7    D    
C13   O101  A    
C81   C89   S    
C117  C164  S    
O21   S44   D    
C5    C38   S    
C117  S45   S    
H62   O63   S    
H61   O60   S    
O34   S48   D    
O81   S16   D    
C59   O198  A    
O200  Zn25  S    
C53   C100  S    
C171  C174  S    
O67   S11   D    
O143  S36   S    
O239  Zn10  S    
O241  Zn13  S    
O16   S23   D    
C120  H41   S    
O89   S18   S    
C131  S22   S    
O182  Zn25  S    
O208  Zn27  S    
C118  H39   S    
C101  C156  S    
O97   S21   D    
O92   S19   D    
O59   S8    D    
C126  S17   S    
C6    C34   S    
C187  O68   A    
O66   S10   S    
C95   C104  T    
C167  C192  S    
C173  H24   S    
H64   O70   S    
O12   S12   D    
C38   O170  A    
C168  C173  S    
O172  Zn14  S    
H72   O93   S    
O70   S11   S    
O31   S47   D    
O230  Zn2   S    
C47   O179  A    
O205  Zn26  S    
O127  S30   S    
O216  Zn3   S    
O33   S47   S    
C55   C103  S    
C174  S40   S    
C56   O200  A    
O142  S36   D    
O78   S15   D    
O51   S6    D    
O101  Zn5   S    
H87   O140  S    
C108  H30   S    
C94   C103  T    
O56   S7    S    
O148  S38   D    
C133  C134  S    
H81   O120  S    
O145  S37   D    
C49   O234  A    
O10   S1    S    
C182  S32   S    
C9    C27   T    
C46   C140  S    
C10   C28   T    
C79   H1    S    
C185  S29   S    
O201  Zn26  S    
C114  C161  S    
C93   C102  T    
O183  Zn27  S    
O130  S31   S    
C176  O244  A    
C153  C188  S    
O90   Zn8   S    
O22   S44   D    
C38   O223  A    
C136  C189  T    
O9    S1    D    
C7    C25   T    
C45   O231  A    
C180  S35   S    
H83   O127  S    
C32   C33   S    
C63   O204  A    
C60   O197  A    
O172  Zn28  S    
C185  C186  S    
O124  Zn3   S    
C63   O207  A    
C115  C162  S    
C66   C75   S    
C53   O186  A    
O75   S14   D    
O35   Zn23  S    
C159  C182  S    
H90   O147  S    
C75   C84   T    
C123  H45   S    
O218  Zn32  S    
C134  H7    S    
C4    C37   S    
C118  S44   S    
C177  C178  S    
C162  C196  S    
H93   O156  S    
O136  S33   D    
C122  C170  S    
O131  S32   D    
O228  Zn31  S    
C113  S13   S    
H82   O123  S    
O17   S23   S    
C59   O196  A    
O42   S3    D    
C121  C169  S    
C79   S9    S    
O172  Zn23  S    
C64   O208  A    
O28   S46   D    
C70   C78   T    
C172  S42   S    
C59   C99   S    
O47   S4    S    
O140  S35   S    
C130  H4    S    
C43   O229  A    
O85   S17   D    
C111  S2    S    
O108  S25   D    
O227  Zn24  S    
C112  C145  S    
C143  C147  S    
C83   C92   S    
C107  H29   S    
O158  S41   D    
C168  C191  S    
C57   O6    A    
C165  O46   A    
C131  C135  S    
C129  S20   S    
C127  H89   S    
O177  Zn19  S    
C124  C159  S    
C181  C182  S    
O74   S14   D    
C116  C117  S    
O129  S31   D    
C146  C199  T    
C130  C166  S    
H69   O83   S    
C13   O248  A    
C58   C96   S    
C122  H43   S    
O133  S32   S    
O237  Zn9   S    
O194  Zn32  S    
C5    C22   T    
O36   S48   D    
C163  C195  S    
O160  S41   S    
O95   S20   D    
O57   Zn1   S    
C107  C156  S    
O147  S37   S    
C180  C183  S    
C40   O173  A    
O202  Zn30  S    
O113  Zn6   S    
O198  Zn22  S    
C85   C94   S    
O192  Zn17  S    
C114  H35   S    
O54   S7    D    
H79   O114  S    
O197  Zn21  S    
H80   O117  S    
C36   O168  A    
O181  Zn24  S    
O203  Zn31  S    
C1    C146  S    
C132  O240  A    
C169  C190  S    
C109  C158  S    
O216  Zn20  S    
O217  Zn4   S    
C186  S28   S    
C71   C80   T    
C148  C201  T    
C50   O182  A    
O193  Zn18  S    
C105  C108  S    
H96   O166  S    
H52   O33   S    
O1    Zn9   S    
O245  Zn17  S    
C132  C148  S    
C178  S37   S    
C152  C205  T    
C3    C20   T    
H84   O130  S    
C133  S24   S    
C60   O199  A    
H59   O53   S    
O102  S22   D    
C58   O201  A    
H77   O109  S    
O238  Zn30  S    
C24   C138  S    
O38   S2    D    
C118  C166  S    
C128  C163  S    
C2    C136  S    
C41   O226  A    
C184  C188  S    
O246  Zn18  S    
C119  H40   S    
C90   C101  S    
C145  C197  T    
C16   C33   T    
O155  S40   D    
O87   S18   D    
C24   O113  A    
C61   O209  A    
C55   O188  A    
O46   Zn27  S    
H55   O43   S    
C87   C96   T    
O1    Zn16  S    
O195  Zn19  S    
C101  H23   S    
O146  Zn32  S    
C161  C180  S    
O149  S38   D    
O190  Zn15  S    
C35   C141  S    
C39   O171  A    
C65   O211  A    
O186  Zn10  S    
O32   S47   D    
H47   O17   S    
O141  S36   D    
C69   O217  A    
C48   O180  A    
C169  C172  S    
O199  Zn24  S    
H73   O96   S    
O49   S5    D    
O20   S34   S    
C155  C204  S    
C172  C173  S    
C92   C100  T    
C124  S15   S    
O171  Zn14  S    
C140  C193  T    
C119  C122  S    
H65   O73   S    
O209  Zn1   S    
C185  H11   S    
O62   S9    D    
C132  O13   A    
C12   C45   S    
C155  C186  S    
C3    C40   S    
H71   O89   S    
C14   C47   S    
C157  C202  S    
C123  C158  S    
C171  S43   S    
O83   S16   S    
C41   O174  A    
C175  S39   S    
C42   O228  A    
O30   S46   S    
O221  Zn12  S    
C127  C130  S    
O132  S32   D    
C10   C48   S    
C4    C21   T    
O114  S26   S    
O110  S26   D    
H88   O143  S    
O68   Zn12  S    
O109  S25   S    
C6    C23   T    
C1    O238  A    
C52   O185  A    
C43   O176  A    
C141  C194  T    
C23   C25   S    
C110  C159  S    
O128  S31   D    
C131  C167  S    
C152  C176  S    
O139  S35   D    
C116  H37   S    
C11   C29   T    
C112  O2    A    
C106  C155  S    
C150  C154  S    
O52   S6    D    
O176  Zn18  S    
O4    Zn22  S    
O25   S45   D    
C67   C76   S    
C90   C155  S    
C154  O242  A    
C164  C177  S    
O156  S40   S    
C124  C125  S    
C181  H16   S    
C171  H26   S    
