data_mof_unit_pretest_367.cif
_audit_creation_date              2012-12-11T16:27:26-0500
_audit_creation_method            fapswitch 2.2
_symmetry_space_group_name_H-M    P1
_symmetry_Int_Tables_number       1
_space_group_crystal_system       triclinic
_cell_length_a                    21.643629
_cell_length_b                    6.909063
_cell_length_c                    14.775383
_cell_angle_alpha                 90.361436
_cell_angle_beta                  105.61813
_cell_angle_gamma                 90.302114
_cell_volume                      2127.79196416

loop_
_atom_site_label
_atom_site_type_symbol
_atom_type_description
_atom_site_fract_x
_atom_site_fract_y
_atom_site_fract_z
_atom_type_partial_charge
O1    O     O_R   0.835850 0.638310 0.002120 -0.538767
O2    O     O_R   0.164150 0.361690 0.997880 -0.538766
O3    O     O_R   0.664150 0.138310 0.997880 -0.536600
O4    O     O_R   0.335850 0.861690 0.002120 -0.536599
O5    O     O_R   0.717530 0.306070 0.861970 -0.540643
O6    O     O_R   0.282470 0.693930 0.138030 -0.540643
O7    O     O_R   0.782470 0.806070 0.138030 -0.540926
O8    O     O_R   0.217530 0.193930 0.861970 -0.540926
C1    C     C_R   0.705115 0.476119 0.824477 0.686956
C2    C     C_R   0.294885 0.523881 0.175523 0.686956
C3    C     C_R   0.794766 0.978107 0.175431 0.687847
C4    C     C_R   0.205232 0.021893 0.824569 0.687848
O9    O     O_R   0.838690 0.308440 0.993250 -0.537677
O10   O     O_R   0.161310 0.691560 0.006750 -0.537678
O11   O     O_R   0.661310 0.808440 0.006750 -0.540880
O12   O     O_R   0.338690 0.191560 0.993250 -0.540882
O13   O     O_R   0.786170 0.140510 0.130090 -0.539408
O14   O     O_R   0.213830 0.859490 0.869910 -0.539408
O15   O     O_R   0.713830 0.640510 0.869910 -0.539916
O16   O     O_R   0.286170 0.359490 0.130090 -0.539915
C5    C     C_R   0.865313 0.477720 0.998160 0.694622
C6    C     C_R   0.134687 0.522280 0.001840 0.694623
C7    C     C_R   0.634644 0.976904 0.001747 0.692623
C8    C     C_R   0.365356 0.023096 0.998253 0.692623
O17   O     O_3   0.732630 0.472520 0.044740 -0.365634
O18   O     O_3   0.267370 0.527480 0.955260 -0.365635
O19   O     O_3   0.767370 0.972520 0.955260 -0.366249
O20   O     O_3   0.232630 0.027480 0.044740 -0.366248
V1    V     V_3+5 0.753220 0.196740 0.991700 1.459543
V2    V     V_3+5 0.246780 0.803260 0.008300 1.459546
V3    V     V_3+5 0.746780 0.696740 0.008300 1.451778
V4    V     V_3+5 0.253220 0.303260 0.991700 1.451780
H1    H     H_    0.609198 0.823163 0.313911 0.139871
H2    H     H_    0.390801 0.176818 0.686084 0.139853
H3    H     H_    0.884743 0.642539 0.684220 0.138559
H4    H     H_    0.115256 0.357476 0.315781 0.138569
C9    C     C_R   0.536496 0.075776 0.833164 -0.155050
C10   C     C_R   0.463504 0.924222 0.166834 -0.155044
C11   C     C_R   0.966509 0.406672 0.167296 -0.157694
C12   C     C_R   0.033491 0.593336 0.832704 -0.157700
C13   C     C_R   0.490510 0.125229 0.750917 -0.129685
C14   C     C_R   0.509489 0.874761 0.249079 -0.129694
C15   C     C_R   0.014129 0.373157 0.250190 -0.127193
C16   C     C_R   0.985871 0.626856 0.749811 -0.127188
C17   C     C_R   0.426358 0.138902 0.750262 -0.044208
C18   C     C_R   0.573641 0.861086 0.249734 -0.044224
C19   C     C_R   0.078465 0.383638 0.251174 -0.039641
C20   C     C_R   0.921535 0.616374 0.748826 -0.039630
C21   C     C_R   0.407676 0.102854 0.831829 -0.109412
C22   C     C_R   0.592323 0.897142 0.168168 -0.109418
C23   C     C_R   0.095687 0.428326 0.169304 -0.106835
C24   C     C_R   0.904313 0.571680 0.830696 -0.106834
C25   C     C_R   0.453284 0.052920 0.916562 0.062871
C26   C     C_R   0.546716 0.947081 0.083438 0.062874
C27   C     C_R   0.048435 0.463596 0.084115 0.061605
C28   C     C_R   0.951565 0.536407 0.915885 0.061604
C29   C     C_R   0.519082 0.039239 0.917301 0.067373
C30   C     C_R   0.480918 0.960762 0.082699 0.067376
C31   C     C_R   0.982494 0.452233 0.083030 0.064772
C32   C     C_R   0.017506 0.547771 0.916969 0.064772
C33   C     C_R   0.434170 0.013531 0.999233 -0.176520
C34   C     C_R   0.565830 0.986471 0.000767 -0.176518
C35   C     C_R   0.065944 0.511563 0.001114 -0.174338
C36   C     C_R   0.934055 0.488438 0.998885 -0.174339
H5    H     H_    0.585651 0.065109 0.829655 0.115125
H6    H     H_    0.414349 0.934889 0.170344 0.115124
H7    H     H_    0.917158 0.397312 0.170224 0.113373
H8    H     H_    0.082842 0.602698 0.829776 0.113372
H9    H     H_    0.504733 0.152255 0.687246 0.129262
H10   H     H_    0.495265 0.847730 0.312749 0.129263
H11   H     H_    0.000997 0.339265 0.314036 0.129037
H12   H     H_    0.999003 0.660755 0.685966 0.129038
H13   H     H_    0.357120 0.113625 0.827451 0.093620
H14   H     H_    0.642879 0.886370 0.172546 0.093626
H15   H     H_    0.146349 0.435647 0.173652 0.087548
H16   H     H_    0.853651 0.564358 0.826348 0.087544
C37   C     C_R   0.177177 0.008979 0.723089 -0.044848
C38   C     C_R   0.822821 0.991025 0.276911 -0.044853
C39   C     C_R   0.322749 0.520581 0.277288 -0.047445
C40   C     C_R   0.677250 0.479421 0.722712 -0.047443
C41   C     C_R   0.188091 0.941901 0.567867 -0.093550
C42   C     C_R   0.811911 0.058184 0.432128 -0.093541
C43   C     C_R   0.313147 0.584751 0.433537 -0.094349
C44   C     C_R   0.686854 0.415295 0.566460 -0.094346
C45   C     C_R   0.215706 0.966348 0.663802 -0.173208
C46   C     C_R   0.784296 0.033717 0.336194 -0.173219
C47   C     C_R   0.285220 0.568610 0.337318 -0.175613
C48   C     C_R   0.714781 0.431426 0.662679 -0.175619
C49   C     C_R   0.110862 0.027542 0.686584 -0.183711
C50   C     C_R   0.889136 0.972427 0.313417 -0.183701
C51   C     C_R   0.388527 0.488978 0.313512 -0.184100
C52   C     C_R   0.611470 0.510999 0.686491 -0.184102
C53   C     C_R   0.081210 0.001984 0.589280 0.041293
C54   C     C_R   0.918790 0.998032 0.410718 0.041287
C55   C     C_R   0.418705 0.508935 0.411045 0.040511
C56   C     C_R   0.581294 0.491070 0.588956 0.040514
C57   C     C_R   0.121337 0.957431 0.530091 0.005329
C58   C     C_R   0.878665 0.042628 0.469905 0.005329
C59   C     C_R   0.379473 0.557960 0.470919 0.005971
C60   C     C_R   0.620527 0.442071 0.529079 0.005973
C61   C     C_R   0.013325 0.016446 0.549278 -0.036618
C62   C     C_R   0.986676 0.983578 0.450718 -0.036614
C63   C     C_R   0.486361 0.485993 0.450591 -0.036135
C64   C     C_R   0.513638 0.514017 0.549410 -0.036139
C65   C     C_R   0.028754 0.937469 0.395407 -0.256619
C66   C     C_R   0.971249 0.062595 0.604586 -0.256617
C67   C     C_R   0.472366 0.563355 0.605469 -0.256962
C68   C     C_R   0.527634 0.436681 0.394530 -0.256968
C69   C     C_R   0.094539 0.926134 0.434079 0.570606
C70   C     C_R   0.905465 0.073952 0.565914 0.570613
C71   C     C_R   0.406814 0.583554 0.567204 0.569681
C72   C     C_R   0.593187 0.416496 0.432793 0.569674
H17   H     H_    0.915898 0.942456 0.263221 0.100358
H18   H     H_    0.084097 0.057446 0.736782 0.100354
H19   H     H_    0.585293 0.543555 0.737136 0.102017
H20   H     H_    0.414701 0.456378 0.262870 0.102020
H21   H     H_    0.732944 0.050000 0.308046 0.137639
H22   H     H_    0.267058 0.950094 0.691949 0.137628
H23   H     H_    0.765592 0.404056 0.690494 0.144162
H24   H     H_    0.234410 0.595997 0.309502 0.144157
H25   H     H_    0.219126 0.908336 0.523420 0.176820
H26   H     H_    0.780879 0.091791 0.476573 0.176818
H27   H     H_    0.282812 0.622372 0.478461 0.178221
H28   H     H_    0.717190 0.377696 0.521534 0.178220
H29   H     H_    0.012563 0.908527 0.321130 0.160637
H30   H     H_    0.987442 0.091577 0.678859 0.160638
H31   H     H_    0.489055 0.588457 0.680022 0.160382
H32   H     H_    0.510947 0.411607 0.319974 0.160380
F1    F     F_    0.132202 0.881817 0.376719 -0.710829
F2    F     F_    0.867804 0.118324 0.623270 -0.710832
F3    F     F_    0.369965 0.631424 0.625229 -0.708729
F4    F     F_    0.630038 0.368663 0.374765 -0.708731

loop_
_geom_bond_atom_site_label_1
_geom_bond_atom_site_label_2
_ccdc_geom_bond_type
O17   V3    S    
C43   C47   A    
O1    C5    A    
C61   C62   A    
C12   C32   A    
C27   C31   A    
O19   V1    S    
O13   V1    S    
O3    C7    A    
C52   C56   A    
O15   V3    S    
C39   C47   A    
O4    V2    S    
C29   C34   A    
C38   C50   A    
O7    C3    A    
C37   C49   A    
C31   C36   A    
C8    C33   S    
C62   C65   A    
C32   C35   A    
C58   C70   A    
O9    V1    S    
C23   H15   S    
C10   C14   A    
C22   H14   S    
C26   C30   A    
O4    C8    A    
C55   C59   A    
C54   C58   A    
O1    V3    S    
C51   H20   S    
H4    C19   S    
O2    V4    S    
C14   C18   A    
C50   H17   S    
O3    V1    S    
C5    C36   S    
C6    C35   S    
C10   C30   A    
C25   C33   A    
C1    O15   A    
C7    C34   S    
C10   H6    S    
C2    O16   A    
C9    H5    S    
O2    C6    A    
C28   C36   A    
C16   H12   S    
C63   C68   A    
O14   V2    S    
C12   C16   A    
C39   C51   A    
C38   C46   A    
C30   C33   A    
O11   C7    A    
C11   C31   A    
O12   C8    A    
C43   C59   A    
C9    C13   A    
H1    C18   S    
C42   C58   A    
C27   C35   A    
C67   C71   A    
O10   V2    S    
H3    C20   S    
C55   C63   A    
C18   C22   A    
C50   C54   A    
O5    V1    S    
O17   V1    S    
O7    V3    S    
O19   V3    S    
C44   C60   A    
O20   V4    S    
C53   C61   A    
C25   C29   A    
O18   V4    S    
C19   C23   A    
C26   C34   A    
C42   C46   A    
C51   C55   A    
C72   F4    S    
C68   C72   A    
C41   H25   S    
C1    C40   S    
O8    V4    S    
C40   C52   A    
C14   H10   S    
O5    C1    A    
C3    C38   S    
C57   C69   A    
C17   C21   A    
O8    C4    A    
C59   C71   A    
C4    C37   S    
O9    C5    A    
H2    C17   S    
C22   C26   A    
C68   H32   S    
C48   H23   S    
C71   F3    S    
O6    V2    S    
C60   C72   A    
C56   C64   A    
C69   F1    S    
C21   H13   S    
O12   V4    S    
C53   C57   A    
C13   H9    S    
O16   V4    S    
C61   C66   A    
C65   C69   A    
C49   H18   S    
C3    O13   A    
C15   H11   S    
C11   H7    S    
C44   C48   A    
C24   H16   S    
O6    C2    A    
C11   C15   A    
C2    C39   S    
O11   V3    S    
C44   H28   S    
C66   H30   S    
C65   H29   S    
O10   C6    A    
O20   V2    S    
C67   H31   S    
C47   H24   S    
C40   C48   A    
C16   C20   A    
C41   C57   A    
C21   C25   A    
C56   C60   A    
C70   F2    S    
C46   H21   S    
C23   C27   A    
C49   C53   A    
C45   H22   S    
C52   H19   S    
C9    C29   A    
C37   C45   A    
C28   C32   A    
C20   C24   A    
C54   C62   A    
C66   C70   A    
C12   H8    S    
C4    O14   A    
C63   C64   A    
C13   C17   A    
C43   H27   S    
C15   C19   A    
C42   H26   S    
C64   C67   A    
C41   C45   A    
C24   C28   A    
O18   V2    S    
