data_mof_unit_pretest_1034.cif
_audit_creation_date              2012-12-10T17:53:14-0500
_audit_creation_method            fapswitch 2.2
_symmetry_space_group_name_H-M    P1
_symmetry_Int_Tables_number       1
_space_group_crystal_system       triclinic
_cell_length_a                    23.215981
_cell_length_b                    10.63157
_cell_length_c                    9.889564
_cell_angle_alpha                 91.396299
_cell_angle_beta                  89.800641
_cell_angle_gamma                 92.288143
_cell_volume                      2438.28706262

loop_
_atom_site_label
_atom_site_type_symbol
_atom_type_description
_atom_site_fract_x
_atom_site_fract_y
_atom_site_fract_z
_atom_type_partial_charge
C1    C     C_R   0.509235 0.262657 0.498023 0.919540
C2    C     C_R   0.966889 0.314725 0.699197 -0.130790
C3    C     C_R   0.026795 0.320908 0.701743 -0.144357
C4    C     C_R   0.058038 0.365275 0.589859 -0.012062
C5    C     C_R   0.028632 0.400027 0.472765 -0.016414
C6    C     C_R   0.059879 0.442233 0.359531 -0.059877
C7    C     C_R   0.030647 0.473556 0.242348 -0.188626
C8    C     C_R   0.970586 0.469580 0.237895 0.209136
C9    C     C_R   0.118180 0.378547 0.592866 0.515500
C10   C     C_R   0.120012 0.453189 0.366840 0.531492
C11   C     C_R   0.233273 0.564688 0.495314 -0.078056
C12   C     C_R   0.389481 0.498052 0.500177 0.913099
C13   C     C_R   0.292865 0.582764 0.499877 -0.232313
C14   C     C_R   0.327637 0.478467 0.499750 -0.067685
C15   C     C_R   0.302949 0.355418 0.495714 0.074502
C16   C     C_R   0.243339 0.338135 0.491186 -0.095440
C17   C     C_R   0.208586 0.442348 0.490500 0.265460
C18   C     C_R   0.750728 0.365082 0.394738 -0.083341
C19   C     C_R   0.692802 0.392055 0.398387 -0.288145
C20   C     C_R   0.672118 0.476329 0.496745 -0.151206
C21   C     C_R   0.709979 0.534473 0.592049 0.503062
C22   C     C_R   0.768285 0.506730 0.587587 -0.188319
C23   C     C_R   0.505763 0.740580 0.501549 0.894221
C24   C     C_R   0.788759 0.423403 0.488192 0.222306
C25   C     C_R   0.575224 0.145519 0.715948 -0.142626
C26   C     C_R   0.596950 0.085656 0.827321 -0.084593
C27   C     C_R   0.593729 0.955254 0.832447 -0.144586
C28   C     C_R   0.569150 0.884244 0.725700 -0.181805
C29   C     C_R   0.544525 0.942770 0.613977 0.111632
C30   C     C_R   0.547638 0.075400 0.609217 0.072376
C31   C     C_R   0.526523 0.133195 0.492716 -0.178427
C32   C     C_R   0.519656 0.061770 0.371898 0.175797
C33   C     C_R   0.512689 0.934108 0.379499 -0.221625
C34   C     C_R   0.610703 0.498075 0.499570 0.874362
C35   C     C_R   0.519642 0.874485 0.502114 -0.168841
C36   C     C_R   0.420358 0.342840 0.137060 -0.102442
C37   C     C_R   0.380752 0.265938 0.065299 -0.145190
C38   C     C_R   0.381023 0.265011 0.925328 -0.153250
C39   C     C_R   0.420788 0.341199 0.856510 -0.121233
C40   C     C_R   0.460494 0.422921 0.926007 0.159128
C41   C     C_R   0.460362 0.423418 0.070723 0.172521
C42   C     C_R   0.538469 0.571963 0.073312 -0.087688
C43   C     C_R   0.538676 0.571272 0.930167 -0.091319
C44   C     C_R   0.877998 0.441499 0.363368 0.538844
C45   C     C_R   0.877187 0.357118 0.585476 0.523483
C46   C     C_R   0.937158 0.354147 0.585338 -0.008401
C47   C     C_R   0.967951 0.395336 0.470282 -0.051762
C48   C     C_R   0.938335 0.434649 0.354581 -0.085566
H1    H     H_    0.943985 0.281981 0.788074 0.204994
H2    H     H_    0.663885 0.345541 0.325463 0.194652
H3    H     H_    0.797897 0.551831 0.659838 0.177009
H4    H     H_    0.583470 0.246037 0.711603 0.169255
H5    H     H_    0.618184 0.140499 0.907685 0.165508
H6    H     H_    0.612479 0.908634 0.916883 0.150276
H7    H     H_    0.573555 0.784296 0.728824 0.171425
H8    H     H_    0.501669 0.881673 0.287264 0.199213
H9    H     H_    0.569891 0.630701 0.128548 0.149775
H10   H     H_    0.048452 0.292670 0.792309 0.198389
H11   H     H_    0.420310 0.331931 0.243718 0.224278
H12   H     H_    0.350677 0.204400 0.118716 0.182172
H13   H     H_    0.350920 0.203260 0.869512 0.183251
H14   H     H_    0.419717 0.331577 0.749316 0.222585
H15   H     H_    0.570890 0.627875 0.878166 0.155474
H16   H     H_    0.054513 0.502562 0.153322 0.212038
H17   H     H_    0.206212 0.645312 0.494908 0.153675
H18   H     H_    0.311872 0.677551 0.502591 0.159088
H19   H     H_    0.223849 0.243870 0.486956 0.166018
H20   H     H_    0.766289 0.300026 0.318302 0.170797
N1    N     N_R   0.849228 0.404057 0.477653 -0.348937
N2    N     N_R   0.147551 0.423760 0.483113 -0.356024
N3    N     N_R   0.499460 0.498800 0.142780 -0.118805
N4    N     N_R   0.499440 0.498720 0.857170 -0.127516
O1    O     O_R   0.500000 0.316780 0.614690 -0.646177
O2    O     O_2   0.846870 0.315578 0.693422 -0.539397
O3    O     O_2   0.147110 0.348755 0.705077 -0.539755
O4    O     O_2   0.150850 0.493483 0.259153 -0.537082
O5    O     O_R   0.500000 0.316750 0.385360 -0.602504
O6    O     O_R   0.416160 0.499970 0.614690 -0.618878
O7    O     O_R   0.416150 0.499950 0.385360 -0.622219
O8    O     O_R   0.500000 0.683250 0.614640 -0.618325
O9    O     O_R   0.500000 0.683220 0.385310 -0.618819
O10   O     O_R   0.583850 0.500050 0.614640 -0.598533
O11   O     O_R   0.583840 0.500030 0.385310 -0.623248
O12   O     O_2   0.848095 0.489938 0.261906 -0.509414
Zn1   Zn    Zn3+2 0.500000 0.500020 0.653130 0.954760
Zn2   Zn    Zn3+2 0.500000 0.499980 0.346870 0.961953
O13   O     O_3   0.689960 0.615162 0.691668 -0.601139
C49   C     C_3   0.701875 0.740004 0.651949 -0.316169
H21   H     H_    0.676555 0.761755 0.560624 0.155027
H22   H     H_    0.748727 0.759150 0.633720 0.175385
H23   H     H_    0.688945 0.804689 0.735172 0.201644
I1    I     I_    0.525406 0.128538 0.170756 -0.409138
I2    I     I_    0.936116 0.514581 0.045942 -0.252813
I3    I     I_    0.352729 0.192284 0.494092 -0.424224

loop_
_geom_bond_atom_site_label_1
_geom_bond_atom_site_label_2
_ccdc_geom_bond_type
O13   C49   S    
C21   O13   S    
C43   N4    A    
C1    O5    A    
C19   C20   A    
C36   H11   S    
C15   I3    S    
N4    Zn1   S    
C27   H6    S    
C43   H15   S    
C7    C8    A    
C32   I1    S    
C45   C46   A    
C2    C46   A    
C5    C47   A    
C26   C27   A    
C37   C38   A    
C18   C24   A    
C28   C29   A    
C5    C6    A    
C18   H20   S    
C15   C16   A    
C12   O7    A    
C1    C31   S    
C18   C19   A    
C10   O4    S    
C11   C17   A    
C47   C48   A    
C16   C17   A    
C12   O6    A    
C23   O8    A    
C29   C30   A    
C23   O9    A    
O9    Zn2   S    
C41   N3    A    
C38   H13   S    
C20   C34   S    
C33   H8    S    
C17   N2    S    
C21   C22   A    
C36   C41   A    
C42   H9    S    
C28   H7    S    
C24   N1    S    
C13   H18   S    
C38   C39   A    
C45   N1    A    
C9    N2    A    
C39   C40   A    
C25   C26   A    
C45   O2    S    
C8    C48   A    
O8    Zn1   S    
C2    H1    S    
N3    Zn2   S    
C31   C32   A    
C49   H23   S    
C44   N1    A    
C16   H19   S    
C20   C21   A    
O1    Zn1   S    
C10   N2    A    
O6    Zn1   S    
C40   C41   A    
C12   C14   S    
O5    Zn2   S    
C23   C35   S    
C22   C24   A    
C34   O11   A    
C3    C4    A    
C26   H5    S    
C25   C30   A    
C39   H14   S    
C46   C47   A    
C36   C37   A    
C40   N4    A    
C8    I2    S    
C49   H22   S    
C4    C5    A    
C44   O12   S    
C6    C10   A    
C6    C7    A    
O10   Zn1   S    
C9    O3    S    
C29   C35   A    
C1    O1    A    
C32   C33   A    
C2    C3    A    
C25   H4    S    
C11   C13   A    
C19   H2    S    
C30   C31   A    
C42   N3    A    
C33   C35   A    
C7    H16   S    
C37   H12   S    
C3    H10   S    
C44   C48   A    
O11   Zn2   S    
C49   H21   S    
C42   C43   A    
C27   C28   A    
C14   C15   A    
C34   O10   A    
C4    C9    A    
C13   C14   A    
O7    Zn2   S    
C11   H17   S    
C22   H3    S    
