data_mof_unit_pretest_57.cif
_audit_creation_date              2013-03-05T15:45:37-0500
_audit_creation_method            fapswitch 2.2
_symmetry_space_group_name_H-M    P1
_symmetry_Int_Tables_number       1
_space_group_crystal_system       triclinic
_cell_length_a                    25.853461
_cell_length_b                    25.988305
_cell_length_c                    18.304828
_cell_angle_alpha                 90.552188
_cell_angle_beta                  134.94326
_cell_angle_gamma                 90.208252
_cell_volume                      8703.81221048

loop_
_atom_site_label
_atom_site_type_symbol
_atom_site_description
_atom_site_fract_x
_atom_site_fract_y
_atom_site_fract_z
_atom_type_partial_charge
Zn1   Zn    Zn3+2 0.663270 0.706640 0.413250 1.019207
Zn2   Zn    Zn3+2 0.663270 0.293360 0.413250 0.998052
Zn3   Zn    Zn3+2 0.163270 0.206640 0.413250 1.013401
Zn4   Zn    Zn3+2 0.163270 0.793360 0.413250 1.008585
Zn5   Zn    Zn3+2 0.836780 0.706640 0.586750 0.980179
Zn6   Zn    Zn3+2 0.836780 0.293360 0.586750 0.956785
Zn7   Zn    Zn3+2 0.336780 0.206640 0.586750 0.964972
Zn8   Zn    Zn3+2 0.336780 0.793360 0.586750 0.954318
Zn9   Zn    Zn3+2 0.750020 0.793390 0.413240 0.999252
Zn10  Zn    Zn3+2 0.750020 0.206610 0.413240 1.004699
Zn11  Zn    Zn3+2 0.250020 0.293390 0.413240 0.992159
Zn12  Zn    Zn3+2 0.250020 0.706610 0.413240 1.013413
Zn13  Zn    Zn3+2 0.750010 0.793400 0.586760 0.967659
Zn14  Zn    Zn3+2 0.750010 0.206600 0.586760 0.975901
Zn15  Zn    Zn3+2 0.250010 0.293400 0.586760 0.959640
Zn16  Zn    Zn3+2 0.250010 0.706600 0.586760 0.985169
O1    O     O_3   0.750020 0.750020 0.500000 -0.499798
O2    O     O_3   0.750020 0.249980 0.500000 -0.489754
O3    O     O_3   0.250020 0.250020 0.500000 -0.495084
O4    O     O_3   0.250020 0.749980 0.500000 -0.489017
O5    O     O_R   0.835450 0.780390 0.731600 -0.639960
O6    O     O_R   0.835450 0.219610 0.731600 -0.647713
O7    O     O_R   0.335450 0.280390 0.731600 -0.642003
O8    O     O_R   0.335450 0.719610 0.731600 -0.648591
O9    O     O_R   0.603870 0.719650 0.268400 -0.623363
O10   O     O_R   0.603870 0.280350 0.268400 -0.645618
O11   O     O_R   0.103870 0.219650 0.268400 -0.624915
O12   O     O_R   0.103870 0.780350 0.268400 -0.640320
O13   O     O_R   0.810750 0.634210 0.560720 -0.636731
O14   O     O_R   0.810750 0.365790 0.560720 -0.655264
O15   O     O_R   0.310750 0.134210 0.560720 -0.647110
O16   O     O_R   0.310750 0.865790 0.560720 -0.647112
O17   O     O_R   0.750010 0.865820 0.439280 -0.635528
O18   O     O_R   0.750010 0.134180 0.439280 -0.642795
O19   O     O_R   0.250010 0.365820 0.439280 -0.633196
O20   O     O_R   0.250010 0.634180 0.439280 -0.638425
O21   O     O_R   0.896180 0.719650 0.560720 -0.625443
O22   O     O_R   0.896180 0.280350 0.560720 -0.632442
O23   O     O_R   0.396180 0.219650 0.560720 -0.632709
O24   O     O_R   0.396180 0.780350 0.560720 -0.634871
O25   O     O_R   0.664570 0.780390 0.560720 -0.637408
O26   O     O_R   0.664570 0.219610 0.560720 -0.638385
O27   O     O_R   0.164570 0.280390 0.560720 -0.643277
O28   O     O_R   0.164570 0.719610 0.560720 -0.635582
O29   O     O_R   0.835460 0.780370 0.439280 -0.629157
O30   O     O_R   0.835460 0.219630 0.439280 -0.644178
O31   O     O_R   0.335460 0.280370 0.439280 -0.631389
O32   O     O_R   0.335460 0.719630 0.439280 -0.642818
O33   O     O_R   0.603860 0.719660 0.439280 -0.633875
O34   O     O_R   0.603860 0.280340 0.439280 -0.636075
O35   O     O_R   0.103860 0.219660 0.439280 -0.631452
O36   O     O_R   0.103860 0.780340 0.439280 -0.629541
O37   O     O_R   0.689310 0.634210 0.439280 -0.600882
O38   O     O_R   0.689310 0.365790 0.439280 -0.621718
O39   O     O_R   0.189310 0.134210 0.439280 -0.594221
O40   O     O_R   0.189310 0.865790 0.439280 -0.624128
O41   O     O_R   0.750010 0.865830 0.560720 -0.632626
O42   O     O_R   0.750010 0.134170 0.560720 -0.625942
O43   O     O_R   0.250010 0.365830 0.560720 -0.640019
O44   O     O_R   0.250010 0.634170 0.560720 -0.622743
O45   O     O_R   0.896180 0.719660 0.731600 -0.637701
O46   O     O_R   0.896180 0.280340 0.731600 -0.647014
O47   O     O_R   0.396180 0.219660 0.731600 -0.637461
O48   O     O_R   0.396180 0.780340 0.731600 -0.656421
O49   O     O_R   0.664580 0.780370 0.268400 -0.645461
O50   O     O_R   0.664580 0.219630 0.268400 -0.616481
O51   O     O_R   0.164580 0.280370 0.268400 -0.645416
O52   O     O_R   0.164580 0.719630 0.268400 -0.614924
C1    C     C_R   0.890080 0.750358 0.780019 0.762155
C2    C     C_R   0.887394 0.252961 0.779860 0.791165
C3    C     C_R   0.388973 0.249364 0.780113 0.765627
C4    C     C_R   0.387515 0.752867 0.779886 0.778024
C5    C     C_R   0.610616 0.748479 0.219164 0.864891
C6    C     C_R   0.609257 0.248814 0.219943 0.843668
C7    C     C_R   0.110545 0.248539 0.219146 0.858142
C8    C     C_R   0.109323 0.749086 0.219936 0.835108
C9    C     C_R   0.749477 0.609890 0.501442 0.801282
C10   C     C_R   0.750805 0.389827 0.502653 0.764114
C11   C     C_R   0.249427 0.109897 0.501185 0.781936
C12   C     C_R   0.250798 0.889841 0.502765 0.769506
C13   C     C_R   0.750751 0.889971 0.501079 0.760605
C14   C     C_R   0.749956 0.110024 0.499592 0.783327
C15   C     C_R   0.250850 0.389964 0.501201 0.757081
C16   C     C_R   0.249810 0.610011 0.499416 0.801874
C17   C     C_R   0.889899 0.750217 0.500149 0.746649
C18   C     C_R   0.890020 0.250157 0.499855 0.761951
C19   C     C_R   0.389739 0.249988 0.499770 0.754619
C20   C     C_R   0.390179 0.749944 0.500204 0.762198
C21   C     C_R   0.610930 0.749096 0.501861 0.793010
C22   C     C_R   0.609824 0.249527 0.499206 0.776446
C23   C     C_R   0.109273 0.250706 0.498514 0.788643
C24   C     C_R   0.109922 0.749595 0.499442 0.781279
C25   C     C_R   0.649373 0.731323 0.693089 -0.213321
C26   C     C_R   0.516236 0.159141 0.426297 -0.234360
C27   C     C_R   0.032614 0.345334 0.457889 -0.212464
C28   C     C_R   0.007720 0.663081 0.409896 -0.175355
C29   C     C_R   0.667199 0.723435 0.783876 -0.097218
C30   C     C_R   0.471116 0.116092 0.390951 -0.082152
C31   C     C_R   0.997352 0.390677 0.441551 -0.098024
C32   C     C_R   0.956649 0.622869 0.362896 -0.212461
C33   C     C_R   0.612614 0.721855 0.782718 0.029533
C34   C     C_R   0.416673 0.116261 0.390304 0.024434
C35   C     C_R   0.943457 0.390631 0.441883 0.042233
C36   C     C_R   0.900350 0.624255 0.358210 0.026202
C37   C     C_R   0.539933 0.729316 0.689657 -0.259301
C38   C     C_R   0.408025 0.160133 0.425673 -0.247365
C39   C     C_R   0.925006 0.344499 0.458189 -0.265625
C40   C     C_R   0.897047 0.665764 0.404276 -0.125808
C41   C     C_R   0.520879 0.739693 0.597205 0.118410
C42   C     C_R   0.453661 0.204145 0.462668 0.118405
C43   C     C_R   0.962022 0.298270 0.478673 0.114686
C44   C     C_R   0.948626 0.706822 0.452904 0.068741
C45   C     C_R   0.576342 0.739920 0.598869 0.103155
C46   C     C_R   0.508281 0.203555 0.462555 0.085249
C47   C     C_R   0.016355 0.298821 0.478080 0.101682
C48   C     C_R   0.003858 0.705788 0.454050 0.091277
C49   C     C_R   0.556835 0.747314 0.505590 -0.106042
C50   C     C_R   0.552187 0.247964 0.496049 -0.106784
C51   C     C_R   0.051500 0.252475 0.494785 -0.108603
C52   C     C_R   0.052613 0.748132 0.497027 -0.103758
C53   C     C_R   0.484275 0.753951 0.412905 -0.162785
C54   C     C_R   0.541319 0.292369 0.526816 -0.169301
C55   C     C_R   0.032677 0.206491 0.510100 -0.169952
C56   C     C_R   0.046710 0.790649 0.537644 -0.163051
C57   C     C_R   0.429169 0.755814 0.410129 -0.048009
C58   C     C_R   0.488589 0.293556 0.529112 -0.046629
C59   C     C_R   0.980704 0.205250 0.513657 -0.053684
C60   C     C_R   0.993851 0.791833 0.539766 -0.039796
C61   C     C_R   0.447584 0.748686 0.502722 -0.144237
C62   C     C_R   0.444902 0.249116 0.497510 -0.138406
C63   C     C_R   0.945173 0.251341 0.497785 -0.144224
C64   C     C_R   0.945028 0.749521 0.497896 -0.135055
C65   C     C_R   0.482986 0.671241 0.081879 -0.092413
C66   C     C_R   0.453033 0.217881 0.104382 -0.071054
C67   C     C_R   0.983124 0.171147 0.081760 -0.084687
C68   C     C_R   0.963740 0.692900 0.100389 -0.065063
C69   C     C_R   0.413638 0.656308 0.040194 -0.089482
C70   C     C_R   0.377628 0.214095 0.046816 -0.031001
C71   C     C_R   0.913849 0.155962 0.040056 -0.090432
C72   C     C_R   0.896398 0.665421 0.038953 0.016186
C73   C     C_R   0.351456 0.681400 0.952569 -0.083512
C74   C     C_R   0.325703 0.220801 0.940097 -0.088568
C75   C     C_R   0.851525 0.180916 0.952379 -0.100061
C76   C     C_R   0.847477 0.665260 0.931608 -0.128472
C77   C     C_R   0.358031 0.716412 0.902246 -0.187291
C78   C     C_R   0.346731 0.230369 0.889727 -0.233089
C79   C     C_R   0.857913 0.216086 0.902073 -0.191555
C80   C     C_R   0.862626 0.692871 0.884131 -0.277594
C81   C     C_R   0.427793 0.731307 0.946171 0.060450
C82   C     C_R   0.420818 0.237264 0.944854 0.079881
C83   C     C_R   0.927595 0.231286 0.946071 0.058852
C84   C     C_R   0.928844 0.720439 0.942405 0.102341
C85   C     C_R   0.489097 0.717208 0.047670 0.083532
C86   C     C_R   0.475312 0.233033 0.054406 0.086815
C87   C     C_R   0.988995 0.217242 0.047583 0.083779
C88   C     C_R   0.981798 0.719886 0.052368 0.050897
C89   C     C_R   0.554391 0.746897 0.105544 -0.037813
C90   C     C_R   0.549557 0.243470 0.108028 -0.042673
C91   C     C_R   0.054119 0.247162 0.105507 -0.040201
C92   C     C_R   0.050164 0.746011 0.107772 -0.061833
C93   C     C_R   0.561861 0.780274 0.053592 -0.173457
C94   C     C_R   0.568495 0.251013 0.053849 -0.199456
C95   C     C_R   0.061193 0.281004 0.053645 -0.174506
C96   C     C_R   0.063554 0.771208 0.055256 -0.171732
C97   C     C_R   0.506477 0.783289 0.946948 -0.213462
C98   C     C_R   0.515465 0.251873 0.947422 -0.190790
C99   C     C_R   0.005773 0.284078 0.947011 -0.192415
C100  C     C_R   0.010638 0.772492 0.948689 -0.185243
C101  C     C_R   0.439544 0.757790 0.892016 -0.088469
C102  C     C_R   0.441923 0.246722 0.892494 -0.057513
C103  C     C_R   0.939174 0.258065 0.891969 -0.096272
C104  C     C_R   0.943463 0.747948 0.892143 -0.037459
C105  C     C_R   0.869313 0.948703 0.685603 -0.274093
C106  C     C_R   0.870703 0.055544 0.682817 -0.268757
C107  C     C_R   0.369147 0.448814 0.685953 -0.278160
C108  C     C_R   0.370479 0.555646 0.682836 -0.274257
C109  C     C_R   0.927064 0.976075 0.776501 0.010419
C110  C     C_R   0.928842 0.030405 0.774280 0.007223
C111  C     C_R   0.426847 0.476265 0.776798 0.009603
C112  C     C_R   0.428629 0.530584 0.774381 0.008674
C113  C     C_R   0.810419 0.028136 0.592290 0.122555
C114  C     C_R   0.809962 0.973957 0.593410 0.122295
C115  C     C_R   0.310270 0.528173 0.592340 0.120464
C116  C     C_R   0.309870 0.473995 0.593587 0.122585
C117  C     C_R   0.751027 0.946159 0.502026 -0.147049
C118  C     C_R   0.751498 0.053851 0.500324 -0.153154
C119  C     C_R   0.251068 0.446139 0.502156 -0.147913
C120  C     C_R   0.251496 0.553825 0.500182 -0.160213
C121  C     C_R   0.692889 0.971835 0.409802 -0.081580
C122  C     C_R   0.692253 0.026053 0.409749 -0.108618
C123  C     C_R   0.193074 0.471737 0.409763 -0.085272
C124  C     C_R   0.192645 0.525940 0.409376 -0.108748
C125  C     C_R   0.832200 0.554879 0.694360 -0.272191
C126  C     C_R   0.833805 0.448001 0.695059 -0.281070
C127  C     C_R   0.329811 0.055146 0.693281 -0.266604
C128  C     C_R   0.333278 0.948298 0.695070 -0.279400
H1    H     H_    0.828856 0.596269 0.695979 0.138037
H2    H     H_    0.834010 0.406510 0.698024 0.146333
H3    H     H_    0.325628 0.096491 0.694122 0.140206
H4    H     H_    0.334365 0.906803 0.698435 0.146123
C129  C     C_R   0.873601 0.529464 0.788220 0.012124
C130  C     C_R   0.875887 0.475123 0.788891 0.003720
C131  C     C_R   0.370336 0.029942 0.787114 0.004908
C132  C     C_R   0.373981 0.975627 0.788470 0.002586
C133  C     C_R   0.793292 0.473419 0.600249 0.119997
C134  C     C_R   0.792525 0.527712 0.599976 0.104350
C135  C     C_R   0.292835 0.973556 0.600130 0.117404
C136  C     C_R   0.291592 0.027835 0.599521 0.109668
C137  C     C_R   0.748222 0.553433 0.504578 -0.127309
C138  C     C_R   0.752518 0.445819 0.505522 -0.140891
C139  C     C_R   0.247960 0.053467 0.504232 -0.130865
C140  C     C_R   0.252431 0.945859 0.505543 -0.133263
C141  C     C_R   0.703061 0.524956 0.410936 -0.061347
C142  C     C_R   0.708952 0.471486 0.411066 -0.112208
C143  C     C_R   0.202987 0.024961 0.410679 -0.086068
C144  C     C_R   0.208709 0.971467 0.410956 -0.106862
H5    H     H_    0.471252 0.759796 0.342791 0.194268
H6    H     H_    0.575805 0.325935 0.551638 0.190333
H7    H     H_    0.061096 0.171642 0.523263 0.197385
H8    H     H_    0.084799 0.822702 0.569599 0.186346
H9    H     H_    0.297490 0.671285 0.918769 0.195527
H10   H     H_    0.267863 0.216768 0.894017 0.191934
H11   H     H_    0.797610 0.170592 0.918547 0.192228
H12   H     H_    0.796323 0.643851 0.883263 0.190073
H13   H     H_    0.308682 0.732528 0.830803 0.170720
H14   H     H_    0.303573 0.231977 0.806566 0.162988
H15   H     H_    0.808476 0.232117 0.830615 0.169417
H16   H     H_    0.822073 0.691535 0.800625 0.126178
H17   H     H_    0.516184 0.805453 0.907670 0.182855
H18   H     H_    0.531813 0.258359 0.907603 0.157949
H19   H     H_    0.015224 0.306647 0.907813 0.187899
H20   H     H_    0.022082 0.792914 0.909932 0.144001
C145  C     C_2   0.633119 0.941276 0.313962 0.563016
H21   H     H_    0.614759 0.904982 0.318626 0.019555
O53   O     O_2   0.605904 0.955306 0.229575 -0.485014
C146  C     C_2   0.627660 0.054134 0.317637 0.552040
H22   H     H_    0.634895 0.087648 0.290750 0.122275
O54   O     O_2   0.565730 0.040752 0.272753 -0.492843
C147  C     C_2   0.133149 0.441086 0.314150 0.553062
H23   H     H_    0.114524 0.405048 0.319150 0.007795
O55   O     O_2   0.106101 0.454722 0.229651 -0.487328
C148  C     C_2   0.128760 0.553886 0.316296 0.566591
H24   H     H_    0.136843 0.586331 0.288388 0.119998
O56   O     O_2   0.066536 0.541486 0.271502 -0.513417
H25   H     H_    0.870984 0.907152 0.688825 0.137552
H26   H     H_    0.874329 0.097038 0.682798 0.133981
H27   H     H_    0.370826 0.407268 0.689327 0.140568
H28   H     H_    0.374126 0.597131 0.682678 0.131792
C149  C     C_2   0.981826 0.945810 0.871510 0.515093
H29   H     H_    0.991516 0.906110 0.865371 0.024160
O57   O     O_2   0.013259 0.963418 0.956567 -0.488584
C150  C     C_2   0.990963 0.062901 0.862697 0.492401
H30   H     H_    0.981584 0.102557 0.869619 0.043043
O58   O     O_2   0.053445 0.047108 0.925033 -0.484621
C151  C     C_2   0.481584 0.446107 0.871964 0.507199
H31   H     H_    0.491291 0.406375 0.866036 0.026882
O59   O     O_2   0.512991 0.463853 0.956923 -0.486158
C152  C     C_2   0.490806 0.563143 0.862610 0.483274
H32   H     H_    0.481480 0.602860 0.869317 0.037908
O60   O     O_2   0.553278 0.547330 0.924991 -0.485487
C153  C     C_2   0.646038 0.550524 0.312423 0.561531
H33   H     H_    0.651631 0.555353 0.259504 0.125022
O61   O     O_2   0.590502 0.563474 0.288658 -0.577220
C154  C     C_2   0.671843 0.441758 0.313596 0.474404
H34   H     H_    0.697460 0.407724 0.316545 0.031630
O62   O     O_2   0.612197 0.453764 0.230299 -0.515450
C155  C     C_2   0.146134 0.050524 0.312098 0.551051
H35   H     H_    0.151677 0.055026 0.259057 0.090903
O63   O     O_2   0.090714 0.063800 0.288363 -0.564662
C156  C     C_2   0.171087 0.941665 0.313377 0.471539
H36   H     H_    0.196714 0.907776 0.315888 0.043816
O64   O     O_2   0.110914 0.953394 0.230548 -0.513951
C157  C     C_2   0.909691 0.561658 0.881452 0.483857
H37   H     H_    0.927468 0.600571 0.886421 0.055167
O65   O     O_2   0.916256 0.546506 0.950539 -0.483624
C158  C     C_2   0.922838 0.444526 0.884632 0.503042
H38   H     H_    0.908054 0.404812 0.881477 0.026931
O66   O     O_2   0.980330 0.461891 0.966244 -0.469369
C159  C     C_2   0.403428 0.062318 0.879061 0.499921
H39   H     H_    0.417430 0.102310 0.882379 0.042267
O67   O     O_2   0.411369 0.046048 0.948762 -0.471044
C160  C     C_2   0.420882 0.945309 0.884520 0.508502
H40   H     H_    0.406478 0.905512 0.881624 0.031189
O68   O     O_2   0.478034 0.963009 0.966129 -0.467205
H41   H     H_    0.693460 0.730109 0.697867 0.150111
H42   H     H_    0.556720 0.157400 0.423695 0.167264
H43   H     H_    0.072126 0.347262 0.453483 0.150314
H44   H     H_    0.049550 0.660673 0.410044 0.175999
H45   H     H_    0.723761 0.718051 0.855065 0.181481
H46   H     H_    0.478598 0.082734 0.363432 0.205387
H47   H     H_    0.011779 0.425731 0.427466 0.182558
H48   H     H_    0.960616 0.590818 0.328837 0.171387
C161  C     C_2   0.905736 0.438467 0.425234 0.421992
H49   H     H_    0.861811 0.437381 0.421290 0.054087
O69   O     O_2   0.923690 0.479722 0.416798 -0.586742
C162  C     C_2   0.844596 0.582482 0.303277 0.526417
H50   H     H_    0.846230 0.552028 0.263960 0.107344
O70   O     O_2   0.796176 0.581525 0.300886 -0.568207
C163  C     C_2   0.630405 0.712097 0.877930 0.445504
H51   H     H_    0.587220 0.711195 0.875526 0.052834
O71   O     O_2   0.693272 0.704960 0.960063 -0.529684
C164  C     C_2   0.367921 0.071044 0.352342 0.451208
H52   H     H_    0.325970 0.071932 0.352424 0.048139
O72   O     O_2   0.373892 0.032309 0.320600 -0.533547
H53   H     H_    0.498758 0.726267 0.690718 0.137124
H54   H     H_    0.364702 0.159596 0.422691 0.133973
H55   H     H_    0.881193 0.345438 0.454042 0.136771
H56   H     H_    0.853037 0.666202 0.399851 0.167129
C165  C     C_2   0.353346 0.767519 0.310625 0.466041
H57   H     H_    0.311322 0.776889 0.308165 0.051833
O73   O     O_2   0.336847 0.767330 0.229498 -0.550505
C166  C     C_2   0.481439 0.340982 0.567711 0.447095
H58   H     H_    0.445205 0.341779 0.578400 0.049710
O74   O     O_2   0.516486 0.380036 0.588772 -0.550619
C167  C     C_2   0.966824 0.155935 0.538758 0.469866
H59   H     H_    0.934955 0.154930 0.556854 0.057030
O75   O     O_2   0.991612 0.115496 0.540549 -0.535657
C168  C     C_2   0.991131 0.837101 0.587515 0.454322
H60   H     H_    0.952653 0.838119 0.594148 0.041851
O76   O     O_2   0.032256 0.874069 0.620591 -0.540938
H61   H     H_    0.611466 0.802725 0.094854 0.192772
H62   H     H_    0.624996 0.257665 0.094634 0.156705
H63   H     H_    0.110555 0.303772 0.094954 0.193383
H64   H     H_    0.115371 0.790823 0.097511 0.152030
C169  C     C_2   0.537582 0.630650 0.122846 0.449650
H65   H     H_    0.522040 0.590730 0.115329 0.102026
O77   O     O_2   0.597436 0.640347 0.156079 -0.563658
C170  C     C_2   0.505926 0.200491 0.212634 0.368682
H66   H     H_    0.507009 0.218123 0.267615 0.051488
O78   O     O_2   0.546792 0.164979 0.239903 -0.582686
C171  C     C_2   0.037863 0.130708 0.122586 0.449452
H67   H     H_    0.022486 0.090749 0.115030 0.103858
O79   O     O_2   0.097638 0.140575 0.155730 -0.586377
C172  C     C_2   0.011778 0.694089 0.213122 0.297777
H68   H     H_    0.003435 0.722746 0.247349 0.091681
O80   O     O_2   0.059475 0.662234 0.267646 -0.599574
C173  C     C_2   0.405869 0.614152 0.086082 0.435533
H69   H     H_    0.453892 0.597667 0.158666 0.122565
O81   O     O_2   0.345700 0.597689 0.043976 -0.525767
C174  C     C_2   0.351727 0.200647 0.095816 0.446435
H70   H     H_    0.389894 0.193347 0.177701 0.054788
O82   O     O_2   0.286545 0.197534 0.044747 -0.537885
C175  C     C_2   0.906302 0.113693 0.085985 0.427005
H71   H     H_    0.954402 0.097321 0.158633 0.126663
O83   O     O_2   0.846222 0.097018 0.043852 -0.530768
C176  C     C_2   0.876160 0.636405 0.085804 0.506900
H72   H     H_    0.913227 0.634747 0.168760 0.059517
O84   O     O_2   0.817372 0.613811 0.031951 -0.525564

loop_
_geom_bond_atom_site_label_1
_geom_bond_atom_site_label_2
_geom_bond_distance
_ccdc_geom_bond_type
C31   C35   1.397680 A    
C151  O59   1.220634 D    
C65   C69   1.415553 A    
Zn5   O21   1.932050 S    
C74   C78   1.385292 A    
C34   C164  1.479337 S    
O23   C19   1.284330 A    
C68   C72   1.419547 A    
C96   H64   1.084551 S    
C173  H69   1.083777 S    
C67   C71   1.415481 A    
C160  H40   1.086010 S    
C163  O71   1.221326 D    
C19   C62   1.455928 S    
C86   C90   1.432027 A    
O42   C14   1.276734 A    
C27   C31   1.392325 A    
C127  C131  1.400401 A    
C32   C36   1.396898 A    
C125  C129  1.400940 A    
C56   H8    1.084707 S    
O46   C2    1.277771 A    
C13   C117  1.460114 S    
C81   C85   1.398281 A    
C78   C82   1.408004 A    
O34   C22   1.283420 A    
C84   C88   1.426012 A    
C69   C173  1.483441 S    
C148  O56   1.221341 D    
Zn3   O3    1.933423 S    
C83   C87   1.398498 A    
C128  C132  1.401484 A    
Zn16  O28   1.934384 S    
O28   C24   1.283516 A    
C73   C77   1.393400 A    
C107  H27   1.081331 S    
Zn4   O40   1.934878 S    
C97   H17   1.083299 S    
O11   C7    1.279936 A    
C72   C176  1.490451 S    
C97   C101  1.401849 A    
C149  O57   1.220609 D    
C123  C124  1.408767 A    
C96   C100  1.381727 A    
C174  H70   1.083317 S    
C99   C103  1.401542 A    
C141  C142  1.398299 A    
C77   H13   1.081931 S    
C137  C141  1.410966 A    
C71   C175  1.483106 S    
C114  C117  1.417545 A    
C118  C122  1.413453 A    
C11   C139  1.469492 S    
C115  C116  1.408534 A    
O16   C12   1.270919 A    
Zn16  O4    1.956575 S    
Zn12  O4    1.938564 S    
C3    C102  1.461248 S    
Zn13  O5    1.942044 S    
Zn2   O10   1.931090 S    
C162  H50   1.085525 S    
Zn6   O14   1.948480 S    
O47   C3    1.280953 A    
C105  C114  1.415401 A    
Zn7   O3    1.960736 S    
C156  O64   1.221403 D    
C57   C165  1.491101 S    
C92   C96   1.397635 A    
C55   C59   1.390704 A    
C106  H26   1.082126 S    
C70   C174  1.492643 S    
O43   C15   1.275657 A    
C51   C55   1.392288 A    
C95   H63   1.083086 S    
O24   C20   1.270825 A    
Zn11  O19   1.937337 S    
C32   H48   1.083484 S    
C115  C120  1.416559 A    
C82   C102  1.420991 A    
Zn10  O2    1.938564 S    
C29   H45   1.081140 S    
C159  O67   1.220544 D    
Zn9   O49   1.930357 S    
Zn4   O4    1.960586 S    
C57   C61   1.414336 A    
C40   H56   1.082214 S    
C141  C153  1.463221 S    
C58   C62   1.413771 A    
C28   C48   1.411597 A    
C35   C39   1.399235 A    
Zn8   O24   1.932396 S    
C93   C97   1.386300 A    
C73   H9    1.083110 S    
C150  H30   1.086132 S    
O25   C21   1.268615 A    
C152  O60   1.220507 D    
C80   H16   1.082347 S    
C108  H28   1.082097 S    
Zn12  O52   1.942094 S    
C149  H29   1.085957 S    
O22   C18   1.270384 A    
C81   C101  1.409163 A    
C33   C163  1.479924 S    
C153  H33   1.084036 S    
C84   C104  1.415051 A    
Zn13  O41   1.946197 S    
O50   C6    1.279139 A    
C5    C89   1.472036 S    
C83   C103  1.408997 A    
C166  H58   1.084097 S    
Zn16  O44   1.937291 S    
C169  O77   1.221651 D    
Zn1   O37   1.948526 S    
C168  O76   1.221446 D    
Zn2   O34   1.932347 S    
C71   C75   1.402402 A    
C38   H54   1.082219 S    
C127  C136  1.414633 A    
C146  O54   1.221249 D    
C154  H34   1.085603 S    
Zn6   O22   1.932396 S    
C121  C145  1.493469 S    
C145  H21   1.085275 S    
C10   C138  1.454965 S    
C58   C166  1.490578 S    
C12   C140  1.455630 S    
C111  C151  1.484246 S    
C94   H62   1.084421 S    
C121  C122  1.409186 A    
C20   C61   1.452423 S    
C127  H3    1.081364 S    
Zn10  O50   1.942094 S    
C164  O72   1.221204 D    
C33   C37   1.398920 A    
C87   C91   1.419891 A    
C88   C92   1.434939 A    
C79   H15   1.081904 S    
C172  H68   1.084802 S    
C65   C169  1.482593 S    
C48   C52   1.411022 A    
O5    C1    1.281510 A    
O26   C22   1.284101 A    
O31   C19   1.283888 A    
C79   C83   1.410315 A    
C53   C57   1.390290 A    
C161  H49   1.086062 S    
C171  O79   1.221301 D    
C176  O84   1.221535 D    
Zn5   O45   1.931131 S    
C147  O55   1.221160 D    
Zn7   O47   1.931131 S    
Zn8   O48   1.942011 S    
C45   C49   1.413186 A    
C43   C63   1.421004 A    
C21   C49   1.448167 S    
C98   C102  1.392321 A    
C47   C51   1.411490 A    
C175  O83   1.221247 D    
C41   C61   1.420350 A    
C23   C51   1.447154 S    
O51   C7    1.283170 A    
C25   C29   1.393314 A    
C44   C48   1.413554 A    
O8    C4    1.279083 A    
C130  C158  1.485082 S    
C126  C133  1.415724 A    
C55   H7    1.084938 S    
Zn7   O23   1.932050 S    
C39   C43   1.417709 A    
C80   C84   1.406524 A    
C170  H66   1.083910 S    
C113  C118  1.416710 A    
C117  C121  1.413662 A    
O52   C8    1.282337 A    
C60   C168  1.490119 S    
O40   C12   1.279457 A    
C116  C119  1.417821 A    
Zn13  O1    1.938858 S    
O29   C17   1.282851 A    
C120  C124  1.413764 A    
C4    C101  1.460022 S    
Zn14  O6    1.930316 S    
Zn3   O11   1.941962 S    
C152  H32   1.086169 S    
C24   C52   1.451080 S    
Zn15  O27   1.929967 S    
C25   H41   1.080412 S    
C126  H2    1.080004 S    
C133  C138  1.421433 A    
C27   H43   1.081022 S    
C28   C32   1.394045 A    
C157  O65   1.220663 D    
O9    C5    1.279896 A    
C2    C103  1.460536 S    
O41   C13   1.276122 A    
C108  C112  1.400479 A    
O13   C9    1.279584 A    
C158  H38   1.086024 S    
C129  C157  1.483297 S    
O18   C14   1.276103 A    
O6    C2    1.278987 A    
C66   C170  1.481278 S    
Zn9   O29   1.934428 S    
Zn11  O31   1.934428 S    
C147  H23   1.085379 S    
Zn12  O32   1.930008 S    
Zn13  O25   1.929967 S    
C113  C114  1.408501 A    
Zn15  O3    1.938858 S    
Zn11  O3    1.956280 S    
C14   C118  1.460475 S    
C22   C50   1.450252 S    
C142  C154  1.500094 S    
C30   H46   1.083145 S    
C174  O82   1.221539 D    
Zn5   O1    1.960736 S    
C26   C30   1.393284 A    
C7    C91   1.472188 S    
C126  C130  1.400568 A    
C37   C41   1.418215 A    
O35   C23   1.270500 A    
C94   C98   1.379469 A    
C131  C159  1.485184 S    
C159  H39   1.086239 S    
O32   C20   1.269507 A    
C106  C110  1.400711 A    
C128  H4    1.080074 S    
C56   C60   1.394764 A    
C112  C152  1.484662 S    
C162  O70   1.221451 D    
C167  H59   1.083912 S    
C98   H18   1.084136 S    
Zn9   O17   1.937337 S    
C53   H5    1.084994 S    
C173  O81   1.221411 D    
C35   C161  1.478381 S    
Zn14  O42   1.937291 S    
C124  C148  1.488350 S    
C6    C90   1.457407 S    
C135  C136  1.411074 A    
O7    C3    1.280359 A    
C70   C74   1.397091 A    
Zn3   O35   1.932694 S    
C78   H14   1.079757 S    
C39   H55   1.080801 S    
C165  H57   1.083864 S    
C40   C44   1.415430 A    
O37   C9    1.278361 A    
C163  H51   1.086011 S    
O39   C11   1.277350 A    
C155  H35   1.084212 S    
C109  C149  1.484398 S    
C148  H24   1.083266 S    
C25   C45   1.413930 A    
C44   C64   1.417613 A    
O15   C11   1.280174 A    
C59   C167  1.491109 S    
Zn2   O38   1.934878 S    
O36   C24   1.284442 A    
C122  C146  1.489538 S    
O12   C8    1.276972 A    
C89   C93   1.402926 A    
C36   C40   1.402457 A    
C150  O58   1.220489 D    
C105  H25   1.081357 S    
C69   C73   1.402549 A    
O19   C15   1.276839 A    
Zn15  O43   1.946197 S    
C72   C76   1.396166 A    
C143  C155  1.463220 S    
C36   C162  1.478933 S    
Zn6   O46   1.942011 S    
C59   C63   1.414454 A    
C171  H67   1.082657 S    
C30   C34   1.399234 A    
C75   H11   1.083028 S    
C155  O63   1.219728 D    
C66   C86   1.439922 A    
C136  C139  1.416555 A    
C132  C160  1.484578 S    
C28   H44   1.081569 S    
C166  O74   1.221473 D    
C42   C62   1.419706 A    
C143  C144  1.398275 A    
C85   C89   1.419656 A    
C169  H65   1.082946 S    
C111  C112  1.414383 A    
C100  C104  1.390658 A    
C154  O62   1.221035 D    
C109  C110  1.414426 A    
C156  H36   1.085703 S    
C1    C104  1.456804 S    
C77   C81   1.410461 A    
C107  C116  1.415409 A    
O38   C10   1.279346 A    
C108  C115  1.415253 A    
C139  C143  1.410498 A    
C175  H71   1.083627 S    
Zn2   O2    1.960586 S    
C129  C130  1.413498 A    
Zn14  O2    1.956575 S    
C76   C80   1.383629 A    
C26   C46   1.412404 A    
C67   C87   1.413061 A    
C26   H42   1.081919 S    
C133  C134  1.411199 A    
C146  H22   1.083022 S    
C75   C79   1.393053 A    
Zn8   O4    1.933574 S    
Zn4   O36   1.932347 S    
C65   C85   1.413142 A    
O21   C17   1.284640 A    
C17   C64   1.454877 S    
C50   C54   1.393304 A    
C68   C88   1.439362 A    
C172  O80   1.219266 D    
C18   C63   1.453128 S    
C100  H20   1.084076 S    
O49   C5    1.283112 A    
C49   C53   1.392385 A    
C140  C144  1.407491 A    
C27   C47   1.413817 A    
Zn10  O30   1.930008 S    
Zn12  O20   1.946241 S    
C119  C123  1.413257 A    
C9    C137  1.470038 S    
Zn14  O26   1.934384 S    
Zn15  O7    1.942044 S    
C93   H61   1.083146 S    
Zn16  O8    1.930316 S    
Zn1   O9    1.941962 S    
C15   C119  1.459785 S    
Zn3   O39   1.948526 S    
C31   H47   1.083251 S    
C60   C64   1.413051 A    
C106  C113  1.415169 A    
C144  C156  1.499882 S    
Zn4   O12   1.931090 S    
Zn11  O51   1.930357 S    
Zn5   O13   1.934834 S    
C123  C147  1.493727 S    
Zn6   O2    1.933574 S    
C167  O75   1.221506 D    
Zn7   O15   1.934834 S    
Zn8   O16   1.948480 S    
C170  O78   1.219851 D    
C153  O61   1.219783 D    
C107  C111  1.401510 A    
C138  C142  1.406903 A    
O27   C23   1.269114 A    
C54   C58   1.393694 A    
C95   C99   1.386329 A    
C168  H60   1.084338 S    
C105  C109  1.401227 A    
C157  H37   1.085340 S    
Zn10  O18   1.946241 S    
C68   C172  1.476266 S    
C145  O53   1.221169 D    
C46   C50   1.410658 A    
C160  O68   1.220553 D    
Zn9   O1    1.956280 S    
C158  O66   1.220522 D    
C135  C140  1.422079 A    
C91   C95   1.402980 A    
C151  H31   1.085895 S    
C38   C42   1.416097 A    
O45   C1    1.277357 A    
C42   C46   1.413714 A    
C164  H52   1.085980 S    
C8    C92   1.456174 S    
C67   C171  1.482399 S    
C125  C134  1.415282 A    
C54   H6    1.084771 S    
O33   C21   1.271669 A    
C66   C70   1.419457 A    
C99   H19   1.083179 S    
C41   C45   1.412540 A    
C128  C135  1.415650 A    
C161  O69   1.220509 D    
O44   C16   1.277352 A    
C134  C137  1.417871 A    
C176  H72   1.082447 S    
C165  O73   1.221538 D    
Zn1   O33   1.932694 S    
O20   C16   1.275778 A    
C125  H1    1.081225 S    
O10   C6    1.280313 A    
C34   C38   1.400445 A    
O48   C4    1.277453 A    
C76   H12   1.083230 S    
C16   C120  1.460900 S    
C90   C94   1.396702 A    
O14   C10   1.270576 A    
C110  C150  1.484403 S    
Zn1   O1    1.933423 S    
C82   C86   1.425546 A    
C43   C47   1.412414 A    
C131  C132  1.414318 A    
O17   C13   1.276539 A    
C74   H10   1.083392 S    
C29   C33   1.396761 A    
C52   C56   1.393785 A    
C37   H53   1.080947 S    
O30   C18   1.270339 A    
