data_mof_unit_pretest_1280.cif
_audit_creation_date              2012-12-10T17:43:33-0500
_audit_creation_method            fapswitch 2.2
_symmetry_space_group_name_H-M    P1
_symmetry_Int_Tables_number       1
_space_group_crystal_system       triclinic
_cell_length_a                    14.976154
_cell_length_b                    10.725516
_cell_length_c                    9.926011
_cell_angle_alpha                 87.36534
_cell_angle_beta                  89.346267
_cell_angle_gamma                 92.742225
_cell_volume                      1590.72802122

loop_
_atom_site_label
_atom_site_type_symbol
_atom_type_description
_atom_site_fract_x
_atom_site_fract_y
_atom_site_fract_z
_atom_type_partial_charge
C1    C     C_R   0.500506 0.259172 0.503931 0.861230
C2    C     C_R   0.184140 0.431991 0.606009 -0.264069
C3    C     C_R   0.231535 0.497792 0.501653 -0.059416
C4    C     C_R   0.327038 0.499758 0.500634 0.852639
C5    C     C_R   0.187969 0.559311 0.396445 -0.259607
C6    C     C_R   0.450870 0.094326 0.756602 -0.206805
C7    C     C_R   0.405475 0.020622 0.857361 -0.166505
C8    C     C_R   0.370230 0.902849 0.829556 -0.135084
C9    C     C_R   0.387972 0.854216 0.705214 -0.147498
C10   C     C_R   0.441278 0.923982 0.606923 0.097020
C11   C     C_R   0.463182 0.050503 0.625267 0.094278
C12   C     C_R   0.909714 0.551622 0.396630 0.114746
C13   C     C_R   0.498149 0.124341 0.511540 -0.114641
C14   C     C_R   0.521508 0.068347 0.392359 -0.234074
C15   C     C_R   0.512836 0.941621 0.384311 -0.214209
C16   C     C_R   0.491627 0.738329 0.497434 0.892930
C17   C     C_R   0.476812 0.869197 0.493061 -0.134390
C18   C     C_R   0.372802 0.347895 0.149015 -0.131144
C19   C     C_R   0.307369 0.278295 0.083122 -0.201427
C20   C     C_R   0.306450 0.280748 0.943601 -0.213810
C21   C     C_R   0.371817 0.351288 0.869472 -0.177198
C22   C     C_R   0.436167 0.427664 0.932470 0.159316
C23   C     C_R   0.950842 0.352531 0.706813 -0.211488
C24   C     C_R   0.436296 0.427092 0.076914 0.132892
C25   C     C_R   0.564086 0.565251 0.064993 -0.011346
C26   C     C_R   0.562688 0.565769 0.922314 -0.153612
C27   C     C_R   0.672904 0.495459 0.499968 0.911279
C28   C     C_R   0.817687 0.551656 0.398414 -0.260667
C29   C     C_R   0.768558 0.485989 0.500709 -0.131022
C30   C     C_R   0.810858 0.415776 0.603529 -0.070428
C31   C     C_R   0.904633 0.417444 0.604723 0.073381
C32   C     C_R   0.953617 0.486030 0.500723 0.042239
C33   C     C_2   0.641082 0.632124 0.124338 0.929234
C34   C     C_R   0.043575 0.357854 0.707536 -0.217666
C35   C     C_R   0.757608 0.337378 0.705470 0.119216
C36   C     C_R   0.722558 0.219006 0.673168 -0.151001
C37   C     C_R   0.675020 0.143393 0.770436 -0.122839
C38   C     C_R   0.661035 0.186268 0.899551 -0.138640
C39   C     C_R   0.695329 0.304427 0.932010 -0.126777
C40   C     C_R   0.743911 0.379739 0.835541 -0.104620
C41   C     C_R   0.091651 0.426244 0.605484 0.123237
C42   C     C_R   0.046851 0.489500 0.500623 0.067458
C43   C     C_R   0.095492 0.556631 0.395726 0.117609
C44   C     C_R   0.051086 0.620013 0.292237 -0.222754
C45   C     C_R   0.958363 0.617956 0.293003 -0.197412
H1    H     H_    0.784100 0.605890 0.321683 0.193676
H2    H     H_    0.373491 0.338270 0.763714 0.200193
H3    H     H_    0.613611 0.619090 0.862931 0.168461
H4    H     H_    0.916082 0.298107 0.787429 0.164061
H5    H     H_    0.077719 0.308283 0.787823 0.147698
H6    H     H_    0.219230 0.383191 0.685723 0.149605
H7    H     H_    0.226156 0.610369 0.316392 0.158093
H8    H     H_    0.088018 0.671629 0.211468 0.149415
H9    H     H_    0.924657 0.668253 0.212797 0.168686
H10   H     H_    0.549134 0.122391 0.305361 0.171870
H11   H     H_    0.686632 0.768257 0.242788 0.314872
H12   H     H_    0.480800 0.180517 0.788446 0.190395
H13   H     H_    0.732750 0.185097 0.573318 0.124719
H14   H     H_    0.648759 0.051664 0.745580 0.146410
H15   H     H_    0.623555 0.127968 0.974350 0.132270
H16   H     H_    0.684516 0.337429 0.032028 0.153101
H17   H     H_    0.770808 0.470817 0.861720 0.163313
H18   H     H_    0.397545 0.055117 0.957333 0.157297
H19   H     H_    0.332227 0.847245 0.906030 0.138332
H20   H     H_    0.360778 0.761248 0.687103 0.155297
H21   H     H_    0.537230 0.900471 0.294440 0.213436
H22   H     H_    0.373105 0.333986 0.255867 0.203722
H23   H     H_    0.258828 0.219072 0.140770 0.151519
H24   H     H_    0.257516 0.222924 0.892539 0.151057
N1    N     N_R   0.499150 0.498800 0.142780 -0.161571
N2    N     N_R   0.499120 0.498720 0.857170 -0.128467
O1    O     O_R   0.500000 0.316780 0.614690 -0.644941
O2    O     O_R   0.628451 0.725521 0.214463 -0.795331
O3    O     O_R   0.499990 0.316750 0.385360 -0.646079
O4    O     O_R   0.367850 0.499980 0.614680 -0.650221
O5    O     O_R   0.367840 0.499960 0.385350 -0.644018
O6    O     O_R   0.500010 0.683250 0.614640 -0.623865
O7    O     O_R   0.500000 0.683220 0.385310 -0.564195
O8    O     O_R   0.632160 0.500040 0.614650 -0.608453
O9    O     O_R   0.632150 0.500020 0.385320 -0.604820
O10   O     O_2   0.716665 0.611192 0.086343 -0.701071
Zn1   Zn    Zn3+2 0.500010 0.500020 0.653130 0.937991
Zn2   Zn    Zn3+2 0.499990 0.499980 0.346870 0.958990

loop_
_geom_bond_atom_site_label_1
_geom_bond_atom_site_label_2
_ccdc_geom_bond_type
C27   C29   S    
C41   C42   A    
C35   C36   A    
O3    Zn2   S    
C24   N1    A    
C7    C8    A    
C28   H1    S    
C29   C30   A    
C30   C35   S    
C12   C28   A    
C18   C24   A    
C1    O3    A    
C36   C37   A    
C18   C19   A    
C36   H13   S    
C38   C39   A    
C23   H4    S    
C10   C17   A    
C40   H17   S    
C16   O6    A    
C4    O4    A    
O7    Zn2   S    
C19   C20   A    
C16   C17   S    
C5    H7    S    
C9    C10   A    
C26   H3    S    
N2    Zn1   S    
C14   H10   S    
C5    C43   A    
C13   C14   A    
C12   C32   A    
C26   N2    A    
C6    H12   S    
C34   C41   A    
O9    Zn2   S    
C44   H8    S    
O5    Zn2   S    
C39   H16   S    
C34   H5    S    
C1    O1    A    
C27   O9    A    
C10   C11   A    
C39   C40   A    
C8    C9    A    
C25   C26   A    
C15   H21   S    
C23   C31   A    
C43   C44   A    
C37   C38   A    
C31   C32   A    
C23   C34   A    
C19   H23   S    
N1    Zn2   S    
C7    H18   S    
C37   H14   S    
C8    H19   S    
C38   H15   S    
C33   O2    S    
C45   H9    S    
C22   C24   A    
C20   H24   S    
C1    C13   S    
C42   C43   A    
C3    C4    S    
C22   N2    A    
C6    C11   A    
C44   C45   A    
C15   C17   A    
C28   C29   A    
H11   O2    S    
C12   C45   A    
C3    C5    A    
O8    Zn1   S    
O4    Zn1   S    
C6    C7    A    
C27   O8    A    
C2    C3    A    
C18   H22   S    
C11   C13   A    
C30   C31   A    
O6    Zn1   S    
C35   C40   A    
C16   O7    A    
C9    H20   S    
C4    O5    A    
C2    H6    S    
C20   C21   A    
C32   C42   A    
C14   C15   A    
C25   N1    A    
C2    C41   A    
C21   C22   A    
C33   O10   D    
O1    Zn1   S    
C25   C33   S    
C21   H2    S    
