data_mof_unit_pretest_1980.cif
_audit_creation_date              2013-03-05T16:40:00-0500
_audit_creation_method            fapswitch 2.2
_symmetry_space_group_name_H-M    P1
_symmetry_Int_Tables_number       1
_space_group_crystal_system       triclinic
_cell_length_a                    26.261735
_cell_length_b                    39.697515
_cell_length_c                    39.858815
_cell_angle_alpha                 89.998618
_cell_angle_beta                  90.000308
_cell_angle_gamma                 90.00797
_cell_volume                      41553.8353693

loop_
_atom_site_label
_atom_site_type_symbol
_atom_site_description
_atom_site_fract_x
_atom_site_fract_y
_atom_site_fract_z
_atom_type_partial_charge
Zn1   Zn    Zn3+2 0.792910 0.971920 0.221920 1.057149
Zn2   Zn    Zn3+2 0.207090 0.971920 0.778080 1.056606
Zn3   Zn    Zn3+2 0.207090 0.971920 0.221920 1.047242
Zn4   Zn    Zn3+2 0.792910 0.971920 0.778080 1.047404
Zn5   Zn    Zn3+2 0.292910 0.971920 0.721920 1.056595
Zn6   Zn    Zn3+2 0.707090 0.971920 0.278080 1.056129
Zn7   Zn    Zn3+2 0.707090 0.971920 0.721920 1.046525
Zn8   Zn    Zn3+2 0.292910 0.971920 0.278080 1.046775
Zn9   Zn    Zn3+2 0.292910 0.471920 0.221920 1.047088
Zn10  Zn    Zn3+2 0.707090 0.471920 0.778080 1.046830
Zn11  Zn    Zn3+2 0.707090 0.471920 0.221920 1.056352
Zn12  Zn    Zn3+2 0.292910 0.471920 0.778080 1.056893
Zn13  Zn    Zn3+2 0.792910 0.471920 0.721920 1.047268
Zn14  Zn    Zn3+2 0.207090 0.471920 0.278080 1.046803
Zn15  Zn    Zn3+2 0.207090 0.471920 0.721920 1.056359
Zn16  Zn    Zn3+2 0.792910 0.471920 0.278080 1.056863
Zn17  Zn    Zn3+2 0.707090 0.027980 0.221910 0.995857
Zn18  Zn    Zn3+2 0.292910 0.027980 0.778090 0.997076
Zn19  Zn    Zn3+2 0.292910 0.027980 0.221910 0.998840
Zn20  Zn    Zn3+2 0.707090 0.027980 0.778090 0.998325
Zn21  Zn    Zn3+2 0.207090 0.027980 0.721910 0.996658
Zn22  Zn    Zn3+2 0.792910 0.027980 0.278090 0.997778
Zn23  Zn    Zn3+2 0.792910 0.027980 0.721910 0.999517
Zn24  Zn    Zn3+2 0.207090 0.027980 0.278090 0.999363
Zn25  Zn    Zn3+2 0.207090 0.527980 0.221910 0.998657
Zn26  Zn    Zn3+2 0.792910 0.527980 0.778090 0.999553
Zn27  Zn    Zn3+2 0.792910 0.527980 0.221910 0.997685
Zn28  Zn    Zn3+2 0.207090 0.527980 0.778090 0.996294
Zn29  Zn    Zn3+2 0.707090 0.527980 0.721910 0.998566
Zn30  Zn    Zn3+2 0.292910 0.527980 0.278090 0.999479
Zn31  Zn    Zn3+2 0.292910 0.527980 0.721910 0.997691
Zn32  Zn    Zn3+2 0.707090 0.527980 0.278090 0.995980
O1    O     O_3   0.750000 0.999950 0.250000 -0.510849
O2    O     O_3   0.250000 0.999950 0.750000 -0.510822
O3    O     O_3   0.250000 0.999950 0.250000 -0.506283
O4    O     O_3   0.750000 0.999950 0.750000 -0.506310
O5    O     O_3   0.250000 0.499950 0.250000 -0.506364
O6    O     O_3   0.750000 0.499950 0.750000 -0.506255
O7    O     O_3   0.750000 0.499950 0.250000 -0.510794
O8    O     O_3   0.250000 0.499950 0.750000 -0.510924
O9    O     O_R   0.635440 0.980340 0.269560 -0.632904
O10   O     O_R   0.364560 0.980340 0.730440 -0.632733
O11   O     O_R   0.364560 0.980340 0.269560 -0.635966
O12   O     O_R   0.635440 0.980340 0.730440 -0.636140
O13   O     O_R   0.135440 0.980340 0.769560 -0.632324
O14   O     O_R   0.864560 0.980340 0.230440 -0.631999
O15   O     O_R   0.864560 0.980340 0.769560 -0.635188
O16   O     O_R   0.135440 0.980340 0.230440 -0.635397
O17   O     O_R   0.135440 0.480340 0.269560 -0.635906
O18   O     O_R   0.864560 0.480340 0.730440 -0.635358
O19   O     O_R   0.864560 0.480340 0.269560 -0.632267
O20   O     O_R   0.135440 0.480340 0.730440 -0.632687
O21   O     O_R   0.635440 0.480340 0.769560 -0.635969
O22   O     O_R   0.364560 0.480340 0.230440 -0.635461
O23   O     O_R   0.364560 0.480340 0.769560 -0.632286
O24   O     O_R   0.635440 0.480340 0.230440 -0.632766
O25   O     O_R   0.719960 0.019580 0.175120 -0.643761
O26   O     O_R   0.280040 0.019580 0.824880 -0.642060
O27   O     O_R   0.280040 0.019580 0.175120 -0.639033
O28   O     O_R   0.719960 0.019580 0.824880 -0.640445
O29   O     O_R   0.219960 0.019580 0.675120 -0.643813
O30   O     O_R   0.780040 0.019580 0.324880 -0.642126
O31   O     O_R   0.780040 0.019580 0.675120 -0.639103
O32   O     O_R   0.219960 0.019580 0.324880 -0.640349
O33   O     O_R   0.219960 0.519580 0.175120 -0.639927
O34   O     O_R   0.780040 0.519580 0.824880 -0.639135
O35   O     O_R   0.780040 0.519580 0.175120 -0.642248
O36   O     O_R   0.219960 0.519580 0.824880 -0.643234
O37   O     O_R   0.719960 0.519580 0.675120 -0.640283
O38   O     O_R   0.280040 0.519580 0.324880 -0.639544
O39   O     O_R   0.280040 0.519580 0.675120 -0.642592
O40   O     O_R   0.719960 0.519580 0.324880 -0.643661
O41   O     O_R   0.719970 0.074780 0.230320 -0.641842
O42   O     O_R   0.280030 0.074780 0.769680 -0.642224
O43   O     O_R   0.280030 0.074780 0.230320 -0.643603
O44   O     O_R   0.719970 0.074780 0.769680 -0.643004
O45   O     O_R   0.219970 0.074780 0.730320 -0.641946
O46   O     O_R   0.780030 0.074780 0.269680 -0.642335
O47   O     O_R   0.780030 0.074780 0.730320 -0.643675
O48   O     O_R   0.219970 0.074780 0.269680 -0.643111
O49   O     O_R   0.219970 0.574780 0.230320 -0.643137
O50   O     O_R   0.780030 0.574780 0.769680 -0.643676
O51   O     O_R   0.780030 0.574780 0.230320 -0.642301
O52   O     O_R   0.219970 0.574780 0.769680 -0.641867
O53   O     O_R   0.719970 0.574780 0.730320 -0.643059
O54   O     O_R   0.280030 0.574780 0.269680 -0.643456
O55   O     O_R   0.280030 0.574780 0.730320 -0.642186
O56   O     O_R   0.719970 0.574780 0.269680 -0.641857
O57   O     O_R   0.719960 0.925120 0.269570 -0.605079
O58   O     O_R   0.280040 0.925120 0.730430 -0.604869
O59   O     O_R   0.280040 0.925120 0.269570 -0.608232
O60   O     O_R   0.719960 0.925120 0.730430 -0.608128
O61   O     O_R   0.219960 0.925120 0.769570 -0.603746
O62   O     O_R   0.780040 0.925120 0.230430 -0.603576
O63   O     O_R   0.780040 0.925120 0.769570 -0.606880
O64   O     O_R   0.219960 0.925120 0.230430 -0.607082
O65   O     O_R   0.219960 0.425120 0.269570 -0.607774
O66   O     O_R   0.780040 0.425120 0.730430 -0.607406
O67   O     O_R   0.780040 0.425120 0.269570 -0.603948
O68   O     O_R   0.219960 0.425120 0.730430 -0.604715
O69   O     O_R   0.719960 0.425120 0.769570 -0.607947
O70   O     O_R   0.280040 0.425120 0.230430 -0.607246
O71   O     O_R   0.280040 0.425120 0.769570 -0.603947
O72   O     O_R   0.719960 0.425120 0.230430 -0.604691
O73   O     O_R   0.780030 0.980340 0.175130 -0.616048
O74   O     O_R   0.219970 0.980340 0.824870 -0.616409
O75   O     O_R   0.219970 0.980340 0.175130 -0.632028
O76   O     O_R   0.780030 0.980340 0.824870 -0.631692
O77   O     O_R   0.280030 0.980340 0.675130 -0.615173
O78   O     O_R   0.719970 0.980340 0.324870 -0.615470
O79   O     O_R   0.719970 0.980340 0.675130 -0.631389
O80   O     O_R   0.280030 0.980340 0.324870 -0.631315
O81   O     O_R   0.280030 0.480340 0.175130 -0.631784
O82   O     O_R   0.719970 0.480340 0.824870 -0.631534
O83   O     O_R   0.719970 0.480340 0.175130 -0.615490
O84   O     O_R   0.280030 0.480340 0.824870 -0.616083
O85   O     O_R   0.780030 0.480340 0.675130 -0.631837
O86   O     O_R   0.219970 0.480340 0.324870 -0.631331
O87   O     O_R   0.219970 0.480340 0.675130 -0.615470
O88   O     O_R   0.780030 0.480340 0.324870 -0.616112
O89   O     O_R   0.635440 0.019580 0.230320 -0.635101
O90   O     O_R   0.364560 0.019580 0.769680 -0.634400
O91   O     O_R   0.364560 0.019580 0.230320 -0.633554
O92   O     O_R   0.635440 0.019580 0.769680 -0.633439
O93   O     O_R   0.135440 0.019580 0.730320 -0.635042
O94   O     O_R   0.864560 0.019580 0.269680 -0.634480
O95   O     O_R   0.864560 0.019580 0.730320 -0.633714
O96   O     O_R   0.135440 0.019580 0.269680 -0.633462
O97   O     O_R   0.135440 0.519580 0.230320 -0.633610
O98   O     O_R   0.864560 0.519580 0.769680 -0.633755
O99   O     O_R   0.864560 0.519580 0.230320 -0.634470
O100  O     O_R   0.135440 0.519580 0.769680 -0.635069
O101  O     O_R   0.635440 0.519580 0.730320 -0.633543
O102  O     O_R   0.364560 0.519580 0.269680 -0.633136
O103  O     O_R   0.364560 0.519580 0.730320 -0.633996
O104  O     O_R   0.635440 0.519580 0.269680 -0.635255
C1    C     C_R   0.611297 0.000203 0.250037 0.868371
C2    C     C_R   0.388653 0.999696 0.750445 0.869876
C3    C     C_R   0.388687 0.999795 0.249635 0.873093
C4    C     C_R   0.611258 0.000051 0.750126 0.870778
C5    C     C_R   0.111294 0.000194 0.750026 0.868961
C6    C     C_R   0.888647 0.999681 0.250458 0.870513
C7    C     C_R   0.888685 0.999786 0.749627 0.873895
C8    C     C_R   0.111251 0.000016 0.250162 0.871613
C9    C     C_R   0.111259 0.500060 0.249883 0.870770
C10   C     C_R   0.888698 0.499831 0.750334 0.874244
C11   C     C_R   0.888654 0.499700 0.249557 0.870723
C12   C     C_R   0.111307 0.500237 0.749926 0.868261
C13   C     C_R   0.611253 0.500029 0.749851 0.870839
C14   C     C_R   0.388680 0.499773 0.250384 0.873714
C15   C     C_R   0.388649 0.499686 0.749546 0.870549
C16   C     C_R   0.611290 0.500179 0.249990 0.868317
C17   C     C_R   0.750417 0.000202 0.158980 0.821830
C18   C     C_R   0.249611 0.000187 0.841019 0.821794
C19   C     C_R   0.250337 0.999659 0.158924 0.821090
C20   C     C_R   0.749686 0.999670 0.841074 0.821012
C21   C     C_R   0.250414 0.000201 0.658982 0.823292
C22   C     C_R   0.749615 0.000187 0.341015 0.823312
C23   C     C_R   0.750319 0.999666 0.658919 0.822743
C24   C     C_R   0.249695 0.999674 0.341077 0.822707
C25   C     C_R   0.249685 0.499670 0.158926 0.821240
C26   C     C_R   0.750322 0.499665 0.841079 0.822503
C27   C     C_R   0.749614 0.500187 0.158983 0.823018
C28   C     C_R   0.250418 0.500201 0.841020 0.822083
C29   C     C_R   0.749680 0.499668 0.658927 0.821278
C30   C     C_R   0.250318 0.499666 0.341081 0.822505
C31   C     C_R   0.249615 0.500188 0.658985 0.823022
C32   C     C_R   0.750418 0.500201 0.341021 0.822055
C33   C     C_R   0.750060 0.090938 0.249963 0.838435
C34   C     C_R   0.250060 0.090938 0.749963 0.838419
C35   C     C_R   0.250068 0.090941 0.250040 0.837678
C36   C     C_R   0.750066 0.090941 0.750039 0.837722
C37   C     C_R   0.249916 0.590941 0.250049 0.837714
C38   C     C_R   0.750067 0.590941 0.749959 0.837656
C39   C     C_R   0.750062 0.590938 0.250037 0.838415
C40   C     C_R   0.249907 0.590938 0.749944 0.838440
C41   C     C_R   0.750007 0.909065 0.250014 0.947366
C42   C     C_R   0.249985 0.909064 0.749986 0.947269
C43   C     C_R   0.249988 0.909079 0.250011 0.959161
C44   C     C_R   0.750005 0.909077 0.749988 0.958194
C45   C     C_R   0.250005 0.409077 0.250013 0.958217
C46   C     C_R   0.750004 0.409079 0.750012 0.959363
C47   C     C_R   0.750008 0.409065 0.249986 0.947325
C48   C     C_R   0.250008 0.409065 0.749986 0.947418
C49   C     C_R   0.720842 0.681126 0.274287 0.291710
C50   C     C_R   0.278857 0.681158 0.725626 0.292247
C51   C     C_R   0.278609 0.681167 0.274514 0.292524
C52   C     C_R   0.721213 0.681137 0.725506 0.292054
C53   C     C_R   0.212634 0.681064 0.769099 0.290304
C54   C     C_R   0.786917 0.681109 0.230716 0.290830
C55   C     C_R   0.786692 0.681121 0.769465 0.291202
C56   C     C_R   0.213096 0.681091 0.230577 0.290777
C57   C     C_R   0.221250 0.181136 0.274512 0.292046
C58   C     C_R   0.786673 0.181126 0.730524 0.291325
C59   C     C_R   0.786919 0.181109 0.269276 0.290940
C60   C     C_R   0.220808 0.181127 0.725728 0.291682
C61   C     C_R   0.721187 0.181139 0.774478 0.292014
C62   C     C_R   0.286656 0.181123 0.230506 0.291306
C63   C     C_R   0.286921 0.181109 0.769276 0.290924
C64   C     C_R   0.720798 0.181127 0.225734 0.291667
C65   C     C_R   0.719345 0.645884 0.272688 -0.233539
C66   C     C_R   0.280472 0.645919 0.727255 -0.234974
C67   C     C_R   0.280203 0.645923 0.272913 -0.236426
C68   C     C_R   0.719679 0.645893 0.727109 -0.235430
C69   C     C_R   0.215193 0.645826 0.770074 -0.232172
C70   C     C_R   0.784475 0.645867 0.229771 -0.234018
C71   C     C_R   0.784230 0.645878 0.770403 -0.235397
C72   C     C_R   0.215617 0.645849 0.229643 -0.234216
C73   C     C_R   0.219715 0.145892 0.272910 -0.235439
C74   C     C_R   0.784219 0.145882 0.729591 -0.235584
C75   C     C_R   0.784483 0.145867 0.270219 -0.234219
C76   C     C_R   0.219317 0.145885 0.727326 -0.233499
C77   C     C_R   0.719662 0.145894 0.772879 -0.235334
C78   C     C_R   0.284195 0.145879 0.229571 -0.235567
C79   C     C_R   0.284483 0.145867 0.770220 -0.234167
C80   C     C_R   0.719309 0.145884 0.227331 -0.233425
H1    H     H_    0.693760 0.632283 0.289145 0.214237
H2    H     H_    0.306142 0.632346 0.710837 0.212888
H3    H     H_    0.305583 0.632343 0.289520 0.211844
H4    H     H_    0.694325 0.632290 0.710500 0.213052
H5    H     H_    0.190194 0.632181 0.786881 0.214869
H6    H     H_    0.809440 0.632252 0.212922 0.213074
H7    H     H_    0.808959 0.632264 0.787403 0.212195
H8    H     H_    0.190884 0.632211 0.212660 0.213643
H9    H     H_    0.194389 0.132288 0.289538 0.212964
H10   H     H_    0.808954 0.132269 0.712593 0.212128
H11   H     H_    0.809468 0.132252 0.287056 0.213037
H12   H     H_    0.193719 0.132284 0.710878 0.214185
H13   H     H_    0.694307 0.132290 0.789487 0.213020
H14   H     H_    0.308895 0.132266 0.212553 0.212150
H15   H     H_    0.309464 0.132252 0.787059 0.213062
H16   H     H_    0.693708 0.132283 0.210885 0.214205
C81   C     C_R   0.751023 0.628087 0.250656 -0.127278
C82   C     C_R   0.248809 0.628087 0.749271 -0.127485
C83   C     C_R   0.248862 0.628096 0.250694 -0.126964
C84   C     C_R   0.751050 0.628095 0.749332 -0.126815
C85   C     C_R   0.251051 0.128095 0.250666 -0.126707
C86   C     C_R   0.751042 0.128097 0.750662 -0.126726
C87   C     C_R   0.751014 0.128087 0.249346 -0.127170
C88   C     C_R   0.251017 0.128088 0.749345 -0.127172
C89   C     C_R   0.754504 0.698865 0.252900 -0.129153
C90   C     C_R   0.245089 0.698858 0.746965 -0.129159
C91   C     C_R   0.245207 0.698880 0.252932 -0.129129
C92   C     C_R   0.754583 0.698879 0.747088 -0.129088
C93   C     C_R   0.254584 0.198879 0.252906 -0.129175
C94   C     C_R   0.754558 0.198884 0.752897 -0.129194
C95   C     C_R   0.754480 0.198865 0.247107 -0.129246
C96   C     C_R   0.254487 0.198865 0.747103 -0.129241
C97   C     C_1   0.753193 0.735067 0.252022 0.143360
C98   C     C_1   0.246380 0.735062 0.747873 0.143270
C99   C     C_1   0.246514 0.735090 0.252041 0.143055
C100  C     C_1   0.753264 0.735087 0.747953 0.143114
C101  C     C_1   0.253263 0.235088 0.252043 0.143510
C102  C     C_1   0.753239 0.235094 0.752033 0.143516
C103  C     C_1   0.753169 0.235067 0.247986 0.143760
C104  C     C_1   0.253177 0.235067 0.747982 0.143762
C105  C     C_1   0.752210 0.765315 0.251418 0.107520
C106  C     C_1   0.247397 0.765310 0.748500 0.107382
C107  C     C_1   0.247517 0.765343 0.251432 0.107359
C108  C     C_1   0.752275 0.765339 0.748548 0.107452
C109  C     C_1   0.252273 0.265339 0.251448 0.107587
C110  C     C_1   0.752253 0.265346 0.751439 0.107565
C111  C     C_1   0.752189 0.265315 0.248589 0.107663
C112  C     C_1   0.252197 0.265316 0.748585 0.107665
C113  C     C_R   0.751723 0.819105 0.281147 -0.163293
C114  C     C_R   0.248072 0.819120 0.718804 -0.163210
C115  C     C_R   0.245318 0.819164 0.281076 -0.161516
C116  C     C_R   0.754199 0.819162 0.718893 -0.161789
C117  C     C_R   0.249348 0.818481 0.779471 -0.178625
C118  C     C_R   0.750379 0.818504 0.220480 -0.178444
C119  C     C_R   0.748006 0.818508 0.779419 -0.178302
C120  C     C_R   0.252195 0.818518 0.220583 -0.178426
C121  C     C_R   0.254206 0.319160 0.281105 -0.162310
C122  C     C_R   0.747590 0.318519 0.720594 -0.177733
C123  C     C_R   0.750388 0.318503 0.279526 -0.177953
C124  C     C_R   0.251730 0.319106 0.718855 -0.163712
C125  C     C_R   0.754593 0.319169 0.781081 -0.162076
C126  C     C_R   0.247995 0.318511 0.220580 -0.177714
C127  C     C_R   0.250360 0.318503 0.779523 -0.177946
C128  C     C_R   0.751690 0.319105 0.218858 -0.163736
H17   H     H_    0.753201 0.805420 0.304666 0.210399
H18   H     H_    0.246580 0.805452 0.695276 0.210401
H19   H     H_    0.241699 0.805464 0.304484 0.210254
H20   H     H_    0.757531 0.805468 0.695464 0.210301
H21   H     H_    0.250249 0.804300 0.802707 0.199627
H22   H     H_    0.749413 0.804338 0.197237 0.199682
H23   H     H_    0.745191 0.804294 0.802566 0.199836
H24   H     H_    0.255247 0.804305 0.197448 0.199717
H25   H     H_    0.257545 0.305463 0.304533 0.210099
H26   H     H_    0.744463 0.304304 0.697465 0.200001
H27   H     H_    0.749435 0.304338 0.302770 0.199900
H28   H     H_    0.253217 0.305422 0.695337 0.210174
H29   H     H_    0.758233 0.305471 0.804488 0.209947
H30   H     H_    0.245173 0.304298 0.197432 0.200091
H31   H     H_    0.249383 0.304337 0.802766 0.199897
H32   H     H_    0.753150 0.305420 0.195339 0.210184
C129  C     C_R   0.752095 0.854370 0.281268 0.262732
C130  C     C_R   0.247817 0.854386 0.718703 0.262799
C131  C     C_R   0.245021 0.854441 0.281184 0.264144
C132  C     C_R   0.754553 0.854438 0.718791 0.264346
C133  C     C_R   0.250779 0.853747 0.780288 0.269975
C134  C     C_R   0.749064 0.853771 0.219682 0.269974
C135  C     C_R   0.746668 0.853785 0.780221 0.271693
C136  C     C_R   0.253593 0.853796 0.219791 0.271519
C137  C     C_R   0.254561 0.354436 0.281208 0.264529
C138  C     C_R   0.746256 0.353797 0.719797 0.271305
C139  C     C_R   0.749079 0.353771 0.280321 0.269811
C140  C     C_R   0.252107 0.354372 0.718734 0.262913
C141  C     C_R   0.754955 0.354446 0.781184 0.264291
C142  C     C_R   0.246657 0.353788 0.219778 0.271486
C143  C     C_R   0.249049 0.353770 0.780319 0.269781
C144  C     C_R   0.752068 0.354370 0.218736 0.262928
C145  C     C_R   0.750356 0.872015 0.250307 -0.264509
C146  C     C_R   0.249575 0.872012 0.749673 -0.264539
C147  C     C_R   0.249578 0.872053 0.250317 -0.265076
C148  C     C_R   0.750379 0.872048 0.749680 -0.265197
C149  C     C_R   0.250377 0.372048 0.250320 -0.265183
C150  C     C_R   0.750375 0.372055 0.750318 -0.265062
C151  C     C_R   0.750354 0.372015 0.249695 -0.264523
C152  C     C_R   0.250356 0.372016 0.749694 -0.264508
C153  C     C_R   0.751311 0.801361 0.250987 -0.006387
C154  C     C_R   0.248386 0.801357 0.748954 -0.006351
C155  C     C_R   0.248458 0.801398 0.251005 -0.007196
C156  C     C_R   0.751374 0.801393 0.748977 -0.007323
C157  C     C_R   0.251371 0.301393 0.251021 -0.007362
C158  C     C_R   0.751359 0.301401 0.751015 -0.007201
C159  C     C_R   0.751295 0.301361 0.249019 -0.006404
C160  C     C_R   0.251302 0.301362 0.749016 -0.006391
C161  C     C_2   0.527292 0.521583 0.268318 -0.048632
C162  C     C_2   0.472217 0.513251 0.724834 -0.036935
C163  C     C_2   0.472510 0.515926 0.273397 -0.038666
C164  C     C_2   0.527102 0.519315 0.729103 -0.047521
C165  C     C_2   0.027408 0.522599 0.767026 -0.047872
C166  C     C_2   0.972274 0.513757 0.225151 -0.037476
C167  C     C_2   0.972636 0.517229 0.772437 -0.039508
C168  C     C_2   0.027130 0.519767 0.229588 -0.046956
C169  C     C_2   0.027092 0.019129 0.271091 -0.047447
C170  C     C_2   0.972542 0.016253 0.726837 -0.038886
C171  C     C_2   0.972193 0.013047 0.275290 -0.036938
C172  C     C_2   0.027319 0.021843 0.732004 -0.048598
C173  C     C_2   0.527122 0.019642 0.770546 -0.047253
C174  C     C_2   0.472562 0.016452 0.226982 -0.038968
C175  C     C_2   0.472258 0.013616 0.774937 -0.037273
C176  C     C_2   0.527337 0.022000 0.232201 -0.048288
C177  C     C_2   0.555927 0.498285 0.252330 -0.345226
C178  C     C_2   0.444035 0.501364 0.750589 -0.343060
C179  C     C_2   0.444053 0.501823 0.248899 -0.347803
C180  C     C_2   0.555890 0.497692 0.747216 -0.349493
C181  C     C_2   0.055942 0.498562 0.752102 -0.343764
C182  C     C_2   0.944037 0.501452 0.250685 -0.343532
C183  C     C_2   0.944065 0.502055 0.748630 -0.349053
C184  C     C_2   0.055897 0.497805 0.247297 -0.348984
C185  C     C_2   0.055888 0.997647 0.252815 -0.348851
C186  C     C_2   0.944056 0.001880 0.751167 -0.347684
C187  C     C_2   0.944035 0.001331 0.249447 -0.342264
C188  C     C_2   0.055931 0.998354 0.747725 -0.344286
C189  C     C_2   0.555896 0.997773 0.752726 -0.349644
C190  C     C_2   0.444058 0.001916 0.251209 -0.348646
C191  C     C_2   0.444036 0.001428 0.749341 -0.343813
C192  C     C_2   0.555933 0.998398 0.247761 -0.345044
H33   H     H_    0.538513 0.475576 0.242377 0.167980
H34   H     H_    0.461753 0.494673 0.774278 0.159112
H35   H     H_    0.461587 0.493421 0.225692 0.160019
H36   H     H_    0.538566 0.475847 0.758988 0.168097
H37   H     H_    0.038462 0.475509 0.743023 0.167396
H38   H     H_    0.961716 0.494448 0.274299 0.159718
H39   H     H_    0.961524 0.492795 0.725722 0.161143
H40   H     H_    0.038560 0.475774 0.258714 0.167954
H41   H     H_    0.038567 0.975881 0.240897 0.168465
H42   H     H_    0.961570 0.993265 0.774305 0.160369
H43   H     H_    0.961767 0.994769 0.225728 0.159032
H44   H     H_    0.038502 0.975553 0.757458 0.168226
H45   H     H_    0.538562 0.975792 0.741212 0.167660
H46   H     H_    0.461560 0.993171 0.274301 0.160446
H47   H     H_    0.461726 0.994511 0.725706 0.159558
H48   H     H_    0.538494 0.975544 0.257361 0.167380
C193  C     C_R   0.730040 0.974359 0.567200 -0.039683
C194  C     C_R   0.269890 0.974353 0.432787 -0.039780
C195  C     C_R   0.291375 0.990961 0.567484 -0.033077
C196  C     C_R   0.708817 0.991064 0.432540 -0.032557
C197  C     C_R   0.230760 0.974080 0.067233 -0.039332
C198  C     C_R   0.769524 0.974216 0.932772 -0.039486
C199  C     C_R   0.791337 0.990861 0.067476 -0.033373
C200  C     C_R   0.208917 0.990835 0.932556 -0.032930
C201  C     C_R   0.208810 0.491068 0.567460 -0.032610
C202  C     C_R   0.791296 0.490788 0.432530 -0.033352
C203  C     C_R   0.769319 0.474137 0.567239 -0.039397
C204  C     C_R   0.230049 0.474358 0.432801 -0.039675
C205  C     C_R   0.708852 0.490977 0.067455 -0.032670
C206  C     C_R   0.291339 0.490862 0.932524 -0.033318
C207  C     C_R   0.269522 0.474213 0.067230 -0.039492
C208  C     C_R   0.730263 0.474273 0.932791 -0.039707
C209  C     C_R   0.728029 0.973200 0.602536 -0.084036
C210  C     C_R   0.271753 0.973136 0.397450 -0.083979
C211  C     C_R   0.293473 0.990061 0.602823 -0.064387
C212  C     C_R   0.706603 0.990221 0.397203 -0.064432
C213  C     C_R   0.228810 0.972905 0.102570 -0.084598
C214  C     C_R   0.771349 0.972987 0.897434 -0.084554
C215  C     C_R   0.793431 0.989962 0.102816 -0.064733
C216  C     C_R   0.206705 0.989995 0.897218 -0.064809
C217  C     C_R   0.206599 0.490222 0.602798 -0.064463
C218  C     C_R   0.793393 0.489891 0.397190 -0.064690
C219  C     C_R   0.771134 0.472907 0.602577 -0.084411
C220  C     C_R   0.228042 0.473197 0.397465 -0.084112
C221  C     C_R   0.706641 0.490133 0.102792 -0.064517
C222  C     C_R   0.293434 0.489964 0.897184 -0.064709
C223  C     C_R   0.271347 0.472985 0.102568 -0.084495
C224  C     C_R   0.728271 0.473108 0.897454 -0.084145
C225  C     C_R   0.751250 0.999194 0.621679 -0.082368
C226  C     C_R   0.248870 0.999257 0.378312 -0.081800
C227  C     C_R   0.250787 0.000731 0.621848 -0.074413
C228  C     C_R   0.749379 0.000652 0.378141 -0.075026
C229  C     C_R   0.251288 0.999189 0.121694 -0.082043
C230  C     C_R   0.748852 0.999255 0.878304 -0.081558
C231  C     C_R   0.750802 0.000735 0.121843 -0.074561
C232  C     C_R   0.249356 0.000655 0.878153 -0.075304
C233  C     C_R   0.249374 0.500657 0.621858 -0.074862
C234  C     C_R   0.750803 0.500731 0.378161 -0.074630
C235  C     C_R   0.748836 0.499252 0.621700 -0.081487
C236  C     C_R   0.251246 0.499197 0.378320 -0.082081
C237  C     C_R   0.749369 0.500655 0.121854 -0.075105
C238  C     C_R   0.250802 0.500732 0.878157 -0.074721
C239  C     C_R   0.248848 0.499254 0.121696 -0.081832
C240  C     C_R   0.751253 0.499196 0.878316 -0.082352
C241  C     C_R   0.776548 0.025478 0.604931 -0.219523
C242  C     C_R   0.224076 0.025742 0.395057 -0.222846
C243  C     C_R   0.207255 0.012601 0.605152 -0.213538
C244  C     C_R   0.793152 0.012205 0.394788 -0.210797
C245  C     C_R   0.275852 0.025769 0.104942 -0.219915
C246  C     C_R   0.724440 0.025894 0.895051 -0.223200
C247  C     C_R   0.707338 0.012711 0.105142 -0.214484
C248  C     C_R   0.292990 0.012433 0.894807 -0.211909
C249  C     C_R   0.293142 0.512217 0.605210 -0.211433
C250  C     C_R   0.707378 0.512768 0.394860 -0.214197
C251  C     C_R   0.724615 0.525965 0.604951 -0.222872
C252  C     C_R   0.276522 0.525490 0.395066 -0.219733
C253  C     C_R   0.793085 0.512300 0.105204 -0.211308
C254  C     C_R   0.207334 0.512700 0.894857 -0.213836
C255  C     C_R   0.224434 0.525891 0.104947 -0.222887
C256  C     C_R   0.776308 0.525580 0.895064 -0.220132
H49   H     H_    0.794567 0.045498 0.619137 0.183760
H50   H     H_    0.206355 0.045873 0.380847 0.181954
H51   H     H_    0.174388 0.020863 0.619429 0.178327
H52   H     H_    0.826102 0.020262 0.380470 0.183585
H53   H     H_    0.293296 0.046012 0.119148 0.183476
H54   H     H_    0.707016 0.046137 0.880839 0.181821
H55   H     H_    0.674515 0.021054 0.119416 0.178341
H56   H     H_    0.325846 0.020667 0.880496 0.183570
H57   H     H_    0.326091 0.520278 0.619528 0.183408
H58   H     H_    0.674583 0.521161 0.380587 0.178432
H59   H     H_    0.707346 0.546266 0.619161 0.181783
H60   H     H_    0.294528 0.545516 0.380859 0.183223
H61   H     H_    0.825997 0.520429 0.119519 0.183426
H62   H     H_    0.174507 0.521038 0.880583 0.178537
H63   H     H_    0.207008 0.546134 0.119156 0.182395
H64   H     H_    0.794139 0.545674 0.880856 0.183631
C257  C     C_R   0.778648 0.026621 0.569992 0.003988
C258  C     C_R   0.222125 0.026948 0.429998 0.004954
C259  C     C_R   0.205124 0.013609 0.570217 0.006172
C260  C     C_R   0.795409 0.013147 0.429722 0.004315
C261  C     C_R   0.277918 0.026924 0.070003 0.003909
C262  C     C_R   0.722509 0.027107 0.929991 0.004823
C263  C     C_R   0.705218 0.013725 0.070207 0.006246
C264  C     C_R   0.295232 0.013384 0.929741 0.004398
C265  C     C_R   0.295396 0.513162 0.570277 0.004500
C266  C     C_R   0.705257 0.513782 0.429796 0.006203
C267  C     C_R   0.722690 0.527179 0.570010 0.004832
C268  C     C_R   0.278618 0.526636 0.430005 0.004166
C269  C     C_R   0.795334 0.513248 0.070270 0.004384
C270  C     C_R   0.205212 0.513713 0.929792 0.006045
C271  C     C_R   0.222503 0.527102 0.070006 0.004631
C272  C     C_R   0.778394 0.526729 0.930003 0.004052
C273  C     C_R   0.755224 0.001155 0.551019 0.038694
C274  C     C_R   0.245192 0.001342 0.448968 0.038921
C275  C     C_R   0.247082 0.002673 0.551268 0.035806
C276  C     C_R   0.753335 0.002471 0.448715 0.035436
C277  C     C_R   0.255197 0.001173 0.051040 0.038399
C278  C     C_R   0.745215 0.001356 0.948958 0.038687
C279  C     C_R   0.747114 0.002684 0.051259 0.035700
C280  C     C_R   0.253290 0.002479 0.948733 0.035369
C281  C     C_R   0.253323 0.502482 0.551285 0.035558
C282  C     C_R   0.747112 0.502676 0.448746 0.035803
C283  C     C_R   0.745207 0.501353 0.551048 0.038736
C284  C     C_R   0.255212 0.501164 0.448980 0.038738
C285  C     C_R   0.753311 0.502480 0.051279 0.035385
C286  C     C_R   0.247112 0.502678 0.948741 0.035577
C287  C     C_R   0.245211 0.501352 0.051042 0.038635
C288  C     C_R   0.755202 0.501168 0.948974 0.038582
C289  C     C_1   0.756244 0.002533 0.514914 -0.010649
C290  C     C_1   0.244249 0.002746 0.485071 -0.010623
C291  C     C_1   0.244822 0.003112 0.515168 -0.007214
C292  C     C_1   0.755671 0.002893 0.484814 -0.007514
C293  C     C_1   0.256186 0.002551 0.014933 -0.010899
C294  C     C_1   0.744289 0.002763 0.985061 -0.010859
C295  C     C_1   0.744861 0.003127 0.015159 -0.007522
C296  C     C_1   0.255615 0.002910 0.984833 -0.007836
C297  C     C_1   0.255658 0.502904 0.515185 -0.007437
C298  C     C_1   0.744860 0.503122 0.484846 -0.007365
C299  C     C_1   0.744287 0.502758 0.514944 -0.010690
C300  C     C_1   0.256231 0.502543 0.485085 -0.010553
C301  C     C_1   0.755642 0.502906 0.015179 -0.007689
C302  C     C_1   0.244860 0.503121 0.984841 -0.007603
C303  C     C_1   0.244286 0.502757 0.014939 -0.010954
C304  C     C_1   0.756213 0.502546 0.985079 -0.010850
N1    N     N_R   0.687852 0.698317 0.297590 0.222230
O105  O     O_R   0.644975 0.684640 0.306691 -0.339688
O106  O     O_R   0.702703 0.725719 0.312604 -0.359230
N2    N     N_R   0.311839 0.698389 0.702343 0.222281
O107  O     O_R   0.354783 0.684781 0.693291 -0.341688
O108  O     O_R   0.296923 0.725756 0.687296 -0.359006
N3    N     N_R   0.311233 0.698388 0.298021 0.221948
O109  O     O_R   0.354007 0.684755 0.307384 -0.342404
O110  O     O_R   0.296111 0.725769 0.312951 -0.359025
N4    N     N_R   0.688560 0.698325 0.701995 0.221929
O111  O     O_R   0.645815 0.684648 0.692629 -0.340649
O112  O     O_R   0.703629 0.725723 0.687067 -0.359185
N5    N     N_R   0.177148 0.698189 0.790804 0.221513
O113  O     O_R   0.163192 0.684436 0.818987 -0.342243
O114  O     O_R   0.154422 0.725624 0.781057 -0.349233
N6    N     N_R   0.822245 0.698278 0.208928 0.221077
O115  O     O_R   0.836027 0.684563 0.180693 -0.343484
O116  O     O_R   0.845005 0.725717 0.218638 -0.349546
N7    N     N_R   0.821727 0.698290 0.791457 0.221102
O117  O     O_R   0.835126 0.684575 0.819773 -0.344817
O118  O     O_R   0.844621 0.725726 0.781877 -0.349438
N8    N     N_R   0.178000 0.698224 0.208605 0.221397
O119  O     O_R   0.164528 0.684475 0.180320 -0.343691
O120  O     O_R   0.155121 0.725664 0.218180 -0.349286
N9    N     N_R   0.188636 0.198322 0.298047 0.222260
O121  O     O_R   0.145907 0.184644 0.307443 -0.339631
O122  O     O_R   0.203730 0.225720 0.312964 -0.359277
N10   N     N_R   0.821707 0.198296 0.708532 0.221002
O123  O     O_R   0.835108 0.184582 0.680217 -0.344878
O124  O     O_R   0.844598 0.225733 0.718111 -0.351581
N11   N     N_R   0.822265 0.198278 0.291050 0.220964
O125  O     O_R   0.836074 0.184561 0.319280 -0.343505
O126  O     O_R   0.845014 0.225718 0.281332 -0.351702
N12   N     N_R   0.187796 0.198318 0.702439 0.222560
O127  O     O_R   0.144911 0.184641 0.693355 -0.338578
O128  O     O_R   0.202630 0.225722 0.687420 -0.359295
N13   N     N_R   0.688525 0.198325 0.797984 0.222249
O129  O     O_R   0.645780 0.184645 0.807346 -0.339569
O130  O     O_R   0.703585 0.225725 0.812911 -0.359166
N14   N     N_R   0.321651 0.198293 0.208488 0.220990
O131  O     O_R   0.335001 0.184580 0.180161 -0.344872
O132  O     O_R   0.344561 0.225730 0.218050 -0.351587
N15   N     N_R   0.322264 0.198278 0.791052 0.220970
O133  O     O_R   0.336067 0.184561 0.819284 -0.343457
O134  O     O_R   0.345016 0.225717 0.781335 -0.351684
N16   N     N_R   0.687780 0.198318 0.202448 0.222564
O135  O     O_R   0.644894 0.184640 0.193367 -0.338561
O136  O     O_R   0.702609 0.225723 0.187429 -0.359299
C305  C     C_1   0.804984 0.054319 0.554076 0.202521
N17   N     N_1   0.826071 0.076479 0.541310 -0.141713
C306  C     C_1   0.196312 0.054853 0.445917 0.200963
N18   N     N_1   0.175644 0.077180 0.458685 -0.141799
C307  C     C_1   0.159293 0.025888 0.554287 0.204711
N19   N     N_1   0.122621 0.035721 0.541510 -0.148023
C308  C     C_1   0.841484 0.025093 0.445602 0.208710
N20   N     N_1   0.878355 0.034660 0.458336 -0.146749
C309  C     C_1   0.303478 0.054932 0.054076 0.202307
N21   N     N_1   0.323945 0.077341 0.041303 -0.141819
C310  C     C_1   0.697096 0.055171 0.945915 0.200719
N22   N     N_1   0.676748 0.077624 0.958686 -0.141922
C311  C     C_1   0.659459 0.026119 0.054274 0.203831
N23   N     N_1   0.622844 0.036044 0.041496 -0.148746
C312  C     C_1   0.341157 0.025576 0.945625 0.207727
N24   N     N_1   0.377907 0.035340 0.958361 -0.147454
C313  C     C_1   0.341466 0.525117 0.554395 0.208252
N25   N     N_1   0.378331 0.534690 0.541661 -0.147062
C314  C     C_1   0.659539 0.526243 0.445727 0.204252
N26   N     N_1   0.622958 0.536222 0.458503 -0.148308
C315  C     C_1   0.697482 0.555321 0.554082 0.201143
N27   N     N_1   0.677298 0.577838 0.541307 -0.141550
C316  C     C_1   0.304931 0.554344 0.445920 0.202409
N28   N     N_1   0.326000 0.576512 0.458684 -0.141372
C317  C     C_1   0.841348 0.525294 0.054388 0.208157
N29   N     N_1   0.878169 0.534942 0.041652 -0.147153
C318  C     C_1   0.159449 0.526099 0.945724 0.204292
N30   N     N_1   0.122831 0.536017 0.958502 -0.148438
C319  C     C_1   0.197089 0.555165 0.054080 0.200865
N31   N     N_1   0.176739 0.577616 0.041306 -0.142291
C320  C     C_1   0.804470 0.554532 0.945921 0.202091
N32   N     N_1   0.825351 0.576777 0.958687 -0.142040
N33   N     N_R   0.756171 0.871687 0.312878 0.227257
O137  O     O_R   0.734727 0.859156 0.339538 -0.334406
O138  O     O_R   0.787281 0.896984 0.316261 -0.391460
N34   N     N_R   0.243834 0.871725 0.687099 0.227245
O139  O     O_R   0.265307 0.859197 0.660452 -0.334373
O140  O     O_R   0.212763 0.897034 0.683703 -0.391386
N35   N     N_R   0.238272 0.871767 0.312617 0.223327
O141  O     O_R   0.255596 0.858531 0.340223 -0.344344
O142  O     O_R   0.208507 0.897902 0.314604 -0.401990
N36   N     N_R   0.760972 0.871767 0.687331 0.223502
O143  O     O_R   0.743105 0.858621 0.659831 -0.344218
O144  O     O_R   0.790939 0.897792 0.685174 -0.401860
N37   N     N_R   0.255184 0.870407 0.812230 0.226499
O145  O     O_R   0.233694 0.857465 0.838678 -0.337294
O146  O     O_R   0.286492 0.895533 0.816046 -0.393533
N38   N     N_R   0.744682 0.870454 0.187751 0.226477
O147  O     O_R   0.766125 0.857509 0.161291 -0.337191
O148  O     O_R   0.713429 0.895608 0.183956 -0.393512
N39   N     N_R   0.739894 0.870426 0.812017 0.222855
O149  O     O_R   0.757752 0.856805 0.839287 -0.346968
O150  O     O_R   0.709758 0.896318 0.814627 -0.403896
N40   N     N_R   0.260705 0.870444 0.188028 0.222743
O151  O     O_R   0.243198 0.856805 0.160667 -0.347052
O152  O     O_R   0.290766 0.896394 0.185569 -0.404360
N41   N     N_R   0.260991 0.371762 0.312668 0.223344
O153  O     O_R   0.243142 0.358611 0.340171 -0.344382
O154  O     O_R   0.290952 0.397791 0.314820 -0.402662
N42   N     N_R   0.739092 0.370443 0.688038 0.222848
O155  O     O_R   0.756435 0.356761 0.660655 -0.346906
O156  O     O_R   0.709113 0.396432 0.685614 -0.403466
N43   N     N_R   0.744720 0.370455 0.312253 0.226615
O157  O     O_R   0.766187 0.357511 0.338706 -0.337146
O158  O     O_R   0.713465 0.395605 0.316057 -0.392728
N44   N     N_R   0.256197 0.371690 0.687124 0.227113
O159  O     O_R   0.234770 0.359158 0.660460 -0.334462
O160  O     O_R   0.287305 0.396988 0.683748 -0.392261
N45   N     N_R   0.761773 0.371775 0.812609 0.223173
O161  O     O_R   0.744446 0.358562 0.840226 -0.344496
O162  O     O_R   0.791574 0.397899 0.814573 -0.402994
N46   N     N_R   0.239876 0.370431 0.187985 0.223009
O163  O     O_R   0.257728 0.356812 0.160712 -0.346768
O164  O     O_R   0.209740 0.396323 0.185377 -0.403097
N47   N     N_R   0.244657 0.370453 0.812249 0.226614
O165  O     O_R   0.266084 0.357504 0.838714 -0.337113
O166  O     O_R   0.213410 0.395611 0.816038 -0.392724
N48   N     N_R   0.756124 0.371686 0.187123 0.227126
O167  O     O_R   0.734654 0.359159 0.160472 -0.334456
O168  O     O_R   0.787243 0.396976 0.183728 -0.392247
C321  C     C_1   0.548442 0.552850 0.281195 0.262816
N49   N     N_1   0.565144 0.577791 0.291459 -0.145764
C322  C     C_1   0.450081 0.520867 0.692272 0.268288
N50   N     N_1   0.432555 0.526920 0.666316 -0.174565
C323  C     C_1   0.450997 0.526257 0.305383 0.271452
N51   N     N_1   0.433988 0.534483 0.330891 -0.162049
C324  C     C_1   0.548052 0.549154 0.713113 0.269988
N52   N     N_1   0.564573 0.572964 0.700358 -0.145785
C325  C     C_1   0.048747 0.554379 0.778447 0.261044
N53   N     N_1   0.065612 0.579726 0.787543 -0.149524
C326  C     C_1   0.950273 0.521856 0.192666 0.268599
N54   N     N_1   0.932857 0.528295 0.166770 -0.173894
C327  C     C_1   0.951359 0.528967 0.804004 0.272972
N55   N     N_1   0.934549 0.538318 0.829182 -0.160856
C328  C     C_1   0.048093 0.549928 0.214215 0.269214
N56   N     N_1   0.064628 0.573994 0.201953 -0.148447
C329  C     C_1   0.048041 0.048830 0.287333 0.270097
N57   N     N_1   0.064560 0.072529 0.300291 -0.145964
C330  C     C_1   0.951093 0.026931 0.694946 0.271736
N58   N     N_1   0.934137 0.035435 0.669513 -0.161663
C331  C     C_1   0.950004 0.020465 0.307883 0.267921
N59   N     N_1   0.932433 0.026359 0.333861 -0.174618
C332  C     C_1   0.048510 0.053251 0.719497 0.262010
N60   N     N_1   0.065247 0.078303 0.709531 -0.145802
C333  C     C_1   0.548078 0.049717 0.786086 0.269272
N61   N     N_1   0.564608 0.073715 0.798482 -0.145876
C334  C     C_1   0.451150 0.027344 0.195152 0.271022
N62   N     N_1   0.434226 0.036019 0.169768 -0.161761
C335  C     C_1   0.450222 0.021580 0.807444 0.267601
N63   N     N_1   0.432776 0.027911 0.833357 -0.174435
C336  C     C_1   0.548555 0.053488 0.219915 0.261807
N64   N     N_1   0.565316 0.078604 0.210126 -0.145900
C337  C     C_1   0.706250 0.947940 0.547438 0.203169
N65   N     N_1   0.687319 0.926889 0.531691 -0.133497
C338  C     C_1   0.293324 0.947799 0.452548 0.202999
N66   N     N_1   0.311973 0.926640 0.468295 -0.133484
C339  C     C_1   0.334837 0.979982 0.547787 0.201379
N67   N     N_1   0.369473 0.971247 0.532086 -0.153233
C340  C     C_1   0.665240 0.980350 0.452275 0.201335
N68   N     N_1   0.630512 0.971825 0.468006 -0.153492
C341  C     C_1   0.207683 0.947378 0.047483 0.202189
N69   N     N_1   0.189316 0.926105 0.031743 -0.135076
C342  C     C_1   0.792594 0.947519 0.952527 0.201928
N70   N     N_1   0.810955 0.926248 0.968272 -0.135066
C343  C     C_1   0.834728 0.979762 0.047779 0.201084
N71   N     N_1   0.869306 0.970930 0.032076 -0.153295
C344  C     C_1   0.165490 0.979860 0.952294 0.201023
N72   N     N_1   0.130886 0.971127 0.968030 -0.153489
C345  C     C_1   0.165236 0.480348 0.547727 0.201645
N73   N     N_1   0.130509 0.471820 0.531996 -0.153167
C346  C     C_1   0.834642 0.479615 0.452230 0.201331
N74   N     N_1   0.869182 0.470723 0.467937 -0.152981
C347  C     C_1   0.792197 0.447365 0.547489 0.202281
N75   N     N_1   0.810404 0.426035 0.531748 -0.134791
C348  C     C_1   0.206278 0.447933 0.452565 0.202970
N76   N     N_1   0.187360 0.426877 0.468314 -0.133750
C349  C     C_1   0.665333 0.480162 0.047720 0.201062
N77   N     N_1   0.630651 0.471556 0.031987 -0.153728
C350  C     C_1   0.334734 0.479768 0.952222 0.200782
N78   N     N_1   0.369314 0.470939 0.967925 -0.153616
C351  C     C_1   0.292595 0.447516 0.047477 0.202144
N79   N     N_1   0.310958 0.426246 0.031734 -0.134797
C352  C     C_1   0.706708 0.447759 0.952550 0.202926
N80   N     N_1   0.687964 0.426634 0.968296 -0.133748
C353  C     C_1   0.702804 0.944949 0.618568 0.281569
N81   N     N_1   0.682587 0.922384 0.631253 -0.085756
C354  C     C_1   0.296460 0.944696 0.381410 0.280963
N82   N     N_1   0.316269 0.921982 0.368718 -0.085133
C355  C     C_1   0.340064 0.979208 0.619118 0.241191
N83   N     N_1   0.377295 0.970557 0.632055 -0.153111
C356  C     C_1   0.659816 0.979687 0.380939 0.240449
N84   N     N_1   0.622431 0.971291 0.368026 -0.152484
C357  C     C_1   0.204508 0.944323 0.118638 0.278913
N85   N     N_1   0.185037 0.921491 0.131354 -0.083739
C358  C     C_1   0.795565 0.944373 0.881377 0.278577
N86   N     N_1   0.814976 0.921518 0.868669 -0.082874
C359  C     C_1   0.839964 0.978994 0.119107 0.241156
N87   N     N_1   0.877149 0.970252 0.132040 -0.152421
C360  C     C_1   0.160038 0.979215 0.880966 0.240848
N88   N     N_1   0.122747 0.970621 0.868062 -0.151533
C361  C     C_1   0.159816 0.479683 0.619062 0.240693
N89   N     N_1   0.122434 0.471282 0.631977 -0.151935
C362  C     C_1   0.839893 0.478854 0.380905 0.241576
N90   N     N_1   0.877051 0.470057 0.367977 -0.152330
C363  C     C_1   0.795111 0.444211 0.618646 0.278619
N91   N     N_1   0.814329 0.421290 0.631363 -0.083307
C364  C     C_1   0.202840 0.444937 0.381434 0.281504
N92   N     N_1   0.182641 0.422365 0.368750 -0.085384
C365  C     C_1   0.659904 0.479497 0.119052 0.240547
N93   N     N_1   0.622558 0.471019 0.131962 -0.152238
C366  C     C_1   0.339971 0.479004 0.880893 0.240909
N94   N     N_1   0.377159 0.470268 0.867960 -0.152893
C367  C     C_1   0.295564 0.444371 0.118627 0.278659
N95   N     N_1   0.314975 0.421517 0.131337 -0.083190
C368  C     C_1   0.703335 0.444751 0.881413 0.281168
N96   N     N_1   0.683351 0.422102 0.868720 -0.085538

loop_
_geom_bond_atom_site_label_1
_geom_bond_atom_site_label_2
_geom_bond_distance
_ccdc_geom_bond_type
Zn29  O101  1.940105 S    
C312  N24   1.157280 T    
Zn4   O4    1.939325 S    
C339  N67   1.157316 T    
O98   C10   1.269341 A    
C170  C186  1.351113 D    
N33   O137  1.301398 A    
C188  H44   1.085883 S    
C119  C135  1.401221 A    
C29   C235  1.484106 S    
C30   C236  1.484619 S    
C341  N69   1.157320 T    
C113  H17   1.084154 S    
C351  N79   1.157324 T    
O55   C40   1.284249 A    
C208  C288  1.408820 A    
C122  C138  1.401259 A    
C25   C239  1.484211 S    
O56   C39   1.284046 A    
C70   C81   1.400982 A    
C26   C240  1.484516 S    
C74   C86   1.401010 A    
C272  C320  1.445536 S    
Zn23  O95   1.940192 S    
C316  N28   1.157287 T    
Zn26  O98   1.940198 S    
C204  C284  1.408804 A    
C283  C299  1.440325 S    
C176  C336  1.453461 S    
Zn1   O14   1.941002 S    
C248  H56   1.084743 S    
C31   C233  1.479945 S    
N44   O159  1.301404 A    
C207  C351  1.452736 S    
C54   N6    1.441969 S    
C206  C222  1.410125 A    
C251  C267  1.394436 A    
Zn3   O16   1.941096 S    
O16   C8    1.277396 A    
C211  C355  1.450764 S    
C305  N17   1.157285 T    
C249  C265  1.394177 A    
C244  C260  1.394175 A    
N46   O163  1.301501 A    
O60   C44   1.279066 A    
C224  C240  1.420728 A    
C135  C148  1.420191 A    
C64   N16   1.441943 S    
C54   C70   1.400984 A    
C239  C255  1.405370 A    
O50   C38   1.284027 A    
C115  C155  1.393159 A    
C240  C256  1.405486 A    
C13   C180  1.460635 S    
C168  C184  1.352490 D    
Zn11  O83   1.924655 S    
O97   C9    1.269488 A    
C236  C252  1.405521 A    
Zn2   O2    1.939153 S    
N37   O146  1.301475 A    
C80   C87   1.400920 A    
C231  C247  1.404316 A    
C60   C96   1.415566 A    
C217  C361  1.450742 S    
C232  C248  1.404329 A    
C200  C280  1.409704 A    
C265  C281  1.404816 A    
C118  H22   1.084054 S    
C242  C258  1.394439 A    
O104  C16   1.269341 A    
Zn29  O37   1.924500 S    
Zn14  O65   1.918613 S    
O36   C28   1.282816 A    
C133  C146  1.419781 A    
C112  C160  1.431236 S    
Zn31  O55   1.917960 S    
C310  N22   1.157288 T    
Zn7   O79   1.924655 S    
C139  C151  1.419772 A    
C274  C290  1.440301 S    
C126  C142  1.401222 A    
C175  C335  1.453880 S    
C50   C90   1.415563 A    
C212  C356  1.450744 S    
Zn26  O6    1.939404 S    
C44   C148  1.470041 S    
C367  N95   1.157460 T    
C45   C149  1.470036 S    
C198  C214  1.410172 A    
Zn8   O3    1.939325 S    
C47   C151  1.470864 S    
O47   C36   1.284046 A    
Zn12  O8    1.939325 S    
C14   C179  1.457646 S    
O17   C9    1.277234 A    
C66   C82   1.400858 A    
C184  H40   1.085887 S    
C340  N68   1.157315 T    
C330  N58   1.157545 T    
C143  C152  1.419776 A    
C298  C299  1.199864 T    
C144  C151  1.419703 A    
C41   C145  1.470857 S    
O95   C7    1.269310 A    
N40   O152  1.301469 A    
O96   C8    1.269595 A    
C178  H34   1.085649 S    
C321  N49   1.157574 T    
C136  N40   1.440288 S    
C246  H54   1.084492 S    
Zn5   O77   1.924668 S    
C135  N39   1.440206 S    
C221  C365  1.450743 S    
C104  C112  1.201299 T    
C134  C145  1.419775 A    
C93   C101  1.438210 S    
C323  N51   1.157546 T    
C290  C291  1.199841 T    
C185  H41   1.085861 S    
C324  N52   1.157586 T    
C270  C286  1.404719 A    
O87   C31   1.280958 A    
C77   H13   1.083124 S    
C100  C108  1.201445 T    
C101  C109  1.201444 T    
C78   H14   1.083086 S    
C194  C274  1.408799 A    
C276  C292  1.440292 S    
C214  C358  1.450727 S    
O23   C15   1.275240 A    
C243  H51   1.084682 S    
C206  C350  1.452323 S    
C50   N2    1.441939 S    
Zn6   O1    1.939153 S    
C259  C275  1.404727 A    
C125  C158  1.393163 A    
Zn10  O6    1.939153 S    
C189  H45   1.085873 S    
N14   O131  1.301582 A    
C257  C273  1.404310 A    
C68   C84   1.400944 A    
C9    C184  1.460285 S    
Zn19  O3    1.939382 S    
N45   O161  1.301460 A    
C260  C308  1.445519 S    
C125  C141  1.400442 A    
C116  H20   1.084127 S    
C56   N8    1.441987 S    
C132  C148  1.420114 A    
C127  H31   1.084055 S    
C119  C156  1.393467 A    
C165  C181  1.351334 D    
Zn2   O74   1.924667 S    
C209  C353  1.450760 S    
C318  N30   1.157281 T    
O83   C27   1.280959 A    
C319  N31   1.157287 T    
C215  C359  1.450765 S    
C205  C285  1.409735 A    
O82   C26   1.281085 A    
C59   N11   1.441969 S    
C350  N78   1.157320 T    
C60   C76   1.401029 A    
C203  C283  1.408857 A    
O72   C47   1.279300 A    
N38   O147  1.301409 A    
C54   C89   1.415458 A    
C124  C140  1.399983 A    
Zn23  O4    1.939382 S    
C58   C94   1.415517 A    
O33   C25   1.284880 A    
C338  N66   1.157320 T    
C221  C237  1.418016 A    
Zn28  O8    1.939592 S    
C245  C261  1.394456 A    
O99   C11   1.269346 A    
C192  H48   1.085883 S    
C335  N63   1.157558 T    
C281  C297  1.440294 S    
O75   C19   1.281098 A    
Zn11  O24   1.941096 S    
C198  C342  1.452735 S    
C229  C245  1.405405 A    
C163  C323  1.453576 S    
C204  C348  1.452761 S    
C36   C86   1.475409 S    
C122  C158  1.393460 A    
O73   C17   1.281008 A    
C196  C276  1.409763 A    
C71   H7    1.083085 S    
C343  N71   1.157318 T    
O15   C7    1.276088 A    
C270  C318  1.445547 S    
C342  N70   1.157330 T    
C254  H62   1.084674 S    
Zn16  O19   1.941003 S    
C247  C263  1.394177 A    
C202  C346  1.452333 S    
C21   C227  1.480295 S    
O77   C21   1.280997 A    
C120  C136  1.401272 A    
C22   C228  1.479939 S    
N41   O153  1.301493 A    
C4    C189  1.460384 S    
O22   C14   1.276012 A    
C251  H59   1.084498 S    
N37   O145  1.301393 A    
C167  C183  1.351381 D    
Zn28  O52   1.917853 S    
C50   C66   1.401076 A    
C249  H57   1.084758 S    
C63   C79   1.400980 A    
C55   C92   1.415503 A    
Zn28  O36   1.924481 S    
C73   C85   1.400943 A    
C161  C321  1.453415 S    
Zn16  O88   1.924687 S    
N16   O135  1.301593 A    
C186  H42   1.085844 S    
C19   C229  1.484272 S    
Zn7   O60   1.918597 S    
C62   C93   1.415500 A    
C193  C209  1.410213 A    
N47   O165  1.301412 A    
C126  H30   1.084029 S    
O91   C3    1.269309 A    
C226  C242  1.405430 A    
C264  C312  1.445515 S    
C141  N45   1.440248 S    
O44   C36   1.284128 A    
N48   O167  1.301391 A    
C144  N48   1.439269 S    
C197  C341  1.452723 S    
O93   C5    1.269310 A    
C39   C81   1.475166 S    
Zn29  O6    1.939556 S    
C61   N13   1.441941 S    
C115  C131  1.400447 A    
C211  C227  1.418199 A    
C216  C232  1.418114 A    
C126  C157  1.393462 A    
O67   C47   1.279634 A    
C190  H46   1.085851 S    
C199  C279  1.409635 A    
C114  H18   1.084153 S    
C28   C238  1.480430 S    
O20   C12   1.276304 A    
C56   C91   1.415501 A    
O39   C31   1.282387 A    
O21   C13   1.277337 A    
O40   C32   1.282852 A    
C207  C287  1.408836 A    
C205  C349  1.452299 S    
N40   O151  1.301475 A    
C216  C360  1.450743 S    
C55   N7    1.441966 S    
C214  C230  1.420582 A    
C208  C352  1.452751 S    
C2    C191  1.456743 S    
C208  C224  1.410216 A    
C267  C315  1.445541 S    
N9    O121  1.301595 A    
C113  C153  1.393359 A    
C173  C175  1.470962 S    
Zn2   O13   1.941089 S    
N1    O106  1.301331 A    
C91   C99   1.438302 S    
C142  N46   1.440207 S    
Zn26  O34   1.924468 S    
C179  H35   1.085825 S    
C205  C221  1.410093 A    
C201  C281  1.409756 A    
C77   C86   1.400951 A    
C53   C69   1.401011 A    
C58   N10   1.441961 S    
Zn17  O41   1.917868 S    
C164  C324  1.453209 S    
O45   C34   1.284040 A    
C7    C186  1.457798 S    
Zn19  O27   1.924480 S    
O81   C25   1.281094 A    
C52   C68   1.401126 A    
C255  H63   1.084489 S    
C263  C311  1.445547 S    
C277  C293  1.440435 S    
Zn28  O100  1.940105 S    
O49   C37   1.283892 A    
C48   C152  1.470849 S    
N13   O129  1.301592 A    
C58   C74   1.401088 A    
Zn18  O2    1.939404 S    
C141  C150  1.420108 A    
C284  C300  1.440413 S    
Zn3   O3    1.939180 S    
C12   C181  1.458084 S    
N42   O156  1.301465 A    
C365  N93   1.157522 T    
C257  C305  1.445543 S    
C209  C225  1.420809 A    
N43   O158  1.301470 A    
C55   C71   1.401061 A    
N10   O123  1.301586 A    
C10   C183  1.458304 S    
C122  H26   1.084012 S    
Zn13  O6    1.939365 S    
C168  C328  1.453252 S    
C63   N15   1.441972 S    
C63   C96   1.415460 A    
C164  C180  1.352676 D    
C175  C191  1.350639 D    
N6    O116  1.301302 A    
C27   C237  1.480048 S    
C173  C333  1.453217 S    
C349  N77   1.157319 T    
C170  C172  1.470031 S    
C138  C150  1.420182 A    
N8    O120  1.301301 A    
Zn20  O28   1.924481 S    
C233  C249  1.404258 A    
N3    O109  1.301583 A    
C196  C340  1.452286 S    
C53   C90   1.415465 A    
C173  C189  1.352537 D    
C139  N43   1.439348 S    
C46   C150  1.469869 S    
C220  C364  1.450756 S    
Zn21  O29   1.924500 S    
C127  C160  1.393667 A    
C191  H47   1.085682 S    
C252  H60   1.084486 S    
N7    O117  1.301583 A    
C198  C278  1.408843 A    
C127  C143  1.400816 A    
C162  C178  1.350610 D    
Zn9   O22   1.941002 S    
C142  C149  1.420189 A    
C72   H8    1.083122 S    
C247  H55   1.084677 S    
Zn9   O81   1.924668 S    
C66   H2    1.083090 S    
N4    O111  1.301595 A    
C140  N44   1.439283 S    
C116  C132  1.400397 A    
C183  H39   1.085882 S    
C117  C133  1.400851 A    
C210  C226  1.420708 A    
N44   O160  1.301493 A    
C244  H52   1.084756 S    
C223  C239  1.420584 A    
C245  H53   1.084501 S    
C64   C80   1.401034 A    
Zn15  O87   1.924655 S    
N11   O126  1.301304 A    
C167  C327  1.453456 S    
O37   C29   1.284813 A    
Zn20  O92   1.940105 S    
Zn12  O23   1.941003 S    
Zn27  O35   1.924480 S    
Zn13  O18   1.941002 S    
C123  C139  1.400806 A    
O63   C44   1.279394 A    
C314  N26   1.157282 T    
C102  C110  1.201476 T    
Zn24  O32   1.924481 S    
C309  N21   1.157277 T    
C301  C304  1.199909 T    
Zn1   O73   1.924668 S    
C254  C270  1.394175 A    
C267  C283  1.404362 A    
C195  C339  1.452309 S    
C172  C332  1.453442 S    
C307  N19   1.157283 T    
C131  N35   1.440239 S    
C203  C347  1.452722 S    
C128  C159  1.393353 A    
C95   C103  1.437974 S    
N2    O107  1.301585 A    
Zn12  O84   1.924687 S    
Zn4   O15   1.941003 S    
C17   C231  1.480434 S    
C133  N37   1.439361 S    
Zn5   O10   1.941002 S    
O58   C42   1.279345 A    
C18   C232  1.480233 S    
C218  C362  1.450763 S    
O10   C2    1.275348 A    
N12   O128  1.301330 A    
C256  H64   1.084489 S    
Zn7   O4    1.939180 S    
C278  C294  1.440316 S    
N15   O133  1.301587 A    
Zn8   O11   1.941003 S    
Zn15  O68   1.918597 S    
C362  N90   1.157526 T    
C130  C146  1.419716 A    
C134  N38   1.439359 S    
C333  N61   1.157589 T    
C53   N5    1.441999 S    
C328  N56   1.157576 T    
O14   C6    1.275210 A    
C213  C357  1.450737 S    
C263  C279  1.404719 A    
C116  C156  1.393168 A    
N12   O127  1.301595 A    
C162  C164  1.471193 S    
C68   H4    1.083116 S    
N2    O108  1.301331 A    
C69   C82   1.401081 A    
C23   C225  1.484635 S    
C3    C190  1.457894 S    
Zn8   O80   1.924687 S    
N5    O113  1.301590 A    
C174  C176  1.470007 S    
C282  C298  1.440232 S    
C51   N3    1.441936 S    
C332  N60   1.157567 T    
C222  C238  1.418276 A    
C195  C211  1.410108 A    
Zn31  O8    1.939382 S    
C250  C266  1.394184 A    
O78   C22   1.280957 A    
C361  N89   1.157521 T    
Zn32  O7    1.939592 S    
C49   C65   1.401031 A    
Zn22  O1    1.939404 S    
Zn10  O21   1.941089 S    
O79   C23   1.281084 A    
C34   C88   1.475162 S    
O26   C18   1.282534 A    
C99   C107  1.201495 T    
C230  C246  1.405374 A    
C114  C130  1.399987 A    
O85   C29   1.281100 A    
Zn9   O70   1.918506 S    
N47   O166  1.301475 A    
C336  N64   1.157564 T    
O30   C22   1.282387 A    
Zn11  O72   1.918597 S    
O31   C23   1.284921 A    
O24   C16   1.276678 A    
C130  N34   1.439246 S    
Zn10  O82   1.924667 S    
C285  C301  1.440291 S    
O18   C10   1.276392 A    
Zn23  O31   1.924480 S    
C210  C354  1.450741 S    
C253  H61   1.084754 S    
C360  N88   1.157520 T    
Zn26  O50   1.917943 S    
O13   C5    1.276564 A    
N33   O138  1.301495 A    
Zn17  O1    1.939556 S    
C64   C95   1.415567 A    
C265  C313  1.445519 S    
C169  C171  1.471338 S    
O84   C28   1.281009 A    
C117  C154  1.393680 A    
C165  C167  1.469980 S    
C255  C271  1.394442 A    
C107  C155  1.431608 S    
C129  N33   1.439277 S    
O71   C48   1.279630 A    
C172  C188  1.351629 D    
C275  C291  1.440199 S    
O90   C2    1.269368 A    
Zn12  O71   1.918522 S    
C51   C91   1.415621 A    
C273  C289  1.440413 S    
C344  N72   1.157316 T    
C108  C156  1.431532 S    
O101  C13   1.269550 A    
C49   C89   1.415567 A    
Zn21  O2    1.939556 S    
C94   C102  1.438277 S    
C311  N23   1.157283 T    
O25   C17   1.282817 A    
O94   C6    1.269386 A    
C356  N84   1.157519 T    
Zn30  O5    1.939404 S    
C103  C111  1.201295 T    
O62   C41   1.279633 A    
N14   O132  1.301310 A    
O66   C46   1.279344 A    
C306  N18   1.157283 T    
O28   C20   1.284872 A    
C67   C83   1.400895 A    
O29   C21   1.282746 A    
Zn4   O63   1.918522 S    
C250  H58   1.084672 S    
C204  C220  1.410215 A    
C65   C81   1.400922 A    
C348  N76   1.157325 T    
O76   C20   1.281101 A    
C115  H19   1.084112 S    
O61   C42   1.279643 A    
Zn19  O91   1.940192 S    
C174  C334  1.453526 S    
O32   C24   1.284988 A    
N1    O105  1.301597 A    
C89   C97   1.437980 S    
Zn8   O59   1.918522 S    
C199  C215  1.410124 A    
Zn15  O20   1.941096 S    
O65   C45   1.279072 A    
C200  C216  1.410118 A    
C72   C83   1.401090 A    
Zn22  O46   1.917943 S    
C76   C88   1.400922 A    
C193  C337  1.452760 S    
C212  C228  1.417949 A    
O88   C32   1.281017 A    
C121  H25   1.084125 S    
Zn17  O89   1.940105 S    
N10   O124  1.301300 A    
Zn32  O104  1.940105 S    
C140  C152  1.419709 A    
C271  C287  1.404346 A    
C259  C307  1.445548 S    
C52   C92   1.415605 A    
O34   C26   1.284850 A    
C120  H24   1.084017 S    
O41   C33   1.284037 A    
C42   C146  1.470948 S    
C269  C285  1.404808 A    
C136  C147  1.420191 A    
N5    O114  1.301302 A    
C219  C363  1.450725 S    
C195  C275  1.409661 A    
C302  C303  1.199852 T    
C241  H49   1.084483 S    
C266  C282  1.404715 A    
O70   C45   1.279394 A    
C193  C273  1.408804 A    
O92   C4    1.269522 A    
Zn10  O69   1.918613 S    
C287  C303  1.440315 S    
C97   C105  1.201296 T    
C200  C344  1.452318 S    
Zn13  O85   1.924668 S    
C119  H23   1.084025 S    
C272  C288  1.404321 A    
C65   H1    1.083128 S    
C20   C230  1.484204 S    
C128  C144  1.399975 A    
C35   C85   1.475371 S    
O43   C35   1.284030 A    
C113  C129  1.399986 A    
O54   C37   1.284286 A    
C258  C274  1.404319 A    
N45   O162  1.301481 A    
C162  C322  1.453927 S    
C74   H10   1.083092 S    
C15   C178  1.456647 S    
C237  C253  1.404285 A    
C354  N82   1.157463 T    
C73   H9    1.083117 S    
C279  C295  1.440221 S    
Zn14  O5    1.939153 S    
N16   O136  1.301330 A    
N7    O118  1.301307 A    
C248  C264  1.394208 A    
C353  N81   1.157482 T    
C59   C95   1.415460 A    
C166  C182  1.350661 D    
O103  C15   1.269360 A    
C118  C153  1.393666 A    
C182  H38   1.085704 S    
C206  C286  1.409635 A    
O64   C43   1.279313 A    
C355  N83   1.157525 T    
O68   C48   1.279296 A    
N48   O168  1.301488 A    
Zn15  O8    1.939180 S    
C234  C250  1.404336 A    
Zn22  O94   1.940198 S    
Zn16  O7    1.939325 S    
C129  C145  1.419708 A    
C358  N86   1.157466 T    
C76   H12   1.083126 S    
C202  C282  1.409620 A    
C225  C241  1.405522 A    
C357  N85   1.157463 T    
C33   C87   1.475156 S    
C293  C296  1.199928 T    
C177  H33   1.085887 S    
N43   O157  1.301398 A    
C246  C262  1.394435 A    
C57   C93   1.415602 A    
C124  C160  1.393367 A    
C79   C88   1.400979 A    
Zn4   O76   1.924687 S    
O48   C35   1.284124 A    
O52   C40   1.283822 A    
C261  C309  1.445531 S    
C37   C83   1.475433 S    
Zn17  O25   1.924500 S    
Zn3   O75   1.924655 S    
C346  N74   1.157316 T    
N3    O110  1.301336 A    
C121  C157  1.393172 A    
C170  C330  1.453551 S    
O51   C39   1.284000 A    
Zn27  O99   1.940192 S    
C345  N73   1.157317 T    
C123  C159  1.393661 A    
C334  N62   1.157545 T    
C238  C254  1.404312 A    
C199  C343  1.452322 S    
Zn25  O97   1.940105 S    
C5    C188  1.458629 S    
N46   O164  1.301474 A    
Zn1   O1    1.939365 S    
C322  N50   1.157558 T    
C118  C134  1.400814 A    
C368  N96   1.157465 T    
C165  C325  1.453533 S    
C363  N91   1.157457 T    
C218  C234  1.418320 A    
C258  C306  1.445544 S    
C217  C233  1.417955 A    
C260  C276  1.404814 A    
C1    C192  1.458511 S    
C79   H15   1.083087 S    
C117  H21   1.084053 S    
N15   O134  1.301302 A    
C70   H6    1.083089 S    
O38   C30   1.284908 A    
C187  H43   1.085630 S    
C166  C168  1.470887 S    
C256  C272  1.394462 A    
Zn14  O17   1.941089 S    
N39   O150  1.301475 A    
O89   C1    1.269305 A    
O102  C14   1.269329 A    
C61   C94   1.415618 A    
C111  C159  1.431231 S    
Zn27  O7    1.939382 S    
Zn20  O44   1.917853 S    
C268  C316  1.445539 S    
C261  C277  1.404358 A    
Zn13  O66   1.918506 S    
C252  C268  1.394465 A    
C109  C157  1.431531 S    
C163  C179  1.351033 D    
C128  H32   1.084151 S    
C224  C368  1.450753 S    
Zn24  O48   1.917853 S    
C40   C82   1.475224 S    
C366  N94   1.157528 T    
C197  C213  1.410228 A    
N6    O115  1.301586 A    
Zn14  O86   1.924667 S    
Zn6   O9    1.941089 S    
O59   C43   1.279079 A    
C105  C153  1.431241 S    
N11   O125  1.301582 A    
C32   C234  1.480517 S    
Zn3   O64   1.918597 S    
O57   C41   1.279307 A    
Zn30  O54   1.917943 S    
Zn27  O51   1.917960 S    
O74   C18   1.280976 A    
Zn30  O38   1.924468 S    
N36   O143  1.301493 A    
C138  N42   1.440309 S    
Zn5   O58   1.918506 S    
Zn25  O49   1.917868 S    
C131  C147  1.420114 A    
C266  C314  1.445546 S    
C51   C67   1.401182 A    
Zn25  O5    1.939556 S    
C16   C177  1.458824 S    
C6    C187  1.456599 S    
Zn18  O42   1.917943 S    
C75   H11   1.083088 S    
Zn6   O78   1.924667 S    
C269  C317  1.445518 S    
C359  N87   1.157527 T    
C143  N47   1.439360 S    
C24   C226  1.484389 S    
N41   O154  1.301492 A    
C180  H36   1.085862 S    
C71   C84   1.401011 A    
C114  C154  1.393354 A    
N36   O144  1.301491 A    
C8    C185  1.460784 S    
Zn24  O3    1.939592 S    
C137  C149  1.420119 A    
C137  N41   1.440143 S    
C220  C236  1.420800 A    
C78   C85   1.401009 A    
Zn25  O33   1.924500 S    
N34   O139  1.301388 A    
C194  C210  1.410162 A    
C223  C367  1.450731 S    
C52   N4    1.441948 S    
N39   O149  1.301497 A    
N35   O142  1.301486 A    
O27   C19   1.284698 A    
Zn1   O62   1.918506 S    
Zn20  O4    1.939592 S    
Zn30  O102  1.940198 S    
C228  C244  1.404254 A    
O86   C30   1.281092 A    
O46   C33   1.283999 A    
N34   O140  1.301486 A    
C288  C304  1.440412 S    
C124  H28   1.084154 S    
N4    O112  1.301333 A    
C59   C75   1.400980 A    
C132  N36   1.440135 S    
C227  C243  1.404280 A    
Zn22  O30   1.924468 S    
C194  C338  1.452754 S    
C57   C73   1.401124 A    
C308  N20   1.157280 T    
O19   C11   1.275367 A    
Zn5   O2    1.939365 S    
C242  H50   1.084482 S    
Zn9   O5    1.939365 S    
C161  C163  1.470089 S    
C123  H27   1.084052 S    
C120  C155  1.393479 A    
Zn7   O12   1.941096 S    
Zn11  O7    1.939180 S    
C280  C296  1.440323 S    
C49   N1    1.441945 S    
C201  C345  1.452289 S    
Zn18  O90   1.940198 S    
C56   C72   1.401082 A    
C235  C251  1.405339 A    
C75   C87   1.400978 A    
Zn32  O56   1.917853 S    
C271  C319  1.445545 S    
C57   N9    1.441948 S    
C174  C190  1.351165 D    
C286  C302  1.440219 S    
Zn24  O96   1.940105 S    
C325  N53   1.157563 T    
C213  C229  1.420567 A    
O9    C1    1.276507 A    
C110  C158  1.431581 S    
C352  N80   1.157317 T    
C347  N75   1.157322 T    
C294  C295  1.199852 T    
C92   C100  1.438212 S    
O100  C12   1.269302 A    
Zn29  O53   1.917868 S    
C196  C212  1.410092 A    
Zn2   O61   1.918613 S    
N38   O148  1.301476 A    
Zn18  O26   1.924468 S    
C106  C154  1.431311 S    
C38   C84   1.475363 S    
C253  C269  1.394183 A    
C364  N92   1.157478 T    
C96   C104  1.437977 S    
Zn16  O67   1.918522 S    
C215  C231  1.418280 A    
C197  C277  1.408872 A    
C203  C219  1.410173 A    
C264  C280  1.404800 A    
Zn6   O57   1.918613 S    
C329  N57   1.157580 T    
C60   N12   1.441943 S    
C201  C217  1.410094 A    
C169  C185  1.352760 D    
C67   H3    1.083092 S    
C297  C300  1.199911 T    
Zn19  O43   1.917960 S    
C161  C177  1.351736 D    
C320  N32   1.157279 T    
N13   O130  1.301333 A    
O53   C38   1.284121 A    
C219  C235  1.420515 A    
C331  N59   1.157549 T    
C222  C366  1.450763 S    
O11   C3    1.276147 A    
C313  N25   1.157280 T    
C327  N55   1.157549 T    
C11   C182  1.456787 S    
C262  C278  1.404346 A    
C207  C223  1.410171 A    
C69   H5    1.083128 S    
N42   O155  1.301470 A    
N9    O122  1.301334 A    
C121  C137  1.400401 A    
O12   C4    1.277280 A    
C62   N14   1.441967 S    
C243  C259  1.394157 A    
C315  N27   1.157279 T    
C289  C292  1.199905 T    
O42   C34   1.284000 A    
Zn31  O103  1.940192 S    
C43   C147  1.469925 S    
C90   C98   1.438060 S    
C176  C192  1.351564 D    
C241  C257  1.394472 A    
N35   O141  1.301468 A    
C268  C284  1.404314 A    
O35   C27   1.282446 A    
O80   C24   1.281091 A    
C169  C329  1.453211 S    
C61   C77   1.401151 A    
C125  H29   1.084113 S    
C262  C310  1.445544 S    
C317  N29   1.157283 T    
Zn21  O45   1.917868 S    
C171  C331  1.453965 S    
N8    O119  1.301591 A    
C80   H16   1.083129 S    
C171  C187  1.350601 D    
C202  C218  1.410134 A    
Zn23  O47   1.917960 S    
C337  N65   1.157329 T    
Zn21  O93   1.940105 S    
C98   C106  1.201337 T    
O69   C46   1.279023 A    
C326  N54   1.157557 T    
C181  H37   1.085866 S    
Zn31  O39   1.924480 S    
Zn32  O40   1.924481 S    
C166  C326  1.453876 S    
C62   C78   1.401063 A    
