data_mof_unit_pretest_1474.cif
_audit_creation_date              2012-12-10T16:59:25-0500
_audit_creation_method            fapswitch 2.2
_symmetry_space_group_name_H-M    P1
_symmetry_Int_Tables_number       1
_space_group_crystal_system       triclinic
_cell_length_a                    13.125745
_cell_length_b                    13.172474
_cell_length_c                    17.930551
_cell_angle_alpha                 110.319267
_cell_angle_beta                  72.762686
_cell_angle_gamma                 91.024308
_cell_volume                      2764.13251028

loop_
_atom_site_label
_atom_site_type_symbol
_atom_type_description
_atom_site_fract_x
_atom_site_fract_y
_atom_site_fract_z
_atom_type_partial_charge
C1    C     C_R   0.216847 0.543309 0.531989 0.514949
C2    C     C_R   0.571662 0.388745 0.901985 -0.139677
C3    C     C_R   0.618038 0.322665 0.931099 -0.083005
C4    C     C_R   0.781880 0.456445 0.468410 0.503849
C5    C     C_R   0.608891 0.353718 0.016102 0.028013
C6    C     C_R   0.548596 0.453779 0.073105 -0.018224
C7    C     C_R   0.657334 0.286959 0.045864 0.225182
C8    C     C_R   0.641004 0.318026 0.131482 -0.128132
C9    C     C_R   0.519842 0.474369 0.160432 -0.042075
C10   C     C_2   0.896581 0.436989 0.452213 0.012327
C11   C     C_2   0.938789 0.494391 0.512334 -0.154392
C12   C     C_R   0.412404 0.719448 0.867484 0.256448
C13   C     C_2   0.101173 0.558291 0.547029 -0.104633
C14   C     C_2   0.052699 0.479572 0.503795 -0.165043
C15   C     C_2   0.534980 0.895491 0.533147 -0.079950
C16   C     C_R   0.473831 0.216689 0.474096 0.507389
C17   C     C_2   0.524722 0.931082 0.474059 -0.160955
C18   C     C_2   0.470880 0.099674 0.460837 -0.104349
C19   C     C_2   0.536881 0.045646 0.483352 -0.040198
C20   C     C_R   0.527313 0.782153 0.523757 0.511290
C21   C     C_R   0.552367 0.432660 0.276906 0.507417
C22   C     C_R   0.450767 0.569051 0.723739 0.536867
C23   C     C_R   0.472151 0.533653 0.844428 -0.168896
C24   C     C_R   0.441711 0.608691 0.813655 0.006896
C25   C     C_R   0.571621 0.408823 0.188156 -0.003307
C26   C     C_R   0.414106 0.750206 0.949888 -0.096841
C27   C     C_R   0.960551 0.361501 0.367566 0.025026
C28   C     C_R   0.924342 0.260227 0.332007 -0.101661
C29   C     C_R   0.981812 0.189533 0.251882 -0.113423
C30   C     C_R   0.075149 0.219774 0.205946 -0.087267
C31   C     C_R   0.110571 0.321180 0.239775 -0.101124
C32   C     C_R   0.053179 0.392248 0.319826 -0.094212
C33   C     C_R   0.626855 0.094706 0.513739 0.085702
C34   C     C_R   0.480884 0.566011 0.925610 0.024785
C35   C     C_R   0.610355 0.151925 0.599365 -0.055969
C36   C     C_R   0.695628 0.197102 0.627120 -0.084812
C37   C     C_R   0.797823 0.184530 0.569930 -0.078201
C38   C     C_R   0.815023 0.126409 0.484908 -0.116112
C39   C     C_R   0.729835 0.081763 0.456727 -0.086804
C40   C     C_R   0.422722 0.548061 0.220909 0.031483
C41   C     C_R   0.429009 0.635490 0.291601 -0.102464
C42   C     C_R   0.336700 0.701846 0.348157 -0.117812
C43   C     C_R   0.237728 0.682731 0.334180 -0.098478
C44   C     C_R   0.230962 0.597528 0.263430 -0.117085
C45   C     C_R   0.449206 0.675790 0.978683 0.001363
C46   C     C_R   0.322808 0.530173 0.207209 -0.082034
C47   C     C_R   0.521576 0.493206 0.955367 0.046525
C48   C     C_R   0.517973 0.528768 0.040590 0.036154
C49   C     C_R   0.492797 0.640399 0.089156 -0.109591
C50   C     C_R   0.457342 0.712150 0.059255 -0.116909
H1    H     H_    0.437943 0.797154 0.099084 0.123219
H2    H     H_    0.391535 0.834063 0.991578 0.164094
H3    H     H_    0.488696 0.449702 0.803343 0.130515
H4    H     H_    0.505492 0.675048 0.149321 0.127221
H5    H     H_    0.582772 0.358094 0.835839 0.100433
H6    H     H_    0.851604 0.158217 0.045182 0.344068
H7    H     H_    0.851535 0.235950 0.366296 0.109994
H8    H     H_    0.953717 0.111432 0.225306 0.124261
H9    H     H_    0.119552 0.165003 0.143887 0.141926
H10   H     H_    0.182196 0.344902 0.203709 0.117028
H11   H     H_    0.080508 0.471411 0.344249 0.122028
H12   H     H_    0.098482 0.403649 0.459390 0.173523
H13   H     H_    0.531444 0.162177 0.644179 0.108380
H14   H     H_    0.682632 0.241628 0.692933 0.105575
H15   H     H_    0.863763 0.219476 0.591521 0.124553
H16   H     H_    0.894418 0.116036 0.440829 0.110675
H17   H     H_    0.743989 0.037191 0.390657 0.105710
H18   H     H_    0.505370 0.653377 0.302249 0.125840
H19   H     H_    0.341973 0.768509 0.402596 0.104329
H20   H     H_    0.166380 0.734347 0.377899 0.118220
H21   H     H_    0.154416 0.583423 0.252236 0.112811
H22   H     H_    0.316237 0.464042 0.152891 0.114372
H23   H     H_    0.887210 0.554552 0.569704 0.139618
H24   H     H_    0.458895 0.887520 0.738190 0.365044
H25   H     H_    0.055953 0.634032 0.592419 0.129380
H26   H     H_    0.505443 0.876346 0.419812 0.113982
H27   H     H_    0.411440 0.056749 0.433813 0.098261
H28   H     H_    0.543852 0.951210 0.591314 0.106689
H29   H     H_    0.678868 0.268764 0.155048 0.143140
H30   H     H_    0.659458 0.245879 0.885754 0.195869
O1    O     O_3   0.500000 0.500000 0.500000 -0.452321
O2    O     O_R   0.474570 0.394560 0.317400 -0.527911
O3    O     O_R   0.403380 0.624270 0.695980 -0.453319
O4    O     O_R   0.609140 0.497770 0.314440 -0.549671
O5    O     O_R   0.512900 0.483390 0.672170 -0.557608
O6    O     O_2   0.674408 0.084035 0.936585 -0.221524
O7    O     O_2   0.828824 0.188544 0.912719 -0.285728
O8    O     O_3   0.794532 0.111461 0.032238 -0.493827
O9    O     O_2   0.277812 0.804706 0.812766 -0.243281
O10   O     O_2   0.365730 0.933687 0.903378 -0.282569
O11   O     O_3   0.480041 0.824923 0.750723 -0.503054
O12   O     O_R   0.526170 0.271940 0.521690 -0.533288
O13   O     O_R   0.451880 0.756290 0.574830 -0.514200
O14   O     O_R   0.271960 0.460780 0.472050 -0.540879
O15   O     O_R   0.749980 0.510990 0.431420 -0.532709
O16   O     O_R   0.262540 0.611050 0.579000 -0.521950
O17   O     O_R   0.715520 0.417170 0.517520 -0.537094
O18   O     O_R   0.426070 0.262540 0.438550 -0.538624
O19   O     O_R   0.595870 0.709230 0.464930 -0.535425
S1    S     S_3+6 0.740397 0.165369 0.978596 0.018556
S2    S     S_3+6 0.380149 0.824387 0.834853 0.044183
Zn1   Zn    Zn3+2 0.562560 0.419520 0.551940 0.942562
Zn2   Zn    Zn3+2 0.419550 0.406100 0.433160 0.944385
Zn3   Zn    Zn3+2 0.611810 0.553570 0.428930 0.944349
Zn4   Zn    Zn3+2 0.406080 0.620810 0.585960 1.022160

loop_
_geom_bond_atom_site_label_1
_geom_bond_atom_site_label_2
_ccdc_geom_bond_type
C10   C27   S    
C31   H10   S    
O16   Zn4   S    
C41   C42   A    
C35   C36   A    
C20   O13   A    
C6    C9    A    
C9    C25   A    
C7    C8    A    
C28   H7    S    
C40   C46   A    
C29   C30   A    
C6    C48   A    
C5    C6    A    
C28   C29   A    
C32   H11   S    
C2    H5    S    
C1    O16   A    
C30   C31   A    
C33   C35   A    
C11   C14   S    
H6    O8    S    
C15   H28   S    
C49   H4    S    
C14   H12   S    
C44   H21   S    
C18   C19   D    
C22   O5    A    
C26   C45   A    
O13   Zn4   S    
C13   H25   S    
C1    O14   A    
C37   H15   S    
C8    H29   S    
C23   C24   A    
O6    S1    D    
C46   H22   S    
O17   Zn1   S    
O12   Zn1   S    
O19   Zn3   S    
C4    O17   A    
C8    C25   A    
O11   S2    S    
C3    H30   S    
C44   C46   A    
C23   H3    S    
C41   H18   S    
O1    Zn1   S    
C15   C20   S    
O1    Zn4   S    
C7    S1    S    
C38   H16   S    
C19   C33   S    
C5    C7    A    
C42   H19   S    
O3    Zn4   S    
C12   C26   A    
H24   O11   S    
C43   C44   A    
O10   S2    D    
C37   C38   A    
C26   H2    S    
C17   H26   S    
C4    O15   A    
C47   C48   A    
C21   O4    A    
O2    Zn2   S    
C23   C34   A    
C30   H9    S    
C50   H1    S    
C34   C45   A    
C33   C39   A    
C21   O2    A    
O8    S1    S    
C16   C18   S    
C40   C41   A    
O14   Zn2   S    
C16   O12   A    
C43   H20   S    
C11   H23   S    
O4    Zn3   S    
C22   C24   S    
C1    C13   S    
C42   C43   A    
C4    C10   S    
O15   Zn3   S    
O7    S1    D    
O1    Zn2   S    
C15   C17   D    
C21   C25   S    
C48   C49   A    
O9    S2    D    
C27   C32   A    
C39   H17   S    
C31   C32   A    
C3    C5    A    
C2    C47   A    
C12   C24   A    
C22   O3    A    
C2    C3    A    
C12   S2    S    
C36   H14   S    
C16   O18   A    
C38   C39   A    
C20   O19   A    
C45   C50   A    
C18   H27   S    
C17   C19   S    
C9    C40   S    
C10   C11   D    
C29   H8    S    
C36   C37   A    
C49   C50   A    
C27   C28   A    
C35   H13   S    
C34   C47   A    
C13   C14   D    
O5    Zn1   S    
O18   Zn2   S    
O1    Zn3   S    
