data_mof_unit_pretest_337.cif
_audit_creation_date              2012-12-10T18:47:40-0500
_audit_creation_method            fapswitch 2.2
_symmetry_space_group_name_H-M    P1
_symmetry_Int_Tables_number       1
_space_group_crystal_system       triclinic
_cell_length_a                    9.905864
_cell_length_b                    10.707673
_cell_length_c                    15.540881
_cell_angle_alpha                 90.75749
_cell_angle_beta                  67.225049
_cell_angle_gamma                 89.366893
_cell_volume                      1519.51354358

loop_
_atom_site_label
_atom_site_type_symbol
_atom_type_description
_atom_site_fract_x
_atom_site_fract_y
_atom_site_fract_z
_atom_type_partial_charge
C1    C     C_R   0.499312 0.739933 0.500442 0.876931
C2    C     C_R   0.500683 0.260069 0.499563 0.877324
C3    C     C_R   0.317594 0.491992 0.108016 -0.221660
C4    C     C_R   0.646446 0.376594 0.906648 -0.223818
C5    C     C_R   0.215593 0.507041 0.067761 -0.232529
C6    C     C_R   0.748314 0.362053 0.947180 -0.231825
C7    C     C_R   0.605493 0.935370 0.521948 -0.191035
C8    C     C_R   0.394488 0.064646 0.478072 -0.190561
C9    C     C_R   0.606709 0.063287 0.521085 -0.182644
C10   C     C_R   0.393253 0.936729 0.478954 -0.184092
C11   C     C_R   0.501126 0.127518 0.499251 -0.004500
C12   C     C_R   0.498856 0.872494 0.500768 -0.005564
C13   C     C_R   0.958043 0.405271 0.456489 0.058955
C14   C     C_R   0.041899 0.594474 0.543827 0.058657
C15   C     C_R   0.100304 0.405656 0.457636 -0.186558
C16   C     C_R   0.899773 0.594379 0.542369 -0.180848
C17   C     C_R   0.408087 0.498200 0.676015 0.885872
C18   C     C_R   0.591860 0.499418 0.323872 0.881669
C19   C     C_R   0.350201 0.490105 0.777586 -0.066733
C20   C     C_R   0.647531 0.483280 0.222514 -0.066238
C21   C     C_R   0.159017 0.523398 0.930201 -0.227623
C22   C     C_R   0.819455 0.390953 0.078616 -0.232219
C23   C     C_R   0.204408 0.520462 0.833397 -0.170855
C24   C     C_R   0.785145 0.429508 0.170882 -0.177350
C25   C     C_R   0.447195 0.455363 0.818806 -0.267111
C26   C     C_R   0.548399 0.503554 0.180234 -0.259474
C27   C     C_R   0.404343 0.456516 0.915597 0.098611
C28   C     C_R   0.574837 0.455797 0.091139 0.099024
C29   C     C_R   0.258672 0.494623 0.971571 0.173574
C30   C     C_R   0.715002 0.403089 0.038527 0.175975
C31   C     C_R   0.505970 0.430502 0.957341 0.067822
C32   C     C_R   0.465859 0.460600 0.053085 0.065507
H1    H     H_    0.103761 0.533103 0.111811 0.152071
H2    H     H_    0.854336 0.319864 0.906376 0.153008
H3    H     H_    0.448827 0.555121 0.219425 0.153889
H4    H     H_    0.558991 0.434539 0.773605 0.160594
H5    H     H_    0.863793 0.413607 0.202296 0.201657
H6    H     H_    0.127496 0.546410 0.802439 0.197230
H7    H     H_    0.047699 0.552798 0.972495 0.154236
H8    H     H_    0.925797 0.348263 0.039551 0.151970
H9    H     H_    0.276161 0.502680 0.182956 0.153540
H10   H     H_    0.679380 0.340638 0.836227 0.147019
H11   H     H_    0.687141 0.886107 0.539632 0.147039
H12   H     H_    0.312848 0.113910 0.460380 0.147242
H13   H     H_    0.688829 0.111507 0.538314 0.144021
H14   H     H_    0.311108 0.888511 0.461748 0.144487
H15   H     H_    0.178074 0.331157 0.423084 0.133849
H16   H     H_    0.822045 0.668877 0.576970 0.133219
N1    N     N_R   0.142780 0.500030 0.500020 -0.081471
N2    N     N_R   0.857220 0.499970 0.499980 -0.081166
O1    O     O_R   0.385370 0.683250 0.500010 -0.597470
O2    O     O_R   0.614630 0.316750 0.499990 -0.595022
O3    O     O_R   0.614700 0.683220 0.500000 -0.635482
O4    O     O_R   0.385300 0.316780 0.500000 -0.636408
O5    O     O_R   0.319830 0.500020 0.632250 -0.556173
O6    O     O_R   0.680170 0.499980 0.367750 -0.557497
O7    O     O_R   0.549160 0.499990 0.632240 -0.629762
O8    O     O_R   0.450840 0.500010 0.367760 -0.627215
Zn1   Zn    Zn3+2 0.346870 0.500020 0.500000 0.983225
Zn2   Zn    Zn3+2 0.653130 0.499980 0.500000 0.982725
C33   C     C_2   0.925611 0.299910 0.406247 0.412183
H17   H     H_    0.965273 0.206774 0.412092 0.013542
O9    O     O_2   0.865056 0.316258 0.352441 -0.560471
C34   C     C_2   0.074126 0.698759 0.595122 0.418893
H18   H     H_    0.036123 0.792455 0.589097 0.010469
O10   O     O_2   0.132459 0.680835 0.650000 -0.554654

loop_
_geom_bond_atom_site_label_1
_geom_bond_atom_site_label_2
_ccdc_geom_bond_type
C21   C29   A    
C10   H14   S    
C19   C23   A    
C9    H13   S    
C14   C16   A    
C7    H11   S    
N2    Zn2   S    
C27   C29   A    
C23   H6    S    
C1    O1    A    
C17   O5    A    
C5    C29   A    
C31   C32   A    
N1    Zn1   S    
C13   C15   A    
C18   O6    A    
C3    C5    A    
C22   H8    S    
C34   H18   S    
C16   H16   S    
C28   C30   A    
C24   H5    S    
C14   C34   S    
C9    C11   A    
C8    H12   S    
C7    C12   A    
C1    C12   S    
C2    O2    A    
O2    Zn2   S    
C8    C11   A    
C2    C11   S    
C10   C12   A    
C4    C6    A    
C17   C19   S    
O3    Zn2   S    
C16   N2    A    
O5    Zn1   S    
O4    Zn1   S    
C15   N1    A    
C21   C23   A    
C3    C32   A    
C19   C25   A    
C4    H10   S    
C22   C24   A    
C4    C31   A    
O1    Zn1   S    
C33   H17   S    
C25   H4    S    
C27   C31   A    
C13   N2    A    
C14   N1    A    
C6    H2    S    
C26   H3    S    
C28   C32   A    
C13   C33   S    
C18   C20   S    
C8    C10   A    
C2    O4    A    
C17   O7    A    
C7    C9    A    
C20   C24   A    
C15   H15   S    
C3    H9    S    
O7    Zn2   S    
C1    O3    A    
C22   C30   A    
C6    C30   A    
O8    Zn1   S    
C26   C28   A    
C21   H7    S    
C18   O8    A    
C33   O9    D    
O6    Zn2   S    
C5    H1    S    
C20   C26   A    
C25   C27   A    
C34   O10   D    
