data_mof_unit_pretest_399.cif
_audit_creation_date              2012-12-11T21:06:04-0500
_audit_creation_method            fapswitch 2.2
_symmetry_space_group_name_H-M    P1
_symmetry_Int_Tables_number       1
_space_group_crystal_system       triclinic
_cell_length_a                    36.124281
_cell_length_b                    40.226525
_cell_length_c                    8.460692
_cell_angle_alpha                 90.000251
_cell_angle_beta                  93.417066
_cell_angle_gamma                 90.004796
_cell_volume                      12272.8323558

loop_
_atom_site_label
_atom_site_type_symbol
_atom_type_description
_atom_site_fract_x
_atom_site_fract_y
_atom_site_fract_z
_atom_type_partial_charge
Ba1   Ba    Ba6+2 0.000060 0.523150 0.844950 1.680458
Ba2   Ba    Ba6+2 0.000060 0.476850 0.344950 1.672167
Ba3   Ba    Ba6+2 0.500060 0.023150 0.844950 1.680451
Ba4   Ba    Ba6+2 0.500060 0.976850 0.344950 1.669584
C1    C     C_3   0.008331 0.687943 0.773931 0.338741
C2    C     C_2   0.890031 0.619072 0.245312 -0.037183
C3    C     C_R   0.634453 0.815692 0.743714 0.672812
C4    C     C_2   0.107907 0.623095 0.427660 -0.109849
C5    C     C_2   0.107966 0.377320 0.928142 -0.096578
C6    C     C_2   0.607915 0.123145 0.427337 -0.109838
C7    C     C_2   0.608244 0.877571 0.928739 -0.095292
C8    C     C_3   0.081038 0.595415 0.472388 -0.047114
C9    C     C_3   0.080221 0.404352 0.969687 -0.127713
C10   C     C_3   0.581025 0.095472 0.472099 -0.046785
C11   C     C_3   0.580410 0.904558 0.970123 -0.128202
C12   C     C_1   0.079882 0.575666 0.201704 0.051050
C13   C     C_2   0.390323 0.880476 0.746419 -0.057150
C14   C     C_1   0.079887 0.424257 0.700494 0.062897
C15   C     C_1   0.579886 0.075689 0.201515 0.051344
C16   C     C_1   0.579990 0.924312 0.700683 0.063427
C17   C     C_2   0.102219 0.599786 0.156648 -0.026032
C18   C     C_2   0.103028 0.400604 0.657009 -0.070409
C19   C     C_2   0.602253 0.099787 0.156413 -0.025645
C20   C     C_2   0.603159 0.900680 0.657297 -0.072525
C21   C     C_2   0.116880 0.625778 0.272772 0.121640
C22   C     C_2   0.118068 0.374984 0.774434 0.198309
C23   C     C_2   0.616933 0.125792 0.272459 0.121645
C24   C     C_2   0.390022 0.119060 0.245206 -0.037202
C25   C     C_2   0.618290 0.875158 0.774962 0.197267
C26   C     C_R   0.737710 0.286154 0.102887 0.020045
C27   C     C_R   0.738935 0.714401 0.609806 0.021888
C28   C     C_R   0.237594 0.786173 0.103432 0.020394
C29   C     C_R   0.238828 0.214302 0.609315 0.021903
C30   C     C_R   0.770705 0.277348 0.029561 0.055039
C31   C     C_R   0.771373 0.722989 0.531824 0.056709
C32   C     C_R   0.270628 0.777344 0.030482 0.054799
C33   C     C_R   0.271283 0.222911 0.531502 0.056595
C34   C     C_R   0.777427 0.243626 0.989408 0.020391
C35   C     C_3   0.917404 0.408089 0.709594 -0.100219
C36   C     C_R   0.777676 0.756558 0.487691 0.021268
C37   C     C_R   0.277384 0.743609 0.990631 0.019825
C38   C     C_R   0.277583 0.256488 0.487484 0.021164
C39   C     C_3   0.889900 0.518204 0.157332 0.301776
C40   C     C_3   0.889983 0.481754 0.657442 0.301714
C41   C     C_3   0.389884 0.018193 0.157312 0.301844
C42   C     C_3   0.390091 0.981706 0.657684 0.301563
C43   C     C_R   0.733345 0.319795 0.147756 -0.095376
C44   C     C_R   0.734942 0.680903 0.657717 -0.092277
C45   C     C_R   0.233184 0.819840 0.147836 -0.095562
C46   C     C_3   0.917242 0.591693 0.209182 -0.096789
C47   C     C_R   0.234839 0.180798 0.657145 -0.092899
C48   C     C_R   0.834455 0.261270 0.870661 -0.043960
C49   C     C_R   0.834141 0.738607 0.365346 -0.036303
C50   C     C_R   0.334471 0.761199 0.872408 -0.038659
C51   C     C_R   0.334085 0.238571 0.365339 -0.036197
C52   C     C_R   0.259371 0.684008 0.012026 -0.095802
C53   C     C_R   0.259118 0.316095 0.503288 -0.082222
C54   C     C_R   0.759381 0.184015 0.010666 -0.096845
C55   C     C_R   0.759240 0.816174 0.503402 -0.082285
C56   C     C_R   0.234265 0.659585 0.052409 -0.038234
C57   C     C_3   0.417511 0.907873 0.710196 -0.088735
C58   C     C_R   0.234103 0.340591 0.543758 -0.025996
C59   C     C_R   0.734283 0.159589 0.051243 -0.039098
C60   C     C_R   0.734248 0.840685 0.543919 -0.026342
C61   C     C_R   0.809423 0.236499 0.906948 -0.092142
C62   C     C_R   0.809185 0.763438 0.401586 -0.091174
C63   C     C_R   0.309417 0.736451 0.908511 -0.093858
C64   C     C_R   0.309111 0.263390 0.401536 -0.091067
C65   C     C_3   0.852162 0.532792 0.189407 -0.350957
C66   C     C_3   0.852262 0.467004 0.688492 -0.351340
C67   C     C_3   0.352145 0.032806 0.189133 -0.351332
C68   C     C_3   0.417240 0.091687 0.209099 -0.096639
C69   C     C_3   0.352397 0.966843 0.688239 -0.351955
C70   C     C_3   0.121709 0.486870 0.030770 0.240205
C71   C     C_3   0.121828 0.513041 0.531167 0.230003
C72   C     C_3   0.621812 0.986921 0.030986 0.241105
C73   C     C_3   0.621779 0.013078 0.531109 0.230097
C74   C     C_3   0.161874 0.484486 0.979004 -0.193774
C75   C     C_3   0.161818 0.515267 0.477302 -0.192553
C76   C     C_3   0.661950 0.984650 0.978808 -0.193933
C77   C     C_3   0.661795 0.015375 0.477593 -0.192370
C78   C     C_3   0.005617 0.650838 0.735433 0.373690
C79   C     C_1   0.917795 0.424654 0.984017 0.044656
C80   C     C_3   0.005735 0.349249 0.237515 0.377414
C81   C     C_3   0.505599 0.150815 0.735497 0.373768
C82   C     C_3   0.505678 0.849106 0.234889 0.369821
C83   C     C_R   0.818728 0.360373 0.007114 0.583430
C84   C     C_R   0.819401 0.639948 0.510712 0.584364
C85   C     C_R   0.318657 0.860368 0.007546 0.582789
C86   C     C_R   0.319348 0.139891 0.510399 0.584099
C87   C     C_2   0.112398 0.459588 0.139626 0.401609
C88   C     C_2   0.113114 0.540190 0.641664 0.420577
C89   C     C_2   0.612683 0.959648 0.140204 0.401222
C90   C     C_1   0.917864 0.575324 0.483937 0.044906
C91   C     C_2   0.612949 0.040211 0.641489 0.420465
C92   C     C_2   0.169212 0.453341 0.887938 0.483298
C93   C     C_2   0.169119 0.546557 0.387256 0.483478
C94   C     C_2   0.669364 0.953495 0.887948 0.482845
C95   C     C_2   0.669072 0.046669 0.387552 0.482378
C96   C     C_2   0.129201 0.642201 0.553491 0.653547
C97   C     C_2   0.127507 0.358577 0.059945 0.615770
C98   C     C_2   0.629182 0.142270 0.553168 0.653060
C99   C     C_2   0.627930 0.858989 0.060716 0.616033
C100  C     C_1   0.417811 0.924617 0.984278 0.046588
C101  C     C_3   0.006909 0.311964 0.273085 0.310220
C102  C     C_1   0.417843 0.075311 0.483852 0.044591
C103  C     C_2   0.893319 0.401326 0.019913 -0.071489
C104  C     C_2   0.893605 0.598794 0.520139 -0.072500
C105  C     C_2   0.393266 0.901349 0.020288 -0.074975
C106  C     C_2   0.393572 0.098771 0.520018 -0.072456
C107  C     C_2   0.877684 0.377605 0.893702 0.230448
C108  C     C_2   0.877835 0.622417 0.393829 0.226933
C109  C     C_2   0.377715 0.877505 0.894427 0.233572
C110  C     C_2   0.377810 0.122394 0.393698 0.227058
C111  C     C_R   0.797252 0.302515 0.995581 -0.077573
C112  C     C_3   0.508263 0.187919 0.774058 0.338543
C113  C     C_R   0.797787 0.697748 0.497196 -0.077632
C114  C     C_R   0.297186 0.802500 0.996548 -0.079973
C115  C     C_R   0.297715 0.197685 0.496929 -0.077652
C116  C     C_R   0.791930 0.335829 0.040500 -0.030819
C117  C     C_R   0.792803 0.664581 0.545137 -0.030220
C118  C     C_R   0.291833 0.835839 0.040995 -0.031885
C119  C     C_R   0.292733 0.164510 0.544771 -0.030013
C120  C     C_R   0.759851 0.343925 0.117735 -0.052723
C121  C     C_R   0.761251 0.656703 0.626408 -0.051504
C122  C     C_R   0.259699 0.843967 0.117778 -0.053444
C123  C     C_3   0.507321 0.811849 0.271095 0.316254
C124  C     C_R   0.261167 0.156611 0.625895 -0.052103
C125  C     C_R   0.829029 0.294368 0.915574 -0.051371
C126  C     C_R   0.829095 0.705671 0.413595 -0.055979
C127  C     C_R   0.329014 0.794308 0.917058 -0.048927
C128  C     C_R   0.329041 0.205628 0.413482 -0.056107
C129  C     C_3   0.988493 0.647831 0.216332 0.707021
C130  C     C_3   0.989044 0.352183 0.715668 0.763605
C131  C     C_3   0.488508 0.147827 0.216335 0.706786
C132  C     C_3   0.489414 0.851970 0.713224 0.672899
C133  C     C_2   0.937221 0.421082 0.858678 -0.242133
C134  C     C_R   0.854787 0.319396 0.880467 0.627641
C135  C     C_2   0.937146 0.578731 0.358122 -0.247519
C136  C     C_2   0.437303 0.920930 0.859189 -0.246855
C137  C     C_2   0.437133 0.078721 0.358055 -0.247374
C138  C     C_2   0.061487 0.579274 0.329864 -0.334943
C139  C     C_2   0.060801 0.420093 0.826257 -0.297711
C140  C     C_2   0.561474 0.079331 0.329595 -0.335212
C141  C     C_2   0.560947 0.920203 0.826569 -0.298149
C142  C     C_R   0.210416 0.761177 0.130792 0.019909
C143  C     C_R   0.211783 0.239334 0.637888 0.018574
C144  C     C_R   0.710525 0.261166 0.130204 0.019867
C145  C     C_R   0.854791 0.680588 0.378437 0.630770
C146  C     C_R   0.711909 0.739449 0.638456 0.018200
C147  C     C_R   0.252017 0.718263 0.032853 0.020095
C148  C     C_R   0.252288 0.281924 0.529591 0.022218
C149  C     C_R   0.752063 0.218269 0.031722 0.019845
C150  C     C_R   0.752403 0.782010 0.529844 0.022394
C151  C     C_R   0.218276 0.727211 0.099860 0.056034
C152  C     C_R   0.219150 0.273168 0.602017 0.060748
C153  C     C_R   0.718355 0.227207 0.099055 0.055990
C154  C     C_R   0.719282 0.773276 0.602457 0.060887
C155  C     C_R   0.175333 0.768883 0.187435 -0.095681
C156  C     C_R   0.354810 0.819295 0.882133 0.627111
C157  C     C_R   0.177293 0.231782 0.700587 -0.087294
C158  C     C_R   0.675458 0.268877 0.186996 -0.096075
C159  C     C_R   0.677435 0.731921 0.701359 -0.086579
C160  C     C_R   0.149700 0.744121 0.218601 -0.048109
C161  C     C_R   0.151781 0.256577 0.732515 -0.006429
C162  C     C_R   0.649821 0.244122 0.218195 -0.047311
C163  C     C_R   0.651941 0.756731 0.733338 -0.004568
C164  C     C_R   0.157912 0.710431 0.196691 -0.035097
C165  C     C_R   0.159499 0.290167 0.705154 -0.043587
C166  C     C_R   0.658012 0.210433 0.196197 -0.035021
C167  C     C_R   0.354753 0.180558 0.378368 0.630755
C168  C     C_R   0.659666 0.790314 0.705835 -0.044270
C169  C     C_R   0.192201 0.701896 0.136977 -0.075342
C170  C     C_R   0.193175 0.298546 0.639547 -0.079828
C171  C     C_R   0.692278 0.201894 0.136277 -0.075525
C172  C     C_R   0.693328 0.798670 0.640044 -0.079718
C173  C     C_R   0.200478 0.668032 0.114801 -0.033555
C174  C     C_R   0.200926 0.332314 0.611797 -0.041787
C175  C     C_R   0.700528 0.168032 0.113980 -0.033314
C176  C     C_R   0.701088 0.832431 0.612151 -0.041785
C177  C     C_3   0.028728 0.651998 0.179145 -0.270290
C178  C     C_2   0.890160 0.380729 0.745576 -0.034255
C179  C     C_3   0.029251 0.347612 0.678360 -0.261070
C180  C     C_3   0.528739 0.152043 0.179140 -0.269986
C181  C     C_3   0.529632 0.848356 0.674551 -0.247535
C182  C     C_R   0.175182 0.643210 0.158416 0.627020
C183  C     C_R   0.175737 0.357234 0.655427 0.630915
C184  C     C_R   0.675234 0.143210 0.157780 0.626864
C185  C     C_R   0.675923 0.857368 0.655819 0.630958
C186  C     C_R   0.132622 0.685119 0.234590 0.634059
C187  C     C_R   0.134265 0.315526 0.742996 0.673289
C188  C     C_R   0.632716 0.185128 0.234180 0.634418
H1    H     H_    0.013917 0.636957 0.844908 0.030377
H2    H     H_    0.855375 0.444259 0.761556 0.066810
H3    H     H_    0.487502 0.872579 0.799893 -0.093367
H4    H     H_    0.037294 0.630997 0.105416 0.056180
H5    H     H_    0.032859 0.324076 0.613129 0.193593
H6    H     H_    0.537336 0.131059 0.105384 0.056077
H7    H     H_    0.533726 0.824983 0.608736 0.195583
H8    H     H_    0.032689 0.675543 0.114474 0.180919
H9    H     H_    0.038143 0.368579 0.605226 0.050713
H10   H     H_    0.532667 0.175598 0.114504 0.181279
H11   H     H_    0.537833 0.869607 0.601604 0.058125
H12   H     H_    0.905965 0.515030 0.272048 0.022833
H13   H     H_    0.355240 0.055571 0.262080 0.066941
H14   H     H_    0.905856 0.485013 0.772536 0.022643
H15   H     H_    0.405907 0.015015 0.272114 0.022912
H16   H     H_    0.405859 0.985038 0.772959 0.023002
H17   H     H_    0.904728 0.535008 0.078838 0.024513
H18   H     H_    0.905032 0.464992 0.579542 0.024410
H19   H     H_    0.404751 0.034983 0.078903 0.024435
H20   H     H_    0.405280 0.964964 0.580182 0.025738
H21   H     H_    0.083421 0.456064 0.156847 0.040922
H22   H     H_    0.084231 0.544147 0.658977 0.025393
H23   H     H_    0.583738 0.956033 0.157669 0.040794
H24   H     H_    0.355539 0.944122 0.761449 0.068622
H25   H     H_    0.584044 0.044104 0.658624 0.025527
H26   H     H_    0.163254 0.429183 0.936975 0.039732
H27   H     H_    0.163160 0.570643 0.437115 0.023034
H28   H     H_    0.663554 0.929337 0.937326 0.039771
H29   H     H_    0.663086 0.070750 0.437400 0.022983
H30   H     H_    0.146434 0.663076 0.524345 -0.024556
H31   H     H_    0.115538 0.356876 0.173640 0.068336
H32   H     H_    0.646386 0.163171 0.524021 -0.024603
H33   H     H_    0.616198 0.857604 0.174982 0.068606
H34   H     H_    0.083276 0.742002 0.928232 0.361741
H35   H     H_    0.836688 0.538968 0.075815 0.119931
H36   H     H_    0.105910 0.313774 0.401822 0.346963
H37   H     H_    0.583200 0.242480 0.924773 0.361805
H38   H     H_    0.606271 0.814237 0.401631 0.346411
H39   H     H_    0.967331 0.719287 0.115541 0.345025
H40   H     H_    0.943043 0.271395 0.735421 0.373810
H41   H     H_    0.467298 0.219272 0.115743 0.345178
H42   H     H_    0.433331 0.803166 0.618226 0.361825
H43   H     H_    0.837001 0.460737 0.574546 0.119583
H44   H     H_    0.336725 0.039004 0.075465 0.119763
H45   H     H_    0.337252 0.960507 0.574124 0.119640
H46   H     H_    0.102291 0.486511 0.923907 -0.054635
H47   H     H_    0.102114 0.513703 0.425272 -0.053411
H48   H     H_    0.602332 0.986467 0.924319 -0.054888
H49   H     H_    0.015171 0.362451 0.347419 0.041987
H50   H     H_    0.602108 0.013697 0.425070 -0.053253
H51   H     H_    0.167739 0.506544 0.905408 0.169612
H52   H     H_    0.167261 0.493318 0.402294 0.168704
H53   H     H_    0.667679 0.006700 0.904934 0.169210
H54   H     H_    0.667327 0.993431 0.402699 0.169115
H55   H     H_    0.181609 0.485272 0.084885 0.137861
H56   H     H_    0.181847 0.514155 0.582129 0.137973
H57   H     H_    0.681740 0.985539 0.084486 0.137875
H58   H     H_    0.681779 0.014308 0.582581 0.137435
H59   H     H_    0.976237 0.644387 0.703553 0.024732
H60   H     H_    0.513927 0.136934 0.844941 0.030321
H61   H     H_    0.976580 0.356803 0.207928 0.027633
H62   H     H_    0.476226 0.144333 0.703629 0.024820
H63   H     H_    0.476458 0.856278 0.203880 0.021101
H64   H     H_    0.994093 0.702670 0.677822 0.124654
H65   H     H_    0.991767 0.298013 0.176633 0.120428
H66   H     H_    0.494002 0.202639 0.677984 0.124639
H67   H     H_    0.492341 0.797706 0.174856 0.124285
H68   H     H_    0.993980 0.692982 0.883632 -0.032480
H69   H     H_    0.992710 0.307063 0.383477 0.028810
H70   H     H_    0.493906 0.192934 0.883768 -0.032057
H71   H     H_    0.514627 0.862498 0.344876 0.048169
H72   H     H_    0.493155 0.806890 0.381516 0.013476
H73   H     H_    0.046121 0.652608 0.291127 0.144102
H74   H     H_    0.046706 0.346724 0.790177 0.139588
H75   H     H_    0.546137 0.152669 0.291111 0.144051
H76   H     H_    0.547266 0.847670 0.785866 0.135544
H77   H     H_    0.884512 0.399331 0.139776 0.130879
H78   H     H_    0.885049 0.600957 0.640299 0.132989
H79   H     H_    0.384356 0.899482 0.140038 0.129837
H80   H     H_    0.385011 0.100934 0.640172 0.132828
H81   H     H_    0.754973 0.369208 0.155414 0.126134
H82   H     H_    0.835906 0.514503 0.255154 0.149463
H83   H     H_    0.756653 0.631537 0.666463 0.126500
H84   H     H_    0.254785 0.869271 0.155073 0.125897
H85   H     H_    0.256571 0.131440 0.665878 0.126042
H86   H     H_    0.123342 0.751570 0.262160 0.150279
H87   H     H_    0.125901 0.249234 0.780870 0.155152
H88   H     H_    0.623477 0.251578 0.261867 0.150577
H89   H     H_    0.626073 0.749406 0.781847 0.157572
H90   H     H_    0.166442 0.794048 0.206436 0.082533
H91   H     H_    0.168752 0.206704 0.724065 0.082713
H92   H     H_    0.666580 0.294043 0.206045 0.082726
H93   H     H_    0.835797 0.485230 0.753618 0.149653
H94   H     H_    0.668891 0.706850 0.724968 0.084320
H95   H     H_    0.709966 0.328276 0.209988 0.076881
H96   H     H_    0.712006 0.672567 0.723100 0.078429
H97   H     H_    0.209755 0.828349 0.209674 0.076630
H98   H     H_    0.211892 0.172447 0.722423 0.077601
H99   H     H_    0.878622 0.365526 0.648780 0.111520
H100  H     H_    0.878323 0.634130 0.148340 0.110994
H101  H     H_    0.378883 0.865164 0.649827 0.098488
H102  H     H_    0.378320 0.134122 0.148235 0.110884
H103  H     H_    0.858417 0.254222 0.807094 0.129104
H104  H     H_    0.335844 0.014525 0.254694 0.149374
H105  H     H_    0.857728 0.745479 0.299008 0.148752
H106  H     H_    0.358468 0.754124 0.809129 0.147171
H107  H     H_    0.357687 0.245459 0.299119 0.148873
H108  H     H_    0.284915 0.675004 0.968471 0.081407
H109  H     H_    0.284163 0.325013 0.454931 0.079834
H110  H     H_    0.784892 0.175019 0.966775 0.079137
H111  H     H_    0.784274 0.825077 0.454892 0.079512
H112  H     H_    0.241639 0.633789 0.034980 0.139207
H113  H     H_    0.241065 0.366318 0.521845 0.138595
H114  H     H_    0.741634 0.133794 0.033659 0.138255
H115  H     H_    0.335802 0.985028 0.753007 0.149330
H116  H     H_    0.741215 0.866407 0.521889 0.138290
H117  H     H_    0.111570 0.600048 0.037396 0.186049
H118  H     H_    0.112134 0.400119 0.537359 0.165670
H119  H     H_    0.611610 0.100023 0.037170 0.186120
H120  H     H_    0.612167 0.900113 0.537493 0.165563
H121  H     H_    0.815663 0.211971 0.865124 0.077081
H122  H     H_    0.815135 0.787807 0.357038 0.081336
H123  H     H_    0.315679 0.711918 0.866813 0.081138
H124  H     H_    0.315060 0.287766 0.357078 0.081558
H125  H     H_    0.965243 0.430761 0.857227 0.059799
H126  H     H_    0.855268 0.555568 0.262282 0.066956
H127  H     H_    0.965188 0.569095 0.356490 0.059262
H128  H     H_    0.465383 0.930479 0.857978 0.059179
H129  H     H_    0.465176 0.069088 0.356452 0.059281
H130  H     H_    0.033584 0.569517 0.335122 0.074791
H131  H     H_    0.032699 0.429454 0.829617 0.074662
H132  H     H_    0.533556 0.069606 0.334793 0.074687
H133  H     H_    0.532802 0.929469 0.829770 0.073861
H134  H     H_    0.986768 0.626961 0.301651 -0.112443
H135  H     H_    0.987568 0.373158 0.800574 -0.135565
H136  H     H_    0.486813 0.126940 0.301579 -0.112520
N1    N     N_R   0.850130 0.352084 0.928612 -0.430330
N2    N     N_R   0.850401 0.648026 0.429042 -0.432747
N3    N     N_R   0.350122 0.852023 0.929558 -0.429285
N4    N     N_R   0.350363 0.147990 0.428874 -0.432755
N5    N     N_R   0.141876 0.651785 0.220600 -0.435695
N6    N     N_R   0.143006 0.348834 0.723061 -0.414508
N7    N     N_R   0.641950 0.151789 0.220200 -0.435739
N8    N     N_R   0.643212 0.848991 0.723661 -0.414728
O1    O     O_2   0.072110 0.546320 0.923350 -0.461771
O2    O     O_3   0.967608 0.356679 0.572544 -0.617066
O3    O     O_3   0.452705 0.789308 0.673458 -0.436121
O4    O     O_3   0.467102 0.143344 0.073162 -0.622841
O5    O     O_3   0.467700 0.856630 0.570983 -0.656866
O6    O     O_3   0.958050 0.483830 0.034350 -0.494915
O7    O     O_3   0.958050 0.516170 0.534350 -0.494579
O8    O     O_3   0.458050 0.983830 0.034350 -0.494798
O9    O     O_3   0.458050 0.016170 0.534350 -0.494333
O10   O     O_2   0.813634 0.389216 0.045502 -0.595587
O11   O     O_2   0.814478 0.611203 0.551112 -0.595389
O12   O     O_2   0.313531 0.889236 0.045424 -0.595471
O13   O     O_2   0.072110 0.453680 0.423350 -0.455962
O14   O     O_2   0.314428 0.111140 0.550711 -0.595704
O15   O     O_2   0.102524 0.692797 0.282175 -0.541809
O16   O     O_2   0.104605 0.307912 0.795055 -0.533543
O17   O     O_2   0.602628 0.192818 0.281822 -0.541509
O18   O     O_2   0.604798 0.808104 0.795907 -0.531166
O19   O     O_2   0.881530 0.311871 0.806785 -0.518583
O20   O     O_2   0.881251 0.687962 0.302626 -0.488008
O21   O     O_2   0.381634 0.811682 0.809268 -0.543192
O22   O     O_2   0.381230 0.187948 0.302685 -0.487911
O23   O     O_2   0.183115 0.613922 0.142916 -0.535501
O24   O     O_2   0.572110 0.046320 0.923350 -0.461552
O25   O     O_2   0.183289 0.386466 0.635181 -0.537584
O26   O     O_2   0.683152 0.113922 0.142206 -0.535627
O27   O     O_2   0.683476 0.886595 0.635397 -0.537455
O28   O     O_3   0.042000 0.516250 0.155330 -0.505666
O29   O     O_3   0.042000 0.483750 0.655330 -0.507594
O30   O     O_3   0.542000 0.016250 0.155330 -0.505559
O31   O     O_3   0.542000 0.983750 0.655330 -0.507391
O32   O     O_3   0.012540 0.574900 0.645500 -0.501421
O33   O     O_3   0.012540 0.425100 0.145500 -0.486112
O34   O     O_3   0.512540 0.074900 0.645500 -0.501467
O35   O     O_2   0.572110 0.953680 0.423350 -0.456599
O36   O     O_3   0.512540 0.925100 0.145500 -0.485931
O37   O     O_2   0.068505 0.605626 0.796735 -0.419475
O38   O     O_2   0.069248 0.394472 0.294172 -0.477812
O39   O     O_2   0.568534 0.105634 0.796529 -0.419272
O40   O     O_2   0.569147 0.894360 0.294340 -0.477288
O41   O     O_3   0.119047 0.515943 0.118654 -0.612080
O42   O     O_3   0.119152 0.483873 0.618246 -0.612568
O43   O     O_3   0.619082 0.016006 0.118713 -0.612135
O44   O     O_3   0.619133 0.983908 0.618181 -0.612324
O45   O     O_3   0.027068 0.643539 0.605999 -0.577909
O46   O     O_3   0.884055 0.511910 0.579364 -0.629533
O47   O     O_3   0.027071 0.356241 0.107448 -0.575873
O48   O     O_3   0.527055 0.143552 0.606038 -0.577818
O49   O     O_3   0.527208 0.856303 0.105679 -0.577431
O50   O     O_2   0.928110 0.546600 0.766510 -0.462101
O51   O     O_2   0.928110 0.453400 0.266510 -0.461873
O52   O     O_2   0.428110 0.046600 0.766510 -0.462132
O53   O     O_2   0.428110 0.953400 0.266510 -0.460422
O54   O     O_3   0.987780 0.574950 0.044470 -0.491476
O55   O     O_3   0.987780 0.425050 0.544470 -0.492074
O56   O     O_3   0.487780 0.074950 0.044470 -0.491422
O57   O     O_3   0.884017 0.488029 0.079426 -0.629850
O58   O     O_3   0.487780 0.925050 0.544470 -0.485225
O59   O     O_2   0.929977 0.603167 0.890045 -0.478402
O60   O     O_2   0.930074 0.396754 0.390194 -0.478784
O61   O     O_2   0.429992 0.103173 0.889989 -0.478413
O62   O     O_2   0.429989 0.896859 0.390480 -0.479356
O63   O     O_2   0.135941 0.442733 0.211786 -0.593950
O64   O     O_2   0.137020 0.556390 0.715221 -0.563723
O65   O     O_2   0.636328 0.942891 0.212296 -0.594578
O66   O     O_2   0.636788 0.056469 0.715144 -0.563946
O67   O     O_2   0.183071 0.454902 0.760126 -0.496949
O68   O     O_3   0.384103 0.011841 0.579424 -0.629540
O69   O     O_2   0.182912 0.545189 0.259251 -0.497751
O70   O     O_2   0.683125 0.955052 0.759924 -0.497258
O71   O     O_2   0.682882 0.045312 0.259582 -0.498287
O72   O     O_2   0.129127 0.633975 0.692084 -0.502153
O73   O     O_2   0.157897 0.346021 0.045855 -0.581239
O74   O     O_2   0.629125 0.134030 0.691772 -0.502160
O75   O     O_2   0.658197 0.846233 0.046121 -0.581149
O76   O     O_2   0.078658 0.676239 0.890894 -0.296617
O77   O     O_2   0.070923 0.707288 0.641731 -0.211875
O78   O     O_3   0.056606 0.737638 0.902391 -0.493434
O79   O     O_3   0.384006 0.988014 0.079433 -0.629877
O80   O     O_2   0.053436 0.263877 0.381489 -0.249872
O81   O     O_2   0.068316 0.291640 0.135225 -0.209564
O82   O     O_3   0.080757 0.323613 0.399940 -0.558395
O83   O     O_2   0.578639 0.176252 0.890659 -0.295426
O84   O     O_2   0.570789 0.207421 0.641805 -0.213001
O85   O     O_3   0.556483 0.237614 0.902979 -0.493310
O86   O     O_2   0.554310 0.764230 0.380787 -0.240845
O87   O     O_2   0.568961 0.791822 0.133794 -0.207320
O88   O     O_3   0.581130 0.824159 0.397561 -0.560226
O89   O     O_2   0.949153 0.675102 0.442486 -0.295352
O90   O     O_3   0.967086 0.643345 0.073164 -0.622739
O91   O     O_2   0.005597 0.704510 0.379803 -0.261383
O92   O     O_3   0.948598 0.708495 0.179267 -0.426356
O93   O     O_2   0.005684 0.295578 0.879069 -0.257057
O94   O     O_2   0.949347 0.325476 0.941812 -0.321188
O95   O     O_3   0.948837 0.291997 0.677705 -0.455622
O96   O     O_2   0.449122 0.175025 0.442522 -0.295406
O97   O     O_2   0.505548 0.204487 0.380059 -0.261144
O98   O     O_3   0.448566 0.208467 0.179438 -0.426203
O99   O     O_2   0.507902 0.796211 0.879068 -0.210971
O100  O     O_2   0.449693 0.823353 0.935086 -0.309327
P1    P     P_3+3 0.075650 0.535480 0.098240 1.009041
P2    P     P_3+3 0.950404 0.397346 0.556128 0.965880
P3    P     P_3+3 0.450264 0.102553 0.056009 0.965490
P4    P     P_3+3 0.450451 0.897293 0.556141 0.944511
P5    P     P_3+3 0.047787 0.395479 0.130241 0.975833
P6    P     P_3+3 0.047936 0.604422 0.631029 1.038796
P7    P     P_3+3 0.547858 0.895542 0.130051 0.975126
P8    P     P_3+3 0.547932 0.104436 0.630890 1.038777
P9    P     P_3+3 0.075650 0.464520 0.598240 1.008563
P10   P     P_3+3 0.575650 0.035480 0.098240 1.009110
P11   P     P_3+3 0.575650 0.964520 0.598240 1.008968
P12   P     P_3+3 0.924520 0.535770 0.591580 0.994090
P13   P     P_3+3 0.924520 0.464230 0.091580 0.993764
P14   P     P_3+3 0.424520 0.035770 0.591580 0.994243
P15   P     P_3+3 0.424520 0.964230 0.091580 0.994492
P16   P     P_3+3 0.950259 0.602550 0.056042 0.965421
S1    S     S_3+6 0.055487 0.701726 0.800653 -0.025350
S2    S     S_3+6 0.053481 0.296584 0.295761 -0.029076
S3    S     S_3+6 0.555403 0.201752 0.800783 -0.025509
S4    S     S_3+6 0.554061 0.796847 0.294161 -0.022597
S5    S     S_3+6 0.973169 0.684728 0.311110 -0.013451
S6    S     S_3+6 0.973339 0.315511 0.810865 -0.026320
S7    S     S_3+6 0.473143 0.184694 0.311233 -0.013307
S8    S     S_3+6 0.474871 0.814571 0.806538 -0.004814

loop_
_geom_bond_atom_site_label_1
_geom_bond_atom_site_label_2
_ccdc_geom_bond_type
C79   P13   S    
C94   H28   S    
C84   O11   D    
O1    P1    D    
C160  H86   S    
C98   H32   S    
C37   C63   A    
C52   H108  S    
C146  C159  A    
C179  H5    S    
C1    H64   S    
C99   O75   D    
C150  C154  A    
H40   O95   S    
C109  N3    S    
O32   P6    S    
C134  O19   D    
C185  O27   D    
C53   C148  A    
O94   S6    D    
C164  C186  A    
C64   H124  S    
C33   C38   A    
C5    C9    S    
C114  C127  A    
C29   C143  A    
C84   N2    Am   
C44   C121  A    
C7    C11   S    
C148  C152  A    
C74   C92   S    
C165  C170  A    
C40   C66   S    
Ba4   O8    S    
C147  C151  A    
Ba3   O9    S    
C156  N3    Am   
C3    C168  A    
H37   O85   S    
C90   C135  D    
C12   P1    S    
C88   O64   D    
O38   P5    D    
C2    H100  S    
C5    C22   D    
C51   C64   A    
C135  H127  S    
C161  C165  A    
C136  H128  S    
O57   P13   S    
C35   P2    S    
C179  H9    S    
C160  C164  A    
C132  H3    S    
C27   C146  A    
C93   O69   D    
C175  C184  A    
C77   C95   S    
C56   C173  A    
C1    H68   S    
C173  C182  A    
C100  C136  D    
O93   S6    D    
Ba3   O24   S    
O91   S5    D    
C15   C19   D    
C14   P9    S    
C54   C149  A    
C26   C43   A    
Ba2   P9    S    
O53   P15   D    
O24   P10   D    
C80   C101  S    
C52   C147  A    
C40   O46   S    
C21   N5    S    
O68   P14   S    
C23   N7    S    
C27   C44   A    
C130  H135  S    
Ba2   O33   S    
O40   P7    D    
O59   P16   D    
C121  H83   S    
C122  H84   S    
O48   P8    S    
C75   C93   S    
C81   C112  S    
O100  S8    D    
O80   S2    D    
C89   O65   D    
C37   C147  A    
C115  C119  A    
C99   H33   S    
C74   H51   S    
C144  C158  A    
C80   O47   S    
C31   C36   A    
C87   H21   S    
C106  H80   S    
C1    C78   S    
C188  O17   D    
C91   H25   S    
C86   O14   D    
O77   S1    D    
C66   H43   S    
C60   H116  S    
C188  N7    Am   
C110  N4    S    
Ba3   P14   S    
C67   H13   S    
C184  O26   D    
O99   S8    D    
C105  H79   S    
C51   C128  A    
O45   P6    S    
O55   P2    S    
C71   C75   S    
C157  C161  A    
C48   C61   A    
H34   O78   S    
C6    C23   D    
O62   P4    D    
C70   H46   S    
C12   C17   D    
C41   C67   S    
C10   P8    S    
C86   C119  A    
C159  C163  A    
C24   H102  S    
C8    P6    S    
C13   C109  D    
C13   H101  S    
C42   H16   S    
C45   C122  A    
C47   C124  A    
C28   C32   A    
C14   C139  D    
C176  C185  A    
O85   S3    S    
C61   H121  S    
C85   C118  A    
Ba1   O54   S    
O78   S1    S    
C123  H72   S    
C114  C118  A    
C177  H4    S    
Ba4   O30   S    
C78   H1    S    
C85   N3    Am   
C20   C25   S    
C72   O43   S    
Ba4   O36   S    
Ba2   O13   S    
C68   P3    S    
O29   P9    S    
C187  N6    Am   
O87   S4    D    
C82   O49   S    
C141  H133  S    
C182  O23   D    
C9    C139  S    
C178  H99   S    
C39   O57   S    
C50   H106  S    
C13   C57   S    
C58   H113  S    
O54   P16   S    
C159  H94   S    
C39   C65   S    
O52   P14   D    
O96   S7    D    
C59   H114  S    
C16   P11   S    
C133  H125  S    
Ba2   O6    S    
C55   H111  S    
H39   O92   S    
C56   H112  S    
C134  N1    Am   
C90   P12   S    
C26   C30   A    
C15   P10   S    
Ba4   O58   S    
C18   H118  S    
C6    C10   S    
C83   O10   D    
C182  N5    Am   
C30   C111  A    
C67   H44   S    
C2    C46   S    
C3    N8    Am   
Ba1   O7    S    
Ba4   P15   S    
C117  C121  A    
C49   C62   A    
C3    O18   D    
C120  H81   S    
C33   C115  A    
C34   C61   A    
C4    C8    S    
C66   H93   S    
C123  S4    S    
C181  H7    S    
C163  H89   S    
C183  N6    Am   
C129  C177  S    
C74   H55   S    
C162  C166  A    
O49   P7    S    
C18   C22   S    
C123  H67   S    
C165  C187  A    
Ba3   Ba4   S    
C69   H115  S    
C32   C114  A    
O42   P9    S    
C51   H107  S    
C131  H136  S    
C17   C21   S    
C14   C18   D    
C103  C107  S    
C77   H54   S    
O4    P3    S    
C72   C76   S    
O3    S8    S    
C57   C136  S    
O82   S2    S    
C139  H131  S    
C107  N1    S    
C104  H78   S    
C4    C96   S    
C50   C63   A    
C91   O66   D    
H42   O3    S    
O56   P3    S    
C130  S6    S    
C144  C153  A    
C129  S5    S    
O92   S5    S    
O86   S4    D    
C28   C45   A    
C35   C178  S    
C172  C176  A    
C80   H61   S    
C180  H75   S    
Ba1   P1    S    
C155  C160  A    
C36   C62   A    
C34   C149  A    
C95   O71   D    
C42   C69   S    
C168  C172  A    
O7    P12   S    
C129  O90   S    
C95   H29   S    
O31   P11   S    
C15   C140  D    
C71   H47   S    
C77   H58   S    
Ba2   O51   S    
C167  O22   D    
C24   C68   S    
C85   O12   D    
O79   P15   S    
C152  C170  A    
C81   H62   S    
C41   H19   S    
O81   S2    D    
C48   C125  A    
C86   N4    Am   
O6    P13   S    
C102  C106  D    
C28   C142  A    
C132  S8    S    
O39   P8    D    
C158  C162  A    
C83   N1    Am   
C142  C151  A    
C88   H22   S    
C80   H49   S    
C97   O73   D    
C20   H120  S    
O58   P4    S    
C170  C174  A    
Ba2   P13   S    
C73   O44   S    
C137  H129  S    
O98   S7    S    
C17   H117  S    
C4    C21   D    
C32   C37   A    
C183  O25   D    
C53   H109  S    
Ba2   O28   S    
C55   C150  A    
O50   P12   D    
C10   C140  S    
C166  C171  A    
C62   H122  S    
C68   C137  S    
O36   P7    S    
Ba1   P12   S    
Ba2   O7    S    
C143  C157  A    
C46   C135  S    
H38   O88   S    
O30   P10   S    
C29   C33   A    
C104  C108  S    
Ba4   O53   S    
C65   H126  S    
C65   H82   S    
C72   C89   S    
C6    C98   S    
C66   H2    S    
O33   P5    S    
C40   H14   S    
C75   H52   S    
C96   O72   D    
O43   P10   S    
O46   P12   S    
C143  C152  A    
C54   H110  S    
C177  H73   S    
C174  C183  A    
C63   H123  S    
O5    P4    S    
O13   P9    D    
Ba1   O32   S    
C27   C31   A    
C82   H71   S    
C79   C133  D    
C112  H66   S    
C102  C137  D    
Ba3   O56   S    
C145  O20   D    
C101  S2    S    
C101  H65   S    
C146  C154  A    
C76   C94   S    
C82   C123  S    
C2    C108  D    
C145  N2    Am   
C42   O68   S    
O95   S6    S    
C84   C117  A    
C115  C128  A    
C157  H91   S    
C26   C144  A    
C163  C168  A    
C158  H92   S    
C29   C47   A    
C69   H24   S    
O2    P2    S    
C72   H48   S    
C181  H11   S    
C43   H95   S    
O90   P16   S    
C44   H96   S    
Ba4   P11   S    
C43   C120  A    
O47   P5    S    
C8    C138  S    
C40   H18   S    
C67   H104  S    
C107  C178  D    
C48   H103  S    
C149  C153  A    
C9    P5    S    
C52   C56   A    
C70   C74   S    
C167  N4    Am   
C16   C141  D    
C131  S7    S    
C70   C87   S    
C35   C133  S    
C78   O45   S    
C132  C181  S    
C103  H77   S    
C45   H97   S    
O76   S1    D    
C49   H105  S    
C130  C179  S    
C155  H90   S    
C59   C175  A    
C53   C58   A    
C50   C127  A    
C90   C104  D    
C55   C60   A    
C179  H74   S    
O28   P1    S    
Ba1   Ba2   S    
O37   P6    D    
C100  C105  D    
C60   C176  A    
C42   H20   S    
C166  C188  A    
O34   P8    S    
Ba4   O9    S    
C94   O70   D    
Ba1   O6    S    
C92   O67   D    
C113  C117  A    
C57   P4    S    
Ba3   O8    S    
C125  C134  A    
C16   C20   D    
Ba3   O34   S    
O97   S7    D    
C184  N7    Am   
C19   H119  S    
C130  O2    S    
C128  C167  A    
C73   C77   S    
C38   C148  A    
C186  N5    Am   
Ba2   O55   S    
O84   S3    D    
C105  C109  S    
C151  C169  A    
O83   S3    D    
C41   H15   S    
C5    C97   S    
C38   C64   A    
O8    P15   S    
C36   C150  A    
O51   P13   D    
C25   N8    S    
C131  C180  S    
C161  H87   S    
C65   H35   S    
C162  H88   S    
C100  P15   S    
C164  C169  A    
C180  H10   S    
C185  N8    Am   
C73   H50   S    
C78   H59   S    
C70   O41   S    
C47   H98   S    
C156  O21   D    
C132  O5    S    
C39   H17   S    
C11   C141  S    
C81   O48   S    
C171  C175  A    
C142  C155  A    
C82   H63   S    
C73   C91   S    
O60   P2    D    
O61   P3    D    
C118  C122  A    
C12   C138  D    
C69   H45   S    
C140  H132  S    
C71   O42   S    
Ba4   O35   S    
C41   O79   S    
C169  C173  A    
C126  C145  A    
C93   H27   S    
C131  O4    S    
C102  P14   S    
C22   N6    S    
C186  O15   D    
C113  C126  A    
C24   C110  D    
C71   C88   S    
C153  C171  A    
C154  C172  A    
Ba1   O50   S    
C19   C23   S    
C76   H57   S    
C31   C113  A    
Ba1   O1    S    
C124  H85   S    
C39   H12   S    
O41   P1    S    
C111  C125  A    
C96   H30   S    
C106  C110  S    
H36   O82   S    
O88   S4    S    
Ba1   O29   S    
C30   C34   A    
C46   P16   S    
C187  O16   D    
C54   C59   A    
Ba3   O31   S    
C89   H23   S    
C58   C174  A    
C7    C99   S    
C129  H134  S    
C108  N2    S    
C98   O74   D    
C180  H6    S    
H41   O98   S    
C75   H56   S    
C138  H130  S    
O35   P11   D    
C83   C116  A    
C97   H31   S    
C119  C124  A    
C11   P7    S    
C92   H26   S    
O9    P14   S    
C79   C103  D    
C87   O63   D    
O44   P11   S    
C127  C156  A    
C112  H70   S    
O89   S5    D    
Ba3   O52   S    
C7    C25   D    
C81   H60   S    
C101  H69   S    
C111  C116  A    
Ba3   P10   S    
C112  S3    S    
C76   H53   S    
C1    S1    S    
C49   C126  A    
C177  H8    S    
C116  C120  A    
C181  H76   S    
