data_mof_unit_pretest_1300.cif
_audit_creation_date              2013-03-05T16:04:39-0500
_audit_creation_method            fapswitch 2.2
_symmetry_space_group_name_H-M    P1
_symmetry_Int_Tables_number       1
_space_group_crystal_system       triclinic
_cell_length_a                    9.557071
_cell_length_b                    10.784285
_cell_length_c                    15.673916
_cell_angle_alpha                 88.586425
_cell_angle_beta                  73.535792
_cell_angle_gamma                 90.676179
_cell_volume                      1548.44318643

loop_
_atom_site_label
_atom_site_type_symbol
_atom_site_description
_atom_site_fract_x
_atom_site_fract_y
_atom_site_fract_z
_atom_type_partial_charge
O1    O     O_R   0.118740 0.319660 0.500000 -0.616780
O2    O     O_R   0.881260 0.680340 0.500000 -0.610550
O3    O     O_R   0.881170 0.319630 0.500010 -0.547018
O4    O     O_R   0.118830 0.680370 0.499990 -0.547755
C1    C     C_R   0.999603 0.262270 0.499814 0.790859
C2    C     C_R   0.000730 0.737764 0.499599 0.788236
O5    O     O_R   0.055570 0.500030 0.629830 -0.583592
O6    O     O_R   0.944430 0.499970 0.370170 -0.590127
O7    O     O_R   0.818000 0.500000 0.629840 -0.508821
O8    O     O_R   0.182000 0.500000 0.370160 -0.503528
C3    C     C_R   0.916817 0.504764 0.671635 0.831450
C4    C     C_R   0.083176 0.495566 0.328262 0.829098
Cu1   Cu    Cu3+1 0.140660 0.500020 0.500000 1.005678
Cu2   Cu    Cu3+1 0.859340 0.499980 0.500000 1.007639
C5    C     C_R   0.867285 0.518334 0.768697 -0.216503
C6    C     C_R   0.132104 0.482073 0.231031 -0.184495
C7    C     C_R   0.918707 0.563805 0.907485 -0.086523
C8    C     C_R   0.078176 0.435090 0.093040 -0.086999
C9    C     C_R   0.967883 0.537715 0.817252 -0.204513
C10   C     C_R   0.030508 0.461632 0.183246 -0.219970
C11   C     C_R   0.716510 0.518159 0.813417 0.512528
C12   C     C_R   0.282428 0.482748 0.185639 0.509778
C13   C     C_R   0.670205 0.514687 0.906671 -0.046834
C14   C     C_R   0.327074 0.484768 0.091919 -0.056037
C15   C     C_R   0.768352 0.559546 0.951985 -0.119366
C16   C     C_R   0.228089 0.439531 0.047507 -0.100872
C17   C     C_R   0.525271 0.479999 0.954933 -0.160698
C18   C     C_R   0.471092 0.519823 0.042743 -0.194222
C19   C     C_R   0.559981 0.599286 0.077452 0.428665
C20   C     C_R   0.434898 0.402584 0.919696 0.447443
C21   C     C_R   0.711448 0.606823 0.037642 0.206200
C22   C     C_R   0.283415 0.394130 0.961101 0.191821
H1    H     H_    0.914547 0.458392 0.216647 0.197633
H2    H     H_    0.083999 0.541213 0.784375 0.205002
H3    H     H_    0.998730 0.587532 0.941593 0.186934
H4    H     H_    0.997117 0.411486 0.059686 0.186895
C23   C     C_R   0.894352 0.063913 0.470845 -0.119126
C24   C     C_R   0.107307 0.936250 0.527037 -0.124241
H5    H     H_    0.813069 0.112404 0.447492 0.186160
H6    H     H_    0.188549 0.887831 0.550459 0.189039
C25   C     C_R   0.894792 0.935701 0.470881 -0.163184
C26   C     C_R   0.106958 0.064418 0.526919 -0.171691
H7    H     H_    0.812833 0.886887 0.448228 0.172945
H8    H     H_    0.189068 0.113180 0.549469 0.173864
C27   C     C_R   0.001344 0.871673 0.498976 -0.043772
C28   C     C_R   0.999883 0.128432 0.499340 -0.040393
C29   C     C_R   0.552487 0.403510 0.539349 0.450940
C30   C     C_R   0.447477 0.596622 0.460927 0.453834
C31   C     C_R   0.404680 0.404658 0.538936 -0.158750
C32   C     C_R   0.595233 0.595512 0.461358 -0.150031
H9    H     H_    0.331809 0.328961 0.570777 0.193526
H10   H     H_    0.668135 0.671162 0.429461 0.191803
N1    N     N_R   0.352080 0.500030 0.499980 -0.259921
N2    N     N_R   0.647920 0.499970 0.500020 -0.256265
N3    N     N_R   0.801411 0.675965 0.080027 0.124702
O9    O     O_R   0.890249 0.762759 0.035772 -0.376335
O10   O     O_R   0.777576 0.666439 0.165911 -0.326242
N4    N     N_R   0.191564 0.327259 0.918683 0.114961
O11   O     O_R   0.213801 0.338810 0.833014 -0.332631
O12   O     O_R   0.103066 0.239845 0.962339 -0.382302
O13   O     O_3   0.385106 0.479219 0.233153 -0.523953
C33   C     C_3   0.458179 0.364359 0.223295 0.059716
H11   H     H_    0.573511 0.384129 0.221198 0.179699
H12   H     H_    0.461325 0.316516 0.160490 0.108032
C34   C     C_3   0.389544 0.277128 0.303127 -0.361875
H13   H     H_    0.381105 0.326300 0.365650 0.261865
H14   H     H_    0.278043 0.248578 0.301837 0.198611
C35   C     C_3   0.480940 0.161934 0.302428 -0.852413
H15   H     H_    0.499155 0.114264 0.238394 0.259535
H16   H     H_    0.423217 0.096916 0.357572 0.287830
H17   H     H_    0.588280 0.188134 0.311792 0.258003
O14   O     O_3   0.613482 0.530584 0.766811 -0.530132
C36   C     C_3   0.595707 0.657658 0.747644 0.108631
H18   H     H_    0.567570 0.662859 0.683553 0.183730
H19   H     H_    0.697462 0.715044 0.737561 0.098148
C37   C     C_3   0.470594 0.712628 0.820122 -0.403306
H20   H     H_    0.372768 0.650276 0.834026 0.241892
H21   H     H_    0.503462 0.721164 0.882273 0.203173
C38   C     C_3   0.431048 0.840878 0.791879 -0.854444
H22   H     H_    0.527884 0.904320 0.775850 0.253746
H23   H     H_    0.344311 0.880125 0.847008 0.267126
H24   H     H_    0.389921 0.834402 0.732541 0.267003
O15   O     O_3   0.497717 0.678506 0.145474 -0.501106
C39   C     C_3   0.449872 0.784718 0.107793 0.067105
H25   H     H_    0.376771 0.758879 0.066451 0.128222
H26   H     H_    0.545727 0.838822 0.065622 0.147619
C40   C     C_3   0.364098 0.866480 0.182150 -0.235612
H27   H     H_    0.266667 0.813811 0.223461 0.245655
H28   H     H_    0.433821 0.892003 0.225219 0.261835
C41   C     C_3   0.313817 0.984547 0.144755 -0.945930
H29   H     H_    0.409272 0.040425 0.104615 0.245769
H30   H     H_    0.251169 0.041316 0.200433 0.269180
H31   H     H_    0.242282 0.961050 0.102371 0.285723
O16   O     O_3   0.494755 0.331450 0.846302 -0.505017
C42   C     C_3   0.516927 0.209075 0.874181 0.131256
H32   H     H_    0.506530 0.146146 0.821156 0.206333
H33   H     H_    0.433246 0.176529 0.936361 0.115331
C43   C     C_3   0.670515 0.197062 0.885347 -0.384823
H34   H     H_    0.752512 0.233608 0.824217 0.257755
H35   H     H_    0.679442 0.252264 0.942533 0.216638
C44   C     C_3   0.704375 0.062289 0.902272 -0.845338
H36   H     H_    0.622563 0.023257 0.962407 0.240270
H37   H     H_    0.814156 0.057383 0.913022 0.296371
H38   H     H_    0.703807 0.005734 0.844131 0.249620
N5    N     N_R   0.599010 0.298318 0.580778 0.135946
O17   O     O_R   0.636309 0.311557 0.653547 -0.282356
O18   O     O_R   0.565754 0.187519 0.560772 -0.413124
N6    N     N_R   0.401168 0.701534 0.419221 0.133780
O19   O     O_R   0.435476 0.812509 0.438297 -0.423875
O20   O     O_R   0.363771 0.687431 0.346634 -0.295390

loop_
_geom_bond_atom_site_label_1
_geom_bond_atom_site_label_2
_geom_bond_distance
_ccdc_geom_bond_type
C15   C21   1.408790 A    
C20   C22   1.409542 A    
C40   H27   1.112003 S    
C16   C22   1.409402 A    
C44   H36   1.109886 S    
C2    C27   1.443833 S    
C36   H19   1.116937 S    
C36   H18   1.111443 S    
C42   H32   1.110963 S    
C8    C16   1.407637 A    
C37   C38   1.526006 S    
C22   N4    1.439514 S    
N3    O9    1.301344 A    
C31   H9    1.081648 S    
C42   C43   1.533293 S    
C29   C31   1.414650 A    
C5    C9    1.401811 A    
N5    O18   1.301204 A    
C32   N2    1.355284 A    
O1    C1    1.290273 A    
C18   C19   1.421197 A    
C14   C16   1.413024 A    
C24   C26   1.382203 A    
N4    O12   1.301363 A    
N6    O19   1.301225 A    
C26   C28   1.401170 A    
O4    Cu1   1.958551 S    
C24   C27   1.398192 A    
C33   H12   1.115697 S    
C3    C5    1.471176 S    
C4    C6    1.473426 S    
C35   H15   1.109255 S    
C34   H14   1.111554 S    
C32   H10   1.081653 S    
C39   C40   1.527747 S    
C13   C17   1.417981 A    
O13   C33   1.419375 S    
O6    C4    1.304348 A    
C30   C32   1.414233 A    
C44   H37   1.110435 S    
Cu1   Cu2   2.688591 S    
C17   C20   1.422739 A    
C25   H7    1.083454 S    
O2    C2    1.290837 A    
C26   H8    1.083479 S    
Cu1   N1    2.020464 S    
C30   N1    1.385928 A    
C23   H5    1.082693 S    
C11   O14   1.388209 S    
C39   H25   1.116495 S    
O4    C2    1.295113 A    
C38   H23   1.110520 S    
C20   O16   1.385620 S    
C29   N5    1.430206 S    
N4    O11   1.301192 A    
C9    H2    1.082763 S    
C6    C12   1.410799 A    
O5    C3    1.304285 A    
O7    Cu2   1.960101 S    
C33   H11   1.111328 S    
C41   H30   1.110722 S    
O15   C39   1.414903 S    
C5    C11   1.412465 A    
C6    C10   1.402714 A    
C34   C35   1.525525 S    
C37   H20   1.111837 S    
O7    C3    1.294168 A    
O3    Cu2   1.958551 S    
O8    C4    1.295234 A    
C29   N2    1.386089 A    
C10   H1    1.082967 S    
Cu2   N2    2.020465 S    
C34   H13   1.109014 S    
C44   H38   1.110235 S    
C43   H35   1.110645 S    
N3    O10   1.301285 A    
C36   C37   1.533524 S    
C12   C14   1.408285 A    
O1    Cu1   1.953843 S    
C41   H31   1.111113 S    
C1    C28   1.443577 S    
O6    Cu2   1.965784 S    
C33   C34   1.530704 S    
C14   C18   1.415440 A    
C37   H21   1.110537 S    
O14   C36   1.418178 S    
O3    C1    1.295552 A    
O8    Cu1   1.960103 S    
C38   H24   1.110924 S    
C42   H33   1.116831 S    
C19   O15   1.384924 S    
C43   C44   1.525873 S    
N5    O17   1.298316 A    
C7    C15   1.407901 A    
C11   C13   1.401401 A    
C19   C21   1.405051 A    
C12   O13   1.390243 S    
C24   H6    1.082576 S    
C41   H29   1.110941 S    
C30   N6    1.429186 S    
C35   H17   1.110990 S    
C31   N1    1.355945 A    
C7    C9    1.395088 A    
N6    O20   1.297317 A    
C8    C10   1.395169 A    
C13   C15   1.414991 A    
C23   C25   1.382713 A    
O16   C42   1.417097 S    
O2    Cu2   1.953843 S    
C38   H22   1.110172 S    
O5    Cu1   1.965784 S    
C35   H16   1.110735 S    
C43   H34   1.111736 S    
C40   C41   1.527397 S    
C17   C18   1.406149 A    
C40   H28   1.111435 S    
C25   C27   1.401231 A    
C39   H26   1.114306 S    
C7    H3    1.081691 S    
C21   N3    1.438612 S    
C23   C28   1.398186 A    
C8    H4    1.081533 S    
