data_mof_unit_pretest_1353.cif
_audit_creation_date              2012-12-10T19:19:38-0500
_audit_creation_method            fapswitch 2.2
_symmetry_space_group_name_H-M    P1
_symmetry_Int_Tables_number       1
_space_group_crystal_system       triclinic
_cell_length_a                    15.727908
_cell_length_b                    15.763946
_cell_length_c                    14.985339
_cell_angle_alpha                 89.764689
_cell_angle_beta                  90.300855
_cell_angle_gamma                 90.435115
_cell_volume                      3715.18434371

loop_
_atom_site_label
_atom_site_type_symbol
_atom_type_description
_atom_site_fract_x
_atom_site_fract_y
_atom_site_fract_z
_atom_type_partial_charge
C1    C     C_R   0.500926 0.338068 0.500261 0.904868
C2    C     C_3   0.595058 0.052462 0.443700 -0.009881
C3    C     C_3   0.589407 0.951418 0.441213 -0.206435
C4    C     C_R   0.337490 0.498950 0.499672 0.903385
C5    C     C_1   0.504622 0.750528 0.499297 -0.165231
C6    C     C_3   0.513921 0.083571 0.497019 0.176200
C7    C     C_3   0.515549 0.951195 0.595597 -0.172277
C8    C     C_3   0.511664 0.917369 0.497573 0.153746
C9    C     C_3   0.425625 0.950818 0.457069 -0.223869
C10   C     C_3   0.429306 0.049721 0.451087 -0.189792
C11   C     C_1   0.508440 0.825553 0.498666 -0.056149
C12   C     C_3   0.082754 0.487253 0.495744 0.109807
C13   C     C_1   0.511352 0.175071 0.499752 -0.054051
C14   C     C_1   0.506626 0.249894 0.500659 -0.170761
C15   C     C_3   0.452263 0.419040 0.053817 -0.167770
C16   C     C_R   0.500496 0.662033 0.499769 0.906759
C17   C     C_3   0.592787 0.496296 0.051746 -0.138349
C18   C     C_3   0.591520 0.496421 0.947145 -0.410120
C19   C     C_3   0.500285 0.499521 0.089841 0.150452
C20   C     C_3   0.448986 0.419422 0.948645 -0.150812
C21   C     C_3   0.498963 0.497386 0.910019 0.182244
C22   C     C_3   0.456006 0.578592 0.946517 -0.416279
C23   C     C_3   0.974439 0.556906 0.545197 -0.189110
C24   C     C_3   0.455905 0.579631 0.050628 -0.376104
C25   C     C_1   0.498428 0.498221 0.809226 0.030844
C26   C     C_1   0.501206 0.500846 0.190798 0.033058
C27   C     C_R   0.662459 0.499778 0.500246 0.909130
C28   C     C_3   0.970210 0.416590 0.537191 -0.281866
C29   C     C_3   0.024557 0.421255 0.451305 -0.004735
C30   C     C_1   0.248754 0.493946 0.498267 -0.180273
C31   C     C_1   0.751114 0.496710 0.501036 -0.175641
C32   C     C_3   0.029446 0.483406 0.580996 0.062420
C33   C     C_R   0.052999 0.348201 0.394789 0.102404
C34   C     C_3   0.916802 0.490295 0.500266 0.147933
C35   C     C_R   0.027239 0.264781 0.414618 -0.182594
C36   C     C_R   0.050391 0.198043 0.358819 -0.113873
C37   C     C_R   0.099398 0.214094 0.282999 -0.121306
C38   C     C_R   0.125367 0.296939 0.262912 -0.146199
C39   C     C_R   0.102303 0.363838 0.318548 -0.141046
C40   C     C_R   0.678639 0.094144 0.482625 0.127271
C41   C     C_R   0.724518 0.059616 0.555538 -0.149228
C42   C     C_R   0.796371 0.100138 0.591000 -0.129912
C43   C     C_R   0.823901 0.177484 0.556283 -0.113037
C44   C     C_R   0.779203 0.214920 0.486373 -0.145606
C45   C     C_3   0.028698 0.560685 0.458980 -0.235056
C46   C     C_R   0.707399 0.174584 0.450527 -0.134177
C47   C     C_1   0.669840 0.906529 0.459543 0.178328
C48   C     C_R   0.348276 0.093533 0.484127 0.154661
C49   C     C_R   0.308955 0.072865 0.566026 -0.148929
C50   C     C_R   0.238456 0.118174 0.595526 -0.143382
C51   C     C_R   0.207051 0.185662 0.545091 -0.112541
C52   C     C_R   0.245874 0.207842 0.464821 -0.116392
C53   C     C_R   0.314927 0.161518 0.433772 -0.163855
C54   C     C_R   0.394894 0.906177 0.371435 0.143339
C55   C     C_R   0.332171 0.841890 0.378202 -0.144290
C56   C     C_3   0.969552 0.494072 0.414831 0.026611
C57   C     C_R   0.304394 0.797505 0.302830 -0.122297
C58   C     C_R   0.338226 0.816635 0.219257 -0.114388
C59   C     C_R   0.399654 0.880409 0.210929 -0.128809
C60   C     C_R   0.427812 0.924905 0.286143 -0.157176
C61   C     C_1   0.481152 0.338461 0.913239 0.132115
C62   C     C_1   0.646451 0.566596 0.085628 0.156786
C63   C     C_1   0.365429 0.411710 0.090547 0.139410
C64   C     C_R   0.931954 0.496314 0.322187 0.114165
C65   C     C_R   0.951713 0.562456 0.262610 -0.158817
C66   C     C_R   0.917059 0.562781 0.176451 -0.117153
C67   C     C_1   0.173625 0.489776 0.496266 -0.075663
C68   C     C_R   0.862590 0.497248 0.149274 -0.092941
C69   C     C_R   0.842487 0.431343 0.208272 -0.131181
C70   C     C_R   0.877149 0.430689 0.294348 -0.120485
C71   C     C_R   0.067223 0.474116 0.672982 0.125107
C72   C     C_R   0.054410 0.535925 0.738686 -0.151436
C73   C     C_R   0.091735 0.526939 0.823120 -0.136419
C74   C     C_R   0.142041 0.456423 0.842450 -0.114917
C75   C     C_R   0.154828 0.394565 0.777467 -0.130630
C76   C     C_R   0.117449 0.403243 0.693106 -0.147316
C77   C     C_1   0.584042 0.913711 0.650369 0.172410
C78   C     C_1   0.826193 0.493600 0.501522 -0.062786
C79   C     C_1   0.589118 0.081035 0.348791 0.066756
C80   C     C_3   0.519174 0.049382 0.594633 -0.457549
H1    H     H_    0.576053 0.930198 0.372067 0.141253
H2    H     H_    0.626893 0.552153 0.919758 0.175559
H3    H     H_    0.389298 0.583062 0.074831 0.172353
H4    H     H_    0.488566 0.638124 0.074628 0.180837
H5    H     H_    0.389401 0.582265 0.921434 0.167810
H6    H     H_    0.381915 0.424332 0.924890 0.129998
H7    H     H_    0.490061 0.635936 0.921317 0.182083
H8    H     H_    0.055027 0.619289 0.428107 0.137984
H9    H     H_    0.951005 0.612516 0.582716 0.136923
H10   H     H_    0.576829 0.073966 0.629045 0.189376
H11   H     H_    0.988958 0.251100 0.472634 0.120743
H12   H     H_    0.433366 0.067034 0.379629 0.141105
H13   H     H_    0.030376 0.133865 0.374422 0.140097
H14   H     H_    0.117370 0.162354 0.239943 0.132896
H15   H     H_    0.163165 0.309309 0.204111 0.156974
H16   H     H_    0.122112 0.427882 0.301818 0.140702
H17   H     H_    0.705115 0.002037 0.587589 0.157842
H18   H     H_    0.830193 0.071764 0.646551 0.135120
H19   H     H_    0.879085 0.208951 0.584574 0.111504
H20   H     H_    0.799593 0.275932 0.460446 0.126127
H21   H     H_    0.673674 0.208125 0.398322 0.141331
H22   H     H_    0.332258 0.022410 0.608234 0.107954
H23   H     H_    0.376547 0.933789 0.506957 0.133889
H24   H     H_    0.208707 0.101476 0.658220 0.127548
H25   H     H_    0.152901 0.220994 0.568415 0.118600
H26   H     H_    0.222944 0.261481 0.426841 0.159367
H27   H     H_    0.344149 0.180699 0.371520 0.129080
H28   H     H_    0.305376 0.824898 0.442315 0.111002
H29   H     H_    0.256770 0.747964 0.309372 0.124785
H30   H     H_    0.316806 0.782099 0.160938 0.119888
H31   H     H_    0.425676 0.895417 0.145976 0.134219
H32   H     H_    0.474922 0.973754 0.276373 0.137446
H33   H     H_    0.993980 0.613565 0.282257 0.120238
H34   H     H_    0.466227 0.074665 0.635013 0.180502
H35   H     H_    0.932532 0.613815 0.130670 0.130110
H36   H     H_    0.835938 0.497561 0.082534 0.128338
H37   H     H_    0.800204 0.380670 0.187242 0.128925
H38   H     H_    0.861481 0.378982 0.339281 0.122883
H39   H     H_    0.016091 0.591174 0.724910 0.119746
H40   H     H_    0.081854 0.574806 0.873516 0.127520
H41   H     H_    0.171130 0.449746 0.907711 0.130265
H42   H     H_    0.193853 0.339995 0.792374 0.131576
H43   H     H_    0.128161 0.355186 0.643145 0.119436
H44   H     H_    0.456173 0.931803 0.630506 0.125642
H45   H     H_    0.943868 0.359483 0.570961 0.132442
H46   H     H_    0.487112 0.362207 0.078449 0.130063
H47   H     H_    0.623136 0.436537 0.074992 0.117835
H48   H     H_    0.625117 0.439287 0.922618 0.165565
N1    N     N_1   0.498320 0.498630 0.731150 -0.083447
N2    N     N_1   0.501700 0.501360 0.268850 -0.081318
N3    N     N_1   0.732573 0.870675 0.473210 -0.198003
N4    N     N_1   0.506329 0.275086 0.885463 -0.201201
N5    N     N_1   0.688335 0.621722 0.112221 -0.202340
N6    N     N_1   0.297467 0.406081 0.119293 -0.238328
N7    N     N_1   0.637188 0.883827 0.693691 -0.209974
N8    N     N_1   0.584907 0.103554 0.275264 -0.220258
O1    O     O_R   0.500080 0.377210 0.574260 -0.604204
O2    O     O_R   0.499910 0.377070 0.425800 -0.617936
O3    O     O_R   0.376870 0.500060 0.574220 -0.608050
O4    O     O_R   0.376690 0.499920 0.425760 -0.612761
O5    O     O_R   0.500090 0.622930 0.574200 -0.613108
O6    O     O_R   0.499920 0.622790 0.425740 -0.603727
O7    O     O_R   0.623310 0.500080 0.574240 -0.610598
O8    O     O_R   0.623130 0.499940 0.425780 -0.607954
Zn1   Zn    Zn3+2 0.500120 0.500090 0.599130 0.985227
Zn2   Zn    Zn3+2 0.499880 0.499910 0.400870 0.985182

loop_
_geom_bond_atom_site_label_1
_geom_bond_atom_site_label_2
_ccdc_geom_bond_type
C66   C68   A    
C50   H24   S    
C23   C45   S    
C12   C29   S    
N2    Zn2   S    
C75   H42   S    
C41   C42   A    
O6    Zn2   S    
C35   C36   A    
C7    H44   S    
C43   C44   A    
C25   N1    T    
C7    C8    S    
C54   C60   A    
C52   C53   A    
C15   C19   S    
C79   N8    T    
C33   C39   A    
C62   N5    T    
O1    Zn1   S    
C28   C29   S    
C24   H3    S    
C43   H19   S    
C5    C11   T    
C2    C3    S    
C42   H18   S    
C38   C39   A    
O3    Zn1   S    
C18   C21   S    
C29   C33   S    
C73   C74   A    
C22   H5    S    
C3    C47   S    
C20   C61   S    
C19   C26   S    
C5    C16   S    
C2    C79   S    
C61   N4    T    
C33   C35   A    
C36   H13   S    
C57   H29   S    
C45   C56   S    
C68   C69   A    
C15   H46   S    
C20   H6    S    
C38   H15   S    
C3    H1    S    
C59   H31   S    
C23   H9    S    
C64   C70   A    
C9    C10   S    
N1    Zn1   S    
C30   C67   T    
C26   N2    T    
C51   H25   S    
C34   C56   S    
C7    C77   S    
C18   H48   S    
C52   H26   S    
C59   C60   A    
C73   H40   S    
C21   C22   S    
C12   C32   S    
C2    C6    S    
C12   C67   S    
C44   C46   A    
C17   C18   S    
C32   C71   S    
C10   H12   S    
C48   C53   A    
C46   H21   S    
C66   H35   S    
C27   C31   S    
C51   C52   A    
C63   N6    T    
C28   C32   S    
C45   H8    S    
O8    Zn2   S    
C3    C8    S    
C74   C75   A    
O4    Zn2   S    
C49   H22   S    
C8    C9    S    
C58   C59   A    
C47   N3    T    
C15   C20   S    
C16   O6    A    
C75   C76   A    
C37   C38   A    
C60   H32   S    
C17   C62   S    
C4    O4    A    
C53   H27   S    
C6    C80   S    
C9    H23   S    
C23   C34   S    
C56   C64   S    
C50   C51   A    
C27   O7    A    
C22   H7    S    
C68   H36   S    
C48   C49   A    
C80   H34   S    
C49   C50   A    
C55   C57   A    
C10   C48   S    
C41   H17   S    
C42   C43   A    
C40   C46   A    
C17   C19   S    
C1    O1    A    
C28   H45   S    
C31   C78   T    
O7    Zn1   S    
C21   C25   S    
C54   C55   A    
C36   C37   A    
C58   H30   S    
C76   H43   S    
C65   H33   S    
C17   H47   S    
C72   C73   A    
C6    C10   S    
C12   C45   S    
C29   C56   S    
O5    Zn1   S    
C1    C14   S    
C55   H28   S    
C23   C32   S    
C19   C24   S    
C24   H4    S    
C71   C72   A    
C64   C65   A    
C6    C13   S    
C44   H20   S    
C27   O8    A    
C57   C58   A    
C71   C76   A    
O2    Zn2   S    
C8    C11   S    
C72   H39   S    
C69   H37   S    
C18   H2    S    
C37   H14   S    
C16   O5    A    
C22   C24   S    
C80   H10   S    
C69   C70   A    
C4    C30   S    
C39   H16   S    
C28   C34   S    
C2    C40   S    
C70   H38   S    
C74   H41   S    
C20   C21   S    
C65   C66   A    
C15   C63   S    
C40   C41   A    
C9    C54   S    
C77   N7    T    
C13   C14   T    
C34   C78   S    
C1    O2    A    
C7    C80   S    
C4    O3    A    
C35   H11   S    
