data_mof_unit_pretest_702.cif
_audit_creation_date              2012-12-10T20:32:46-0500
_audit_creation_method            fapswitch 2.2
_symmetry_space_group_name_H-M    P1
_symmetry_Int_Tables_number       1
_space_group_crystal_system       triclinic
_cell_length_a                    11.485002
_cell_length_b                    10.759581
_cell_length_c                    9.983059
_cell_angle_alpha                 90.875209
_cell_angle_beta                  90.147599
_cell_angle_gamma                 88.873718
_cell_volume                      1233.25919923

loop_
_atom_site_label
_atom_site_type_symbol
_atom_type_description
_atom_site_fract_x
_atom_site_fract_y
_atom_site_fract_z
_atom_type_partial_charge
C1    C     C_R   0.505023 0.260436 0.498567 0.908140
C2    C     C_R   0.595142 0.457796 0.072217 0.213232
C3    C     C_R   0.592386 0.450205 0.928388 0.165870
C4    C     C_R   0.282343 0.499414 0.499700 0.901172
C5    C     C_R   0.409103 0.550123 0.928440 -0.021372
C6    C     C_3   0.285365 0.512417 0.914429 0.040441
C7    C     C_3   0.280491 0.508751 0.068672 0.305510
C8    C     C_R   0.507134 0.738919 0.500701 0.920932
C9    C     C_R   0.717695 0.499648 0.500109 0.897231
C10   C     C_1   0.161831 0.497614 0.498319 -0.190785
C11   C     C_1   0.059445 0.496787 0.497293 -0.023342
C12   C     C_R   0.512037 0.127735 0.494868 -0.182590
C13   C     C_1   0.940672 0.497245 0.498569 -0.028721
C14   C     C_1   0.838272 0.498339 0.499975 -0.195616
C15   C     C_R   0.479206 0.066064 0.609418 -0.009639
C16   C     C_3   0.511100 0.138089 0.157695 -0.726886
C17   C     C_3   0.199300 0.607094 0.136574 -0.807354
C18   C     C_3   0.257797 0.374862 0.113568 -0.875157
C19   C     C_3   0.564083 0.834992 0.161856 -0.679495
C20   C     C_3   0.323431 0.928264 0.844854 -0.836839
C21   C     C_3   0.650752 0.882464 0.770057 -0.962001
C22   C     C_3   0.795309 0.496859 0.136326 -0.750753
C23   C     C_R   0.553609 0.060526 0.381153 0.138705
C24   C     C_3   0.689670 0.381660 0.856076 -0.832845
C25   C     C_3   0.094038 0.576438 0.822952 -0.762786
C26   C     C_R   0.561462 0.930776 0.386589 0.135369
C27   C     C_R   0.518999 0.870545 0.500942 -0.219968
C28   C     C_R   0.479794 0.938517 0.612402 0.058446
C29   C     C_3   0.527440 0.939944 0.754221 0.433709
C30   C     C_3   0.529047 0.080843 0.747219 -0.446599
C31   C     C_R   0.407182 0.546857 0.069941 0.069548
H1    H     H_    0.279187 0.420534 0.862038 0.153772
H2    H     H_    0.106891 0.581552 0.124007 0.228865
H3    H     H_    0.166712 0.350396 0.088474 0.228415
H4    H     H_    0.316415 0.307309 0.060620 0.197529
H5    H     H_    0.269942 0.362203 0.221916 0.280055
H6    H     H_    0.709966 0.886776 0.274338 0.198835
H7    H     H_    0.599652 0.891554 0.080481 0.216679
H8    H     H_    0.468616 0.852617 0.170525 0.245271
H9    H     H_    0.579535 0.736082 0.133933 0.237069
H10   H     H_    0.458523 0.801505 0.875418 0.245716
H11   H     H_    0.278864 0.900496 0.937934 0.225672
H12   H     H_    0.470120 0.132382 0.817214 0.191995
H13   H     H_    0.283074 0.880166 0.757678 0.244628
H14   H     H_    0.309408 0.029796 0.835339 0.246811
H15   H     H_    0.647977 0.779510 0.771311 0.262608
H16   H     H_    0.708359 0.910306 0.686856 0.234607
H17   H     H_    0.689865 0.914979 0.865793 0.230571
H18   H     H_    0.715207 0.323472 0.135177 0.215120
H19   H     H_    0.863278 0.464361 0.207536 0.236843
H20   H     H_    0.770061 0.594206 0.163635 0.249747
H21   H     H_    0.833701 0.494430 0.034702 0.215646
H22   H     H_    0.656681 0.331460 0.767721 0.272326
H23   H     H_    0.618122 0.119387 0.744959 0.176397
H24   H     H_    0.757903 0.447394 0.826819 0.246261
H25   H     H_    0.730599 0.307914 0.917382 0.191461
H26   H     H_    0.227164 0.698289 0.877785 0.231501
H27   H     H_    0.057860 0.640764 0.746893 0.240968
H28   H     H_    0.040375 0.586827 0.914474 0.226532
H29   H     H_    0.087853 0.479617 0.783794 0.244521
H30   H     H_    0.677053 0.097401 0.234578 0.203685
H31   H     H_    0.497292 0.238102 0.138916 0.248057
H32   H     H_    0.545370 0.094998 0.063808 0.219921
H33   H     H_    0.425543 0.096978 0.181257 0.239462
H34   H     H_    0.215260 0.614876 0.244877 0.256180
H35   H     H_    0.212737 0.701565 0.097418 0.198697
N1    N     N_R   0.499240 0.499140 0.142800 -0.143086
N2    N     N_R   0.499240 0.499180 0.857150 -0.125881
N3    N     N_2   0.594498 0.123124 0.265994 -0.281265
N4    N     N_2   0.624421 0.861855 0.286175 -0.289622
N5    N     N_2   0.446209 0.894278 0.854089 -0.290115
N6    N     N_2   0.695398 0.416987 0.144041 -0.243307
N7    N     N_2   0.213926 0.607357 0.850128 -0.269435
O1    O     O_R   0.500010 0.316790 0.614690 -0.638555
O2    O     O_R   0.500000 0.316760 0.385350 -0.586670
O3    O     O_R   0.334450 0.500030 0.614670 -0.587503
O4    O     O_R   0.334440 0.500000 0.385330 -0.632593
O5    O     O_R   0.500000 0.683240 0.614650 -0.620747
O6    O     O_R   0.499990 0.683210 0.385310 -0.586273
O7    O     O_R   0.665560 0.500000 0.614670 -0.629580
O8    O     O_R   0.665550 0.499970 0.385330 -0.575051
Zn1   Zn    Zn3+2 0.500010 0.500020 0.653130 0.927210
Zn2   Zn    Zn3+2 0.499990 0.499980 0.346870 0.954492

loop_
_geom_bond_atom_site_label_1
_geom_bond_atom_site_label_2
_ccdc_geom_bond_type
C6    H1    S    
N1    Zn2   S    
C23   N3    S    
C3    N2    A    
C24   H24   S    
C31   N1    A    
C30   H23   S    
C12   C23   A    
C17   H35   S    
C16   H31   S    
C15   C30   S    
C1    O1    A    
C28   C29   S    
C5    C6    S    
O4    Zn2   S    
C23   C26   A    
H26   N7    S    
C20   H13   S    
C7    C17   S    
H18   N6    S    
C8    O6    A    
C20   N5    S    
C16   H32   S    
C18   H4    S    
C20   H14   S    
H10   N5    S    
C21   H17   S    
C13   C14   T    
C8    O5    A    
C3    C24   S    
C1    C12   S    
C17   H2    S    
O1    Zn1   S    
C5    N2    A    
C2    N6    S    
C22   N6    S    
O8    Zn2   S    
C7    C31   S    
C1    O2    A    
O7    Zn1   S    
C2    N1    A    
C19   H9    S    
O3    Zn1   S    
C24   H22   S    
C21   C29   S    
C9    O7    A    
C9    C14   S    
C29   C30   S    
C19   H7    S    
O5    Zn1   S    
C12   C15   A    
C7    C18   S    
C26   C27   A    
C18   H3    S    
C19   H8    S    
C25   H29   S    
C26   N4    S    
C30   H12   S    
C25   H27   S    
C4    C10   S    
C6    N7    S    
C22   H21   S    
C21   H15   S    
H30   N3    S    
C16   N3    S    
C20   H11   S    
C6    C7    S    
C24   H25   S    
C25   H28   S    
C17   H34   S    
C22   H19   S    
N2    Zn1   S    
C2    C3    A    
C4    O4    A    
O6    Zn2   S    
C11   C13   S    
O2    Zn2   S    
C15   C28   A    
C25   N7    S    
C21   H16   S    
C4    O3    A    
C10   C11   T    
C27   C28   A    
C8    C27   S    
C19   N4    S    
C16   H33   S    
C29   N5    S    
H6    N4    S    
C18   H5    S    
C9    O8    A    
C22   H20   S    
C5    C31   A    
