data_mof_unit_pretest_811.cif
_audit_creation_date              2012-12-11T14:03:50-0500
_audit_creation_method            fapswitch 2.2
_symmetry_space_group_name_H-M    P1
_symmetry_Int_Tables_number       1
_space_group_crystal_system       triclinic
_cell_length_a                    19.288186
_cell_length_b                    10.881811
_cell_length_c                    18.936058
_cell_angle_alpha                 89.866533
_cell_angle_beta                  89.932355
_cell_angle_gamma                 90.370808
_cell_volume                      3974.39982657

loop_
_atom_site_label
_atom_site_type_symbol
_atom_type_description
_atom_site_fract_x
_atom_site_fract_y
_atom_site_fract_z
_atom_type_partial_charge
C1    C     C_R   0.239269 0.467919 0.646013 0.551673
C2    C     C_R   0.761835 0.470207 0.354069 0.557159
C3    C     C_R   0.739269 0.967916 0.646014 0.549562
C4    C     C_R   0.261834 0.970203 0.354067 0.556999
C5    C     C_2   0.297060 0.897990 0.543941 -0.120650
C6    C     C_2   0.733115 0.786713 0.472157 -0.129896
C7    C     C_2   0.797064 0.398002 0.543944 -0.120625
C8    C     C_2   0.233111 0.286720 0.472155 -0.129870
C9    C     C_R   0.966097 0.658217 0.436437 -0.029362
C10   C     C_R   0.041312 0.662977 0.563155 -0.007820
C11   C     C_R   0.466096 0.158217 0.436438 -0.029175
C12   C     C_R   0.541312 0.162977 0.563155 -0.007814
C13   C     C_R   0.957822 0.888643 0.442832 -0.093610
C14   C     C_R   0.034430 0.892694 0.563482 -0.069337
C15   C     C_R   0.457820 0.388642 0.442832 -0.093791
C16   C     C_R   0.534430 0.392694 0.563481 -0.069069
C17   C     C_R   0.966028 0.997384 0.479140 -0.107314
C18   C     C_R   0.005876 0.000579 0.538849 -0.116752
C19   C     C_R   0.466027 0.497384 0.479139 -0.107426
C20   C     C_R   0.505876 0.500579 0.538848 -0.116464
C21   C     C_R   0.018113 0.775956 0.533642 0.038922
C22   C     C_R   0.980394 0.773798 0.469853 0.016888
C23   C     C_R   0.518112 0.275956 0.533642 0.038936
C24   C     C_R   0.480393 0.273798 0.469853 0.016921
C25   C     C_R   0.034101 0.552914 0.524733 0.032188
C26   C     C_R   0.986952 0.546521 0.469517 0.022323
C27   C     C_R   0.534101 0.052914 0.524732 0.032185
C28   C     C_R   0.486951 0.046520 0.469517 0.022402
C29   C     C_R   0.072401 0.447007 0.541455 -0.057542
C30   C     C_R   0.967013 0.426826 0.445941 -0.076028
C31   C     C_R   0.572403 0.947008 0.541454 -0.057496
C32   C     C_R   0.467012 0.926825 0.445942 -0.076026
C33   C     C_R   0.059090 0.334221 0.510389 -0.118342
C34   C     C_R   0.005769 0.324381 0.462639 -0.111048
C35   C     C_R   0.559091 0.834222 0.510389 -0.118240
C36   C     C_R   0.505770 0.824380 0.462640 -0.111058
C37   C     C_2   0.252718 0.924683 0.918025 -0.106333
C38   C     C_2   0.761188 0.898296 0.071917 -0.101827
C39   C     C_2   0.753039 0.425420 0.917768 -0.103177
C40   C     C_2   0.247046 0.425873 0.082341 -0.103335
C41   C     C_2   0.254983 0.936159 0.073990 -0.093111
C42   C     C_2   0.750332 0.899336 0.916095 -0.108142
C43   C     C_2   0.755302 0.437184 0.073718 -0.095353
C44   C     C_2   0.244361 0.436789 0.926418 -0.101306
C45   C     C_R   0.227321 0.878861 0.649898 0.558643
C46   C     C_R   0.793318 0.820585 0.357352 0.558530
C47   C     C_R   0.727322 0.378863 0.649899 0.557771
C48   C     C_R   0.293318 0.320587 0.357352 0.558011
C49   C     C_2   0.224027 0.017825 0.030797 -0.152823
C50   C     C_2   0.809000 0.918936 0.951777 -0.158822
C51   C     C_2   0.724869 0.519440 0.030485 -0.152052
C52   C     C_2   0.275573 0.519164 0.969250 -0.150804
C53   C     C_2   0.211634 0.996114 0.956406 -0.164618
C54   C     C_2   0.815083 0.893194 0.026858 -0.154874
C55   C     C_2   0.712338 0.497727 0.956051 -0.163251
C56   C     C_2   0.288260 0.497714 0.043655 -0.164161
C57   C     C_2   0.009853 0.656220 0.925747 -0.097636
C58   C     C_2   0.007037 0.664906 0.082412 -0.105860
C59   C     C_2   0.509791 0.156219 0.925719 -0.097930
C60   C     C_2   0.507053 0.164662 0.082412 -0.103267
C61   C     C_2   0.019592 0.564172 0.044533 -0.160510
C62   C     C_2   0.034228 0.568577 0.969305 -0.151673
C63   C     C_2   0.519087 0.063800 0.044437 -0.164260
C64   C     C_2   0.533632 0.068013 0.969199 -0.155515
C65   C     C_R   0.061527 0.652087 0.637754 0.551481
C66   C     C_R   0.941108 0.650928 0.363006 0.513278
C67   C     C_R   0.561527 0.152087 0.637753 0.551404
C68   C     C_R   0.441108 0.150928 0.363006 0.513257
C69   C     C_R   0.237371 0.470649 0.852660 0.551486
C70   C     C_R   0.762568 0.471208 0.147364 0.562195
C71   C     C_R   0.738678 0.964107 0.850076 0.553177
C72   C     C_R   0.262472 0.970852 0.147493 0.562724
C73   C     C_R   0.227581 0.874431 0.852086 0.552717
C74   C     C_R   0.774693 0.869798 0.145382 0.566010
C75   C     C_R   0.727643 0.374610 0.852020 0.554828
C76   C     C_R   0.272344 0.374960 0.148024 0.569905
C77   C     C_R   0.031466 0.651629 0.852343 0.566260
C78   C     C_R   0.971513 0.653191 0.149740 0.574100
C79   C     C_R   0.531477 0.151622 0.852344 0.567466
C80   C     C_R   0.471544 0.153162 0.149762 0.577479
C81   C     C_2   0.249499 0.943164 0.586723 -0.095323
C82   C     C_2   0.789833 0.815873 0.434781 -0.108679
C83   C     C_2   0.749503 0.443173 0.586728 -0.095376
C84   C     C_2   0.289831 0.315876 0.434780 -0.108146
C85   C     C_2   0.252693 0.916509 0.422924 0.116760
C86   C     C_2   0.750858 0.927333 0.573373 0.088046
C87   C     C_2   0.752695 0.416519 0.422928 0.116840
C88   C     C_2   0.250856 0.427338 0.573371 0.087478
C89   C     C_2   0.299866 0.945558 0.472434 -0.148927
C90   C     C_2   0.729362 0.817383 0.548415 -0.168407
C91   C     C_2   0.799868 0.445570 0.472437 -0.148972
C92   C     C_2   0.229358 0.317389 0.548412 -0.168356
Cr1   Cr    Cr6+3 0.113970 0.508630 0.747920 1.014412
Cr2   Cr    Cr6+3 0.886030 0.508630 0.252080 1.023285
Cr3   Cr    Cr6+3 0.613970 0.008630 0.747920 1.013711
Cr4   Cr    Cr6+3 0.386030 0.008630 0.252080 1.021561
Cr5   Cr    Cr6+3 0.269200 0.666740 0.749850 1.037176
Cr6   Cr    Cr6+3 0.730800 0.666740 0.250150 1.035463
Cr7   Cr    Cr6+3 0.769200 0.166740 0.749850 1.039346
Cr8   Cr    Cr6+3 0.230800 0.166740 0.250150 1.034874
Cr9   Cr    Cr6+3 0.112300 0.820070 0.749800 1.011312
Cr10  Cr    Cr6+3 0.887700 0.820070 0.250200 1.023684
Cr11  Cr    Cr6+3 0.612300 0.320070 0.749800 1.014104
Cr12  Cr    Cr6+3 0.387700 0.320070 0.250200 1.024410
H1    H     H_    0.338698 0.015433 0.461605 0.087428
H2    H     H_    0.703095 0.753459 0.583667 0.101454
H3    H     H_    0.838701 0.515443 0.461606 0.087292
H4    H     H_    0.203090 0.253464 0.583664 0.101630
H5    H     H_    0.164861 0.035619 0.934177 0.154680
H6    H     H_    0.867353 0.877503 0.046224 0.150213
H7    H     H_    0.665687 0.537615 0.933787 0.154660
H8    H     H_    0.335421 0.537253 0.065541 0.155482
H9    H     H_    0.277700 0.851429 0.054980 0.092568
H10   H     H_    0.707329 0.848822 0.939611 0.095984
H11   H     H_    0.777675 0.352201 0.054688 0.099632
H12   H     H_    0.221357 0.351880 0.945803 0.086708
H13   H     H_    0.301250 0.890319 0.939144 0.104045
H14   H     H_    0.708318 0.912631 0.054305 0.091651
H15   H     H_    0.801517 0.390825 0.938885 0.110567
H16   H     H_    0.198157 0.391496 0.061550 0.098474
H17   H     H_    0.015775 0.473265 0.068147 0.156091
H18   H     H_    0.063785 0.491750 0.948771 0.154638
H19   H     H_    0.514867 0.972886 0.067981 0.155786
H20   H     H_    0.562693 0.990636 0.948612 0.152636
H21   H     H_    0.013982 0.756094 0.059926 0.103141
H22   H     H_    0.980684 0.734393 0.944856 0.089738
H23   H     H_    0.514368 0.255810 0.059998 0.108244
H24   H     H_    0.481124 0.234894 0.944914 0.098123
H25   H     H_    0.330304 0.822640 0.559410 0.184781
H26   H     H_    0.688075 0.746727 0.446538 0.161436
H27   H     H_    0.830305 0.322645 0.559411 0.184745
H28   H     H_    0.188071 0.246737 0.446535 0.161503
H29   H     H_    0.217707 0.019466 0.568729 0.113427
H30   H     H_    0.834660 0.844349 0.463975 0.124338
H31   H     H_    0.717712 0.519478 0.568735 0.113408
H32   H     H_    0.334658 0.344349 0.463975 0.124468
H33   H     H_    0.940482 0.078594 0.460249 0.138131
H34   H     H_    0.015661 0.086659 0.565628 0.112438
H35   H     H_    0.440482 0.578593 0.460248 0.138028
H36   H     H_    0.515663 0.586659 0.565626 0.112577
H37   H     H_    0.928447 0.900415 0.396683 0.179359
H38   H     H_    0.070903 0.906358 0.604259 0.185284
H39   H     H_    0.428445 0.400414 0.396684 0.179370
H40   H     H_    0.570903 0.406358 0.604258 0.185248
H41   H     H_    0.923954 0.409620 0.411180 0.158140
H42   H     H_    0.114002 0.452440 0.577130 0.160841
H43   H     H_    0.423954 0.909619 0.411180 0.158076
H44   H     H_    0.614004 0.952443 0.577128 0.161015
H45   H     H_    0.089359 0.254434 0.523944 0.099084
H46   H     H_    0.996354 0.239370 0.435687 0.114017
H47   H     H_    0.589361 0.754435 0.523944 0.099065
H48   H     H_    0.496355 0.739369 0.435688 0.113807
H49   H     H_    0.202263 0.102488 0.051323 0.153825
H50   H     H_    0.853407 0.963025 0.926765 0.155390
H51   H     H_    0.703471 0.604351 0.051075 0.157161
H52   H     H_    0.297603 0.603982 0.948323 0.156804
O1    O     O_R   0.043230 0.549300 0.667990 -0.513149
O2    O     O_R   0.956770 0.549300 0.332010 -0.500250
O3    O     O_R   0.543230 0.049300 0.667990 -0.513016
O4    O     O_R   0.456770 0.049300 0.332010 -0.500568
O5    O     O_R   0.262920 0.788600 0.824420 -0.506058
O6    O     O_R   0.737080 0.788600 0.175580 -0.495943
O7    O     O_R   0.762920 0.288600 0.824420 -0.498064
O8    O     O_R   0.237080 0.288600 0.175580 -0.499904
O9    O     O_R   0.167530 0.905110 0.830340 -0.514827
O10   O     O_R   0.832470 0.905110 0.169660 -0.505610
O11   O     O_R   0.667530 0.405110 0.830340 -0.515778
O12   O     O_R   0.332470 0.405110 0.169660 -0.508131
O13   O     O_R   0.054010 0.748440 0.822860 -0.489400
O14   O     O_R   0.945990 0.748440 0.177140 -0.496588
O15   O     O_R   0.554010 0.248440 0.822860 -0.487530
O16   O     O_R   0.445990 0.248440 0.177140 -0.489887
O17   O     O_3   0.165160 0.665150 0.749190 -0.269244
O18   O     O_3   0.834840 0.665150 0.250810 -0.308911
O19   O     O_3   0.665160 0.165150 0.749190 -0.268330
O20   O     O_3   0.334840 0.165150 0.250810 -0.306810
O21   O     O_R   0.178620 0.457600 0.674100 -0.545314
O22   O     O_R   0.821380 0.457600 0.325900 -0.534694
O23   O     O_R   0.678620 0.957600 0.674100 -0.546227
O24   O     O_R   0.321380 0.957600 0.325900 -0.535187
O25   O     O_R   0.284680 0.542100 0.669460 -0.477923
O26   O     O_R   0.715320 0.542100 0.330540 -0.505807
O27   O     O_R   0.784680 0.042100 0.669460 -0.479982
O28   O     O_R   0.215320 0.042100 0.330540 -0.505567
O29   O     O_R   0.262860 0.790390 0.676650 -0.479712
O30   O     O_R   0.737140 0.790390 0.323350 -0.474402
O31   O     O_R   0.762860 0.290390 0.676650 -0.480575
O32   O     O_R   0.237140 0.290390 0.323350 -0.475677
O33   O     O_R   0.167460 0.907030 0.670940 -0.558074
O34   O     O_R   0.832540 0.907030 0.329060 -0.510089
O35   O     O_R   0.667460 0.407030 0.670940 -0.558448
O36   O     O_R   0.332540 0.407030 0.329060 -0.512278
O37   O     O_R   0.053950 0.750220 0.675100 -0.514173
O38   O     O_R   0.946050 0.750220 0.324900 -0.513761
O39   O     O_R   0.553950 0.250220 0.675100 -0.513881
O40   O     O_R   0.446050 0.250220 0.324900 -0.514498
O41   O     O_R   0.043300 0.547370 0.827390 -0.510993
O42   O     O_R   0.956700 0.547370 0.172610 -0.503572
O43   O     O_R   0.543300 0.047370 0.827390 -0.511244
O44   O     O_R   0.456700 0.047370 0.172610 -0.505406
O45   O     O_R   0.178690 0.455820 0.821860 -0.504103
O46   O     O_R   0.821310 0.455820 0.178140 -0.490389
O47   O     O_R   0.678690 0.955820 0.821860 -0.507053
O48   O     O_R   0.321310 0.955820 0.178140 -0.492081
O49   O     O_R   0.284750 0.540170 0.828860 -0.512531
O50   O     O_R   0.715250 0.540170 0.171140 -0.508882
O51   O     O_R   0.784750 0.040170 0.828860 -0.510702
O52   O     O_R   0.215250 0.040170 0.171140 -0.508475
I1    I     I_    0.165126 0.802783 0.436831 -0.330832
I2    I     I_    0.787774 0.074984 0.508461 -0.378451
I3    I     I_    0.665128 0.302800 0.436843 -0.330537
I4    I     I_    0.287774 0.574988 0.508459 -0.378871

loop_
_geom_bond_atom_site_label_1
_geom_bond_atom_site_label_2
_ccdc_geom_bond_type
C70   O46   A    
C7    C83   D    
C14   H38   S    
Cr10  O14   S    
Cr1   O17   S    
C6    C82   D    
C87   C91   D    
C14   C18   A    
Cr9   O17   S    
C35   C36   A    
C74   O10   A    
C6    H26   S    
C43   C51   D    
Cr7   O31   S    
Cr8   O52   S    
C57   C62   D    
Cr12  O20   S    
C32   H43   S    
Cr11  O11   S    
C75   O11   A    
C12   C23   A    
C51   H51   S    
C59   C64   D    
C50   C54   S    
Cr11  O39   S    
C60   C63   D    
Cr3   O3    S    
C32   C36   A    
C14   C21   A    
C75   O7    A    
C16   H40   S    
C4    O24   A    
C48   O32   A    
Cr9   O33   S    
C2    O26   A    
Cr6   O18   S    
C49   C53   S    
C9    C22   A    
Cr5   O29   S    
Cr3   O47   S    
C80   O44   A    
C29   C33   A    
C11   C24   A    
C78   O14   A    
C54   H6    S    
C61   H17   S    
Cr2   O22   S    
C79   O15   A    
C18   H34   S    
C3    O23   A    
C9    C66   S    
Cr3   O19   S    
C43   H11   S    
C46   C82   S    
C1    O21   A    
C92   H4    S    
C39   C55   D    
C88   C92   D    
C40   C56   D    
C71   O47   A    
Cr8   O20   S    
C73   O5    A    
C23   C24   A    
C29   H42   S    
Cr9   O13   S    
C8    C92   S    
C39   C75   S    
Cr1   O45   S    
Cr7   O27   S    
C72   O48   A    
C37   C53   D    
C44   C52   D    
C1    C88   S    
C5    H25   S    
C87   I3    S    
Cr10  O10   S    
C21   C22   A    
C3    C86   S    
Cr11  O15   S    
Cr8   O32   S    
C61   C62   S    
C35   H47   S    
C46   O34   A    
C67   O39   A    
Cr10  O38   S    
C41   C49   D    
Cr6   O6    S    
Cr9   O37   S    
C9    C26   A    
Cr4   O48   S    
C65   O37   A    
C10   C21   A    
C25   C29   A    
C69   O45   A    
C12   C67   S    
C45   C81   S    
C79   O43   A    
C30   C34   A    
C12   C27   A    
C27   C31   A    
C57   C77   S    
C28   C32   A    
Cr5   O17   S    
C90   H2    S    
C72   O52   A    
C86   C90   D    
C59   C79   S    
C57   H22   S    
C74   O6    A    
Cr1   O21   S    
Cr3   O23   S    
C4    C85   S    
C51   C55   S    
C59   H24   S    
C64   H20   S    
C46   O30   A    
C48   C84   S    
C48   O36   A    
Cr7   O51   S    
Cr2   O42   S    
C81   H29   S    
C82   H30   S    
C15   C19   A    
C42   H10   S    
Cr8   O8    S    
C8    H28   S    
C15   H39   S    
C91   H3    S    
Cr12  O12   S    
C5    C81   D    
C38   C54   D    
C16   C20   A    
C7    C91   S    
Cr11  O19   S    
C17   C18   A    
Cr12  O40   S    
Cr7   O19   S    
C2    C87   S    
C68   O40   A    
C85   C89   D    
Cr4   O24   S    
Cr1   O1    S    
C66   O2    A    
C42   C50   D    
C41   C72   S    
Cr2   O46   S    
C31   H44   S    
C50   H50   S    
C10   C25   A    
C65   O1    A    
C15   C24   A    
C40   H16   S    
C73   O9    A    
Cr2   O18   S    
C26   C30   A    
C16   C23   A    
Cr5   O5    S    
Cr7   O7    S    
C76   O8    A    
Cr11  O35   S    
C80   O16   A    
C47   O31   A    
C68   O4    A    
Cr12  O16   S    
C62   H18   S    
C11   C68   S    
C30   H41   S    
C67   O3    A    
C38   C74   S    
C10   C65   S    
C49   H49   S    
Cr4   O44   S    
C77   O13   A    
C37   C73   S    
C60   C80   S    
C1    O25   A    
Cr4   O20   S    
C55   H7    S    
C8    C84   D    
C83   H31   S    
C13   H37   S    
C60   H23   S    
C36   H48   S    
C86   I2    S    
C41   H9    S    
C47   C83   S    
C85   I1    S    
Cr2   O2    S    
C63   H19   S    
Cr5   O25   S    
Cr10  O18   S    
C70   O50   A    
Cr6   O26   S    
C43   C70   S    
C78   O42   A    
C69   O49   A    
C13   C17   A    
C20   H36   S    
C19   C20   A    
C17   H33   S    
Cr4   O4    S    
C25   C26   A    
C7    H27   S    
Cr6   O30   S    
C6    C90   S    
Cr9   O9    S    
C45   O29   A    
C3    O27   A    
C11   C28   A    
C58   C61   D    
C39   H15   S    
Cr1   O41   S    
C71   O51   A    
C42   C71   S    
Cr10  O34   S    
C33   H45   S    
C33   C34   A    
C13   C22   A    
C76   O12   A    
C31   C35   A    
C34   H46   S    
C47   O35   A    
C52   H52   S    
Cr8   O28   S    
C4    O28   A    
C58   C78   S    
C63   C64   S    
C38   H14   S    
C40   C76   S    
C37   H13   S    
C44   H12   S    
C58   H21   S    
Cr3   O43   S    
C88   I4    S    
C89   H1    S    
C27   C28   A    
C45   O33   A    
C44   C69   S    
Cr6   O50   S    
C53   H5    S    
C2    O22   A    
Cr5   O49   S    
C66   O38   A    
C77   O41   A    
C56   H8    S    
C19   H35   S    
C5    C89   S    
C52   C56   S    
C84   H32   S    
Cr12  O36   S    
