data_mof_unit_pretest_95.cif
_audit_creation_date              2012-12-10T18:11:46-0500
_audit_creation_method            fapswitch 2.2
_symmetry_space_group_name_H-M    P1
_symmetry_Int_Tables_number       1
_space_group_crystal_system       triclinic
_cell_length_a                    10.492938
_cell_length_b                    12.620923
_cell_length_c                    13.130274
_cell_angle_alpha                 82.210632
_cell_angle_beta                  90.560357
_cell_angle_gamma                 102.789269
_cell_volume                      1679.69583425

loop_
_atom_site_label
_atom_site_type_symbol
_atom_type_description
_atom_site_fract_x
_atom_site_fract_y
_atom_site_fract_z
_atom_type_partial_charge
C1    C     C_R   0.480855 0.438706 0.691170 0.847221
C2    C     C_R   0.470293 0.447196 0.973552 0.084016
C3    C     C_R   0.435747 0.466110 0.869889 0.085593
C4    C     C_R   0.742326 0.500930 0.500433 0.878116
C5    C     C_R   0.466888 0.529063 0.036378 0.077807
C6    C     C_R   0.410038 0.619065 0.000490 0.175231
C7    C     C_R   0.359322 0.627619 0.902108 -0.254072
C8    C     C_R   0.371916 0.552107 0.837423 -0.203556
C9    C     C_R   0.520505 0.524624 0.133692 -0.259635
C10   C     C_R   0.446235 0.685751 0.165136 -0.209298
C11   C     C_R   0.468106 0.399388 0.800863 -0.112243
C12   C     C_3   0.062951 0.577334 0.426852 -0.168779
C13   C     C_R   0.320937 0.088341 0.345477 -0.309751
C14   C     C_R   0.653036 0.799500 0.630579 0.020651
C15   C     C_R   0.684423 0.903813 0.659551 -0.250387
C16   C     C_R   0.513033 0.561107 0.308797 0.855010
C17   C     C_R   0.626288 0.985269 0.610313 -0.197090
C18   C     C_R   0.536132 0.962493 0.531141 0.015317
C19   C     C_R   0.507791 0.854716 0.504349 0.237395
C20   C     C_R   0.473242 0.041794 0.477708 -0.015683
C21   C     C_R   0.383785 0.011658 0.399056 0.197558
C22   C     C_R   0.358119 0.905437 0.374280 -0.298585
C23   C     C_3   0.987900 0.599441 0.519558 -0.173046
C24   C     C_R   0.419545 0.828391 0.426075 -0.211771
C25   C     C_R   0.495345 0.150565 0.498598 -0.050225
C26   C     C_R   0.347286 0.194332 0.369791 0.005933
C27   C     C_R   0.257652 0.498919 0.500065 0.854061
C28   C     C_3   0.938446 0.423138 0.574034 0.238622
C29   C     C_3   0.049993 0.519546 0.593309 -0.183000
C30   C     C_3   0.122073 0.497348 0.500426 -0.009079
C31   C     C_3   0.012598 0.399750 0.482247 -0.144898
C32   C     C_3   0.950687 0.479968 0.408748 -0.218169
C33   C     C_3   0.864904 0.336446 0.657655 -0.951004
C34   C     C_3   0.877976 0.502116 0.501335 0.007534
C35   C     C_R   0.402678 0.698104 0.064529 -0.203065
C36   C     C_R   0.501604 0.596601 0.200116 -0.045918
C37   C     C_R   0.507062 0.302142 0.837915 -0.196971
C38   C     C_R   0.521928 0.274663 0.942582 -0.148673
C39   C     C_R   0.506873 0.347275 0.009997 -0.194720
H1    H     H_    0.094570 0.534611 0.668536 0.131061
H2    H     H_    0.561372 0.181161 0.556506 0.121426
H3    H     H_    0.697609 0.735756 0.668765 0.139559
H4    H     H_    0.653771 0.064649 0.635856 0.133540
H5    H     H_    0.753423 0.921479 0.720131 0.149937
H6    H     H_    0.396328 0.748648 0.402942 0.207964
H7    H     H_    0.026196 0.318281 0.467684 0.147468
H8    H     H_    0.905965 0.464504 0.333661 0.142942
H9    H     H_    0.118945 0.640174 0.366565 0.132428
H10   H     H_    0.974155 0.680732 0.534515 0.153043
H11   H     H_    0.430434 0.741985 0.216552 0.146096
H12   H     H_    0.573010 0.462479 0.161888 0.145975
H13   H     H_    0.311826 0.693741 0.874478 0.148770
H14   H     H_    0.358394 0.766529 0.038250 0.134675
H15   H     H_    0.934521 0.293365 0.700543 0.245302
H16   H     H_    0.815787 0.375951 0.711585 0.239717
H17   H     H_    0.790381 0.276034 0.622460 0.243116
H18   H     H_    0.530334 0.249261 0.785718 0.153866
H19   H     H_    0.521360 0.321884 0.090258 0.134862
H20   H     H_    0.550733 0.199018 0.971186 0.142784
H21   H     H_    0.329906 0.561115 0.762015 0.165378
H22   H     H_    0.300066 0.254983 0.328945 0.136251
H23   H     H_    0.290325 0.881693 0.314239 0.147673
H24   H     H_    0.252564 0.066578 0.285309 0.144010
N1    N     N_R   0.432930 0.222190 0.444670 -0.101434
N2    N     N_R   0.566370 0.776980 0.554790 -0.130803
O1    O     O_R   0.467970 0.366730 0.627150 -0.613500
O2    O     O_R   0.510820 0.544830 0.662520 -0.616408
O3    O     O_R   0.664630 0.410960 0.482340 -0.616125
O4    O     O_R   0.707470 0.589060 0.517710 -0.626171
O5    O     O_R   0.489180 0.455170 0.337480 -0.615139
O6    O     O_R   0.532030 0.633270 0.372850 -0.634372
O7    O     O_R   0.292530 0.410940 0.482290 -0.620590
O8    O     O_R   0.335370 0.589040 0.517660 -0.640468
Zn1   Zn    Zn3+2 0.471390 0.381080 0.476380 0.933797
Zn2   Zn    Zn3+2 0.528610 0.618920 0.523620 0.922926

loop_
_geom_bond_atom_site_label_1
_geom_bond_atom_site_label_2
_ccdc_geom_bond_type
C33   H16   S    
C35   H14   S    
C9    H12   S    
C12   H9    S    
C7    C8    A    
C12   C23   S    
C37   C38   A    
C24   H6    S    
C23   C29   S    
C28   C29   S    
C26   H22   S    
C7    H13   S    
C2    C3    A    
C5    C6    A    
C23   H10   S    
C20   C25   A    
O3    Zn1   S    
O1    Zn1   S    
C6    C35   A    
C18   C19   A    
C11   C37   A    
C26   N1    A    
C2    C39   A    
C31   H7    S    
C1    C11   S    
O5    Zn1   S    
C9    C36   A    
O4    Zn2   S    
C10   C35   A    
C14   H3    S    
C33   H17   S    
C28   C34   S    
C21   C22   A    
C12   C32   S    
C27   C30   S    
O8    Zn2   S    
C16   O6    A    
C4    O4    A    
C1    O1    A    
C38   C39   A    
C4    C34   S    
C16   O5    A    
O7    Zn1   S    
C3    C8    A    
C25   H2    S    
C4    O3    A    
C39   H19   S    
C25   N1    A    
C32   C34   S    
C17   H4    S    
C5    C9    A    
C29   C30   S    
C22   H23   S    
C31   C32   S    
C13   H24   S    
C23   C34   S    
C17   C18   A    
C13   C21   A    
C28   C33   S    
C32   H8    S    
C22   C24   A    
C13   C26   A    
C2    C5    A    
O2    Zn2   S    
C10   H11   S    
C33   H15   S    
C15   C17   A    
C12   C30   S    
C28   C31   S    
C15   H5    S    
C6    C7    A    
N2    Zn2   S    
C19   C24   A    
C16   C36   S    
O6    Zn2   S    
C30   C31   S    
C29   H1    S    
C1    O2    A    
C14   N2    A    
C19   N2    A    
C18   C20   A    
C37   H18   S    
C3    C11   A    
C38   H20   S    
C20   C21   A    
N1    Zn1   S    
C14   C15   A    
C10   C36   A    
C27   O8    A    
C8    H21   S    
C27   O7    A    
