data_mof_unit_pretest_782.cif
_audit_creation_date              2013-03-05T15:51:39-0500
_audit_creation_method            fapswitch 2.2
_symmetry_space_group_name_H-M    P1
_symmetry_Int_Tables_number       1
_space_group_crystal_system       triclinic
_cell_length_a                    10.618516
_cell_length_b                    10.856713
_cell_length_c                    9.624944
_cell_angle_alpha                 88.449297
_cell_angle_beta                  89.923897
_cell_angle_gamma                 93.18863
_cell_volume                      1107.45650069

loop_
_atom_site_label
_atom_site_type_symbol
_atom_site_description
_atom_site_fract_x
_atom_site_fract_y
_atom_site_fract_z
_atom_type_partial_charge
O1    O     O_R   0.499990 0.319640 0.618810 -0.555072
O2    O     O_R   0.500000 0.319660 0.381240 -0.552303
C1    C     C_R   0.506425 0.262281 0.502952 0.822874
O3    O     O_R   0.316850 0.499960 0.618770 -0.533147
O4    O     O_R   0.316860 0.499980 0.381190 -0.594105
C2    C     C_R   0.259490 0.499747 0.499919 0.809991
Cu1   Cu    Cu3+1 0.499990 0.499990 0.640660 0.980529
Cu2   Cu    Cu3+1 0.500010 0.500010 0.359340 0.964543
O5    O     O_R   0.500000 0.680340 0.618760 -0.610543
O6    O     O_R   0.500010 0.680360 0.381190 -0.600425
O7    O     O_R   0.683140 0.500020 0.618810 -0.610309
O8    O     O_R   0.683150 0.500040 0.381230 -0.592410
C3    C     C_R   0.491540 0.736665 0.498666 0.755348
C4    C     C_R   0.740509 0.500712 0.500099 0.753426
C5    C     C_3   0.035852 0.400067 0.570661 -0.114561
C6    C     C_3   0.952009 0.398451 0.439367 -0.182314
H1    H     H_    0.909534 0.314892 0.389749 0.147215
H2    H     H_    0.068210 0.317750 0.628325 0.186306
C7    C     C_3   0.877542 0.500994 0.500674 0.002189
C8    C     C_3   0.959147 0.502665 0.632150 -0.101672
C9    C     C_3   0.048008 0.602914 0.560811 -0.172671
C10   C     C_3   0.964069 0.601294 0.429506 -0.175842
C11   C     C_3   0.040811 0.498708 0.368020 -0.115175
C12   C     C_3   0.122449 0.500291 0.499476 0.005415
H3    H     H_    0.923184 0.504482 0.740437 0.167435
H4    H     H_    0.090509 0.686433 0.610509 0.134078
H5    H     H_    0.931400 0.683440 0.371719 0.129135
H6    H     H_    0.076738 0.497023 0.259712 0.166567
H7    H     H_    0.569002 0.119214 0.295108 0.220645
C13   C     C_R   0.487735 0.101255 0.769850 -0.172824
H8    H     H_    0.539459 0.186423 0.792359 0.200405
C14   C     C_R   0.430600 0.034596 0.882384 0.415237
C15   C     C_R   0.369473 0.919853 0.858851 -0.219137
H9    H     H_    0.320061 0.868291 0.942069 0.181068
C16   C     C_R   0.377904 0.867220 0.729311 -0.223851
H10   H     H_    0.330553 0.777501 0.716002 0.174987
C17   C     C_R   0.445899 0.929703 0.619638 0.096643
C18   C     C_R   0.482274 0.055255 0.633592 0.032338
C19   C     C_R   0.513352 0.127173 0.510754 -0.135926
C20   C     C_R   0.537993 0.067288 0.387443 -0.127663
H11   H     H_    0.555115 0.896087 0.288379 0.174144
C21   C     C_R   0.527142 0.939904 0.382537 -0.162581
C22   C     C_R   0.481663 0.870143 0.497954 -0.101349
H12   H     H_    0.338402 0.382222 0.135365 0.182499
C23   C     C_R   0.673500 0.658828 0.139225 -0.122285
H13   H     H_    0.675321 0.671182 0.248286 0.187584
C24   C     C_R   0.760515 0.734970 0.065222 -0.201815
H14   H     H_    0.825516 0.797061 0.119586 0.150266
C25   C     C_R   0.761906 0.734146 0.921979 -0.196185
H15   H     H_    0.828016 0.795650 0.864358 0.151953
C26   C     C_R   0.676080 0.657429 0.851831 -0.112231
H16   H     H_    0.680317 0.669574 0.742090 0.194961
C27   C     C_R   0.588209 0.575351 0.922979 0.135341
C28   C     C_R   0.587290 0.576040 0.072391 0.190791
N1    N     N_R   0.501210 0.501210 0.147910 -0.232699
C29   C     C_R   0.411222 0.435042 0.077273 -0.022904
C30   C     C_R   0.408258 0.436948 0.929860 0.422191
N2    N     N_R   0.501250 0.501290 0.852040 -0.266178
N3    N     N_R   0.297991 0.382277 0.865730 0.134337
O9    O     O_R   0.305484 0.287490 0.787545 -0.359034
O10   O     O_R   0.187235 0.412174 0.906851 -0.411775
N4    N     N_R   0.432834 0.084593 0.019152 0.112298
O11   O     O_R   0.508714 0.178783 0.047253 -0.424037
O12   O     O_R   0.359245 0.036319 0.116760 -0.379717

loop_
_geom_bond_atom_site_label_1
_geom_bond_atom_site_label_2
_geom_bond_distance
_ccdc_geom_bond_type
C17   C22   1.414632 A    
C5    H2    1.110231 S    
C13   C14   1.404274 A    
C11   C12   1.534625 S    
N4    O11   1.300746 A    
C26   H16   1.061481 S    
C27   N2    1.383518 A    
O4    Cu2   1.955823 S    
H11   C21   1.083596 S    
H12   C29   1.082377 S    
Cu1   N2    2.035009 S    
C7    C8    1.534581 S    
C3    C22   1.458563 S    
Cu2   O8    1.956316 S    
C2    C12   1.455523 S    
C14   C15   1.396479 A    
N1    C29   1.357622 A    
C20   C21   1.383445 A    
C15   H9    1.082664 S    
C14   N4    1.437145 S    
N3    O9    1.297110 A    
C24   C25   1.379041 A    
O1    Cu1   1.974920 S    
C27   C28   1.438322 A    
C29   C30   1.418845 A    
Cu1   O7    1.955821 S    
C28   N1    1.381116 A    
C30   N2    1.384561 A    
C5    C8    1.545863 S    
C6    C7    1.531364 S    
Cu2   N1    2.034709 S    
O4    C2    1.294150 A    
C9    H4    1.110486 S    
H7    C20   1.080513 S    
C9    C10   1.547384 S    
C5    C12   1.531541 S    
C16   C17   1.414380 A    
C17   C18   1.405946 A    
O8    C4    1.296846 A    
C23   C28   1.414559 A    
O2    C1    1.315488 A    
C6    C11   1.545672 S    
C10   H5    1.110472 S    
O3    Cu1   1.956317 S    
C13   H8    1.076207 S    
C15   C16   1.390341 A    
O7    C4    1.293768 A    
N3    O10   1.301275 A    
C30   N3    1.431308 S    
C11   H6    1.110558 S    
C9    C12   1.531991 S    
C26   C27   1.416470 A    
C1    C19   1.472650 S    
C5    C6    1.546708 S    
Cu1   Cu2   2.707683 S    
C7    C10   1.531602 S    
C18   C19   1.427137 A    
C8    C9    1.545939 S    
C13   C18   1.416042 A    
O3    C2    1.296692 A    
C25   H15   1.083058 S    
C8    H3    1.110591 S    
C23   C24   1.387736 A    
C19   C20   1.399881 A    
Cu1   O5    1.963635 S    
O5    C3    1.298557 A    
C10   C11   1.545979 S    
N4    O12   1.301436 A    
O1    C1    1.295411 A    
C23   H13   1.061899 S    
C4    C7    1.454934 S    
O6    C3    1.305180 A    
Cu2   O6    1.974921 S    
O2    Cu2   1.963637 S    
C24   H14   1.083010 S    
C21   C22   1.397583 A    
C6    H1    1.110389 S    
C25   C26   1.388428 A    
C16   H10   1.081869 S    
