data_mof_unit_pretest_551.cif
_audit_creation_date              2012-12-10T21:12:28-0500
_audit_creation_method            fapswitch 2.2
_symmetry_space_group_name_H-M    P1
_symmetry_Int_Tables_number       1
_space_group_crystal_system       triclinic
_cell_length_a                    13.008139
_cell_length_b                    16.771329
_cell_length_c                    17.466968
_cell_angle_alpha                 90.004952
_cell_angle_beta                  90.143483
_cell_angle_gamma                 69.19849
_cell_volume                      3562.25442478

loop_
_atom_site_label
_atom_site_type_symbol
_atom_type_description
_atom_site_fract_x
_atom_site_fract_y
_atom_site_fract_z
_atom_type_partial_charge
C1    C     C_R   0.498747 0.500309 0.647143 1.003172
C2    C     C_R   0.823612 0.420038 0.473421 -0.141628
C3    C     C_R   0.410024 0.453175 0.159136 0.129471
C4    C     C_R   0.705015 0.452456 0.491940 0.920233
C5    C     C_R   0.434763 0.448380 0.236989 -0.314290
C6    C     C_R   0.479465 0.504845 0.270649 -0.215915
C7    C     C_R   0.498595 0.567737 0.226115 0.670355
C8    C     C_R   0.475075 0.572568 0.148444 -0.294912
C9    C     C_R   0.431750 0.515579 0.115117 0.032084
C10   C     C_1   0.424530 0.515475 0.034458 -0.048050
C11   C     C_1   0.427116 0.513131 0.966533 -0.006006
C12   C     C_R   0.983825 0.461197 0.469449 0.027129
C13   C     C_R   0.495563 0.428821 0.851204 -0.023379
C14   C     C_R   0.518999 0.427745 0.772597 0.543129
C15   C     C_R   0.484208 0.503722 0.730013 -0.366283
C16   C     C_R   0.497750 0.500604 0.352952 0.956756
C17   C     C_R   0.428259 0.582155 0.765433 0.512262
C18   C     C_R   0.405872 0.585483 0.843526 -0.016436
C19   C     C_R   0.439826 0.508864 0.885756 -0.089063
C20   C     C_R   0.555990 0.153261 0.558921 -0.121329
C21   C     C_R   0.558400 0.236743 0.554298 0.610385
C22   C     C_R   0.438440 0.269128 0.447481 0.602824
C23   C     C_R   0.872833 0.479580 0.452430 -0.079558
C24   C     C_R   0.435709 0.184677 0.446600 -0.118718
C25   C     C_R   0.497032 0.125406 0.502974 -0.081671
C26   C     C_1   0.499415 0.036467 0.502962 -0.006191
C27   C     C_1   0.501355 0.962904 0.502494 0.105584
C28   C     C_R   0.294162 0.547468 0.500473 0.865760
C29   C     C_R   0.580866 0.809011 0.546539 -0.172033
C30   C     C_R   0.574600 0.725578 0.545170 0.643925
C31   C     C_R   0.427816 0.769096 0.455966 0.569899
C32   C     C_R   0.427909 0.852943 0.456614 0.466317
C33   C     C_R   0.503832 0.874176 0.502047 -0.209461
C34   C     C_R   0.024340 0.528857 0.468673 0.034330
C35   C     C_R   0.001405 0.678628 0.445867 0.136206
C36   C     C_R   0.174982 0.577437 0.491743 -0.101090
C37   C     C_R   0.891132 0.332475 0.481421 0.096310
C38   C     C_R   0.005010 0.312323 0.488726 -0.148612
C39   C     C_R   0.050149 0.375770 0.485910 -0.190019
C40   C     C_3   0.528076 0.348262 0.901136 -0.386870
C41   C     C_3   0.581513 0.261558 0.861411 -0.237162
C42   C     C_3   0.600494 0.188019 0.917656 -0.965545
C43   C     C_3   0.347501 0.671311 0.881181 -0.328577
C44   C     C_3   0.430969 0.707372 0.914739 -0.329917
C45   C     C_R   0.961235 0.609883 0.436677 -0.003543
C46   C     C_3   0.373405 0.791845 0.955632 -0.870184
C47   C     C_3   0.610221 0.098466 0.627186 -0.321152
C48   C     C_3   0.735597 0.061408 0.619226 -0.324161
C49   C     C_3   0.789377 0.018798 0.693540 -0.880235
C50   C     C_3   0.813528 0.680131 0.332610 -0.362064
C51   C     C_3   0.828473 0.636430 0.253839 -0.285027
C52   C     C_3   0.778916 0.701263 0.190248 -0.851583
C53   C     C_3   0.368596 0.154519 0.388881 -0.338615
C54   C     C_3   0.297724 0.220034 0.330836 -0.300027
C55   C     C_3   0.233649 0.180671 0.279220 -0.902918
C56   C     C_R   0.863180 0.616284 0.396588 -0.075174
C57   C     C_3   0.665118 0.832052 0.594413 -0.352553
C58   C     C_3   0.761256 0.757451 0.628460 -0.256073
C59   C     C_3   0.844835 0.788239 0.668369 -0.952482
C60   C     C_3   0.927000 0.771648 0.448012 -0.464749
C61   C     C_3   0.955908 0.825510 0.386193 -0.326322
C62   C     C_3   0.858488 0.907334 0.370222 -0.893763
C63   C     C_3   0.843097 0.261791 0.476857 -0.381737
C64   C     C_3   0.925714 0.173303 0.455016 -0.375500
C65   C     C_3   0.867512 0.113136 0.429810 -0.882351
C66   C     C_3   0.360938 0.391319 0.125613 -0.410243
C67   C     C_R   0.816385 0.553876 0.409784 0.587831
C68   C     C_3   0.447983 0.301609 0.118889 -0.343604
C69   C     C_3   0.397591 0.238309 0.088715 -0.888566
C70   C     C_R   0.126149 0.517275 0.500935 -0.191064
C71   C     C_R   0.111697 0.659700 0.467888 -0.190585
F1    F     F_    0.541797 0.623243 0.257019 -0.619493
F2    F     F_    0.578283 0.354238 0.736686 -0.632296
F3    F     F_    0.393953 0.655518 0.723806 -0.656544
F4    F     F_    0.617920 0.262740 0.605793 -0.615444
F5    F     F_    0.379581 0.329021 0.396846 -0.693653
F6    F     F_    0.640719 0.662172 0.589878 -0.659856
F7    F     F_    0.354366 0.749753 0.411518 -0.607918
F8    F     F_    0.353847 0.913409 0.412833 -0.629107
F9    F     F_    0.721569 0.560740 0.372769 -0.657311
H1    H     H_    0.146872 0.709354 0.468723 0.190753
H2    H     H_    0.527120 0.254366 0.814790 0.259064
H3    H     H_    0.662712 0.256692 0.837678 0.272047
H4    H     H_    0.585530 0.353816 0.946337 0.200049
H5    H     H_    0.452332 0.347454 0.930057 0.204064
H6    H     H_    0.319444 0.839630 0.915110 0.266867
H7    H     H_    0.323223 0.782630 0.003867 0.266398
H8    H     H_    0.435813 0.816563 0.978868 0.255125
H9    H     H_    0.485712 0.661443 0.956297 0.221738
H10   H     H_    0.482712 0.717723 0.867964 0.247390
H11   H     H_    0.294208 0.717444 0.839105 0.240207
H12   H     H_    0.417287 0.401040 0.271439 0.234094
H13   H     H_    0.291361 0.665012 0.926753 0.189767
H14   H     H_    0.777200 0.067442 0.739169 0.273122
H15   H     H_    0.752750 0.971696 0.712520 0.259271
H16   H     H_    0.878975 0.985648 0.684542 0.257375
H17   H     H_    0.758119 0.013639 0.572205 0.204258
H18   H     H_    0.768085 0.112647 0.605504 0.261427
H19   H     H_    0.587426 0.138152 0.679856 0.234335
H20   H     H_    0.579189 0.045391 0.635625 0.181328
H21   H     H_    0.689318 0.734095 0.199754 0.293162
H22   H     H_    0.819576 0.749353 0.188472 0.250504
H23   H     H_    0.493122 0.619615 0.113796 0.171137
H24   H     H_    0.791000 0.668045 0.134169 0.246892
H25   H     H_    0.917688 0.603579 0.242470 0.203199
H26   H     H_    0.788569 0.587998 0.251777 0.289139
H27   H     H_    0.724798 0.714734 0.344431 0.239558
H28   H     H_    0.853092 0.727626 0.327571 0.209723
H29   H     H_    0.291040 0.126157 0.246650 0.276832
H30   H     H_    0.177717 0.158223 0.313893 0.274077
H31   H     H_    0.183419 0.229302 0.237864 0.249909
H32   H     H_    0.237291 0.274661 0.361545 0.261103
H33   H     H_    0.351069 0.242881 0.293879 0.257920
H34   H     H_    0.171594 0.459654 0.531615 0.155596
H35   H     H_    0.426548 0.100087 0.356379 0.218835
H36   H     H_    0.312857 0.130050 0.421789 0.222668
H37   H     H_    0.870474 0.830959 0.630596 0.267102
H38   H     H_    0.808890 0.822753 0.721703 0.265596
H39   H     H_    0.918777 0.732504 0.683947 0.268636
H40   H     H_    0.730305 0.723794 0.672395 0.278746
H41   H     H_    0.803723 0.712408 0.582105 0.244679
H42   H     H_    0.701693 0.868669 0.557085 0.197956
H43   H     H_    0.621004 0.875056 0.641554 0.203617
H44   H     H_    0.788805 0.892013 0.345731 0.262491
H45   H     H_    0.138440 0.354863 0.491445 0.149361
H46   H     H_    0.831076 0.944128 0.423955 0.263092
H47   H     H_    0.882865 0.947152 0.328373 0.261095
H48   H     H_    0.026759 0.842576 0.405917 0.243265
H49   H     H_    0.980654 0.789213 0.331935 0.229700
H50   H     H_    0.839040 0.778364 0.445445 0.210879
H51   H     H_    0.936487 0.798100 0.504748 0.204788
H52   H     H_    0.808819 0.109027 0.474104 0.254619
H53   H     H_    0.822020 0.135851 0.375453 0.261868
H54   H     H_    0.929693 0.048631 0.420323 0.269469
H55   H     H_    0.978220 0.179174 0.406761 0.235506
H56   H     H_    0.060499 0.247545 0.497749 0.138869
H57   H     H_    0.978946 0.144662 0.505084 0.229520
H58   H     H_    0.804500 0.257039 0.532500 0.251459
H59   H     H_    0.778673 0.279638 0.431557 0.222317
H60   H     H_    0.333406 0.234051 0.128635 0.269199
H61   H     H_    0.360310 0.258451 0.031370 0.259661
H62   H     H_    0.462518 0.174184 0.083711 0.255849
H63   H     H_    0.514028 0.303101 0.079261 0.227613
H64   H     H_    0.485464 0.279251 0.175851 0.227847
H65   H     H_    0.292824 0.389570 0.163176 0.206159
H66   H     H_    0.324121 0.412628 0.068346 0.202356
H67   H     H_    0.652487 0.193764 0.966373 0.270892
H68   H     H_    0.520729 0.187688 0.939751 0.273165
H69   H     H_    0.642959 0.126529 0.888015 0.261470
N1    N     N_R   0.499970 0.292770 0.499970 -0.196576
N2    N     N_R   0.499980 0.707230 0.499990 -0.209813
O1    O     O_R   0.500000 0.433430 0.610870 -0.534405
O2    O     O_R   0.500010 0.566520 0.610900 -0.529492
O3    O     O_R   0.653610 0.400420 0.499960 -0.626735
O4    O     O_R   0.653620 0.533500 0.499990 -0.521991
O5    O     O_R   0.499990 0.433480 0.389100 -0.604923
O6    O     O_R   0.500000 0.566570 0.389130 -0.490735
O7    O     O_R   0.346380 0.466500 0.500010 -0.590559
O8    O     O_R   0.346390 0.599580 0.500040 -0.588340
Zn1   Zn    Zn3+2 0.500000 0.411140 0.499980 1.033478
Zn2   Zn    Zn3+2 0.500000 0.588860 0.500020 1.126965

loop_
_geom_bond_atom_site_label_1
_geom_bond_atom_site_label_2
_ccdc_geom_bond_type
C66   C68   S    
O1    Zn1   S    
C39   H45   S    
C41   C42   S    
C40   H4    S    
C4    O3    A    
C22   F5    S    
C42   H68   S    
C62   H44   S    
C30   N2    A    
C7    C8    A    
C27   C33   S    
C53   C54   S    
C70   H34   S    
C48   H17   S    
C12   C23   A    
C11   C19   S    
C26   C27   T    
C37   C38   A    
N1    Zn1   S    
C68   H63   S    
C5    C6    A    
C20   C25   A    
C69   H61   S    
C41   H3    S    
C54   H33   S    
C29   C33   A    
C47   H19   S    
C1    O1    A    
C18   C19   A    
C23   C67   A    
C42   H69   S    
C13   C40   S    
C57   H42   S    
C30   F6    S    
C52   H24   S    
C47   C48   S    
C45   C56   A    
C36   C70   A    
C8    C9    A    
N2    Zn2   S    
C16   O5    A    
O8    Zn2   S    
C1    C15   S    
C38   H56   S    
C49   H14   S    
C9    C10   S    
C34   C70   A    
C65   H54   S    
C53   H36   S    
C61   H49   S    
C69   H60   S    
C16   O6    A    
C64   H55   S    
C35   C71   A    
C59   H37   S    
C13   C14   A    
C55   H29   S    
O7    Zn1   S    
C42   H67   S    
C60   H51   S    
C28   O7    A    
C37   C63   S    
C44   C46   S    
C50   C51   S    
C46   H8    S    
C64   H57   S    
C38   C39   A    
C52   H21   S    
C13   C19   A    
C51   C52   S    
C5    H12   S    
C14   F2    S    
O5    Zn1   S    
C24   C25   A    
C60   H50   S    
C7    F1    S    
C62   H46   S    
C68   C69   S    
C25   C26   S    
O4    Zn2   S    
C28   O8    A    
C50   C56   S    
C47   H20   S    
O2    Zn2   S    
C35   C60   S    
C40   H5    S    
C2    C4    S    
C43   C44   S    
O3    Zn1   S    
C29   C30   A    
C3    C9    A    
C57   H43   S    
C31   N2    A    
C31   C32   A    
C51   H25   S    
C52   H22   S    
C58   H40   S    
C17   C18   A    
C54   H32   S    
C34   C45   A    
C21   N1    A    
C49   H15   S    
C1    O2    A    
C40   C41   S    
C29   C57   S    
C59   H38   S    
C55   H30   S    
C50   H27   S    
C63   H58   S    
C22   C24   A    
C58   C59   S    
C3    C66   S    
C12   C34   A    
C35   C45   A    
O6    Zn2   S    
C65   H52   S    
C44   H10   S    
C22   N1    A    
C31   F7    S    
C46   H7    S    
C15   C17   A    
C54   C55   S    
C48   C49   S    
C58   H41   S    
C59   H39   S    
C55   H31   S    
C17   F3    S    
C63   H59   S    
C50   H28   S    
C67   F9    S    
C3    C5    A    
C36   C71   A    
C6    C7    A    
C24   C53   S    
C56   C67   A    
C48   H18   S    
C21   F4    S    
C64   C65   S    
C12   C39   A    
C69   H62   S    
C18   C43   S    
C32   C33   A    
C32   F8    S    
C2    C37   A    
C57   C58   S    
C62   H47   S    
C51   H26   S    
C41   H2    S    
C43   H13   S    
C68   H64   S    
C61   H48   S    
C49   H16   S    
C61   C62   S    
C8    H23   S    
C43   H11   S    
C66   H66   S    
C20   C47   S    
C10   C11   T    
C6    C16   S    
C63   C64   S    
C4    O4    A    
C20   C21   A    
C28   C36   S    
C2    C23   A    
C66   H65   S    
C14   C15   A    
C60   C61   S    
C46   H6    S    
C65   H53   S    
C44   H9    S    
C53   H35   S    
C71   H1    S    
