data_mof_unit_pretest_574.cif
_audit_creation_date              2012-12-10T20:00:05-0500
_audit_creation_method            fapswitch 2.2
_symmetry_space_group_name_H-M    P1
_symmetry_Int_Tables_number       1
_space_group_crystal_system       triclinic
_cell_length_a                    14.862544
_cell_length_b                    14.374214
_cell_length_c                    8.956197
_cell_angle_alpha                 89.999207
_cell_angle_beta                  95.359189
_cell_angle_gamma                 90.000355
_cell_volume                      1905.01466647

loop_
_atom_site_label
_atom_site_type_symbol
_atom_type_description
_atom_site_fract_x
_atom_site_fract_y
_atom_site_fract_z
_atom_type_partial_charge
C1    C     C_R   0.330103 0.500011 0.522502 0.949461
C2    C     C_R   0.441892 0.895458 0.399946 -0.265777
C3    C     C_R   0.499219 0.500013 0.218753 0.913813
C4    C     C_R   0.500780 0.500013 0.781246 0.913731
C5    C     C_R   0.500001 0.052743 0.499999 0.044328
C6    C     C_R   0.500001 0.946838 0.499999 0.046646
C7    C     C_1   0.499736 0.500073 0.065303 -0.031585
C8    C     C_1   0.500264 0.500072 0.934697 -0.031640
C9    C     C_R   0.095787 0.582707 0.556382 -0.208755
C10   C     C_R   0.903504 0.415549 0.444221 -0.201138
C11   C     C_R   0.904210 0.582709 0.443536 -0.208751
C12   C     C_R   0.669895 0.500012 0.477491 0.949417
C13   C     C_R   0.096487 0.415545 0.555692 -0.201150
C14   C     C_R   0.189294 0.584078 0.580355 0.412017
C15   C     C_R   0.809937 0.415433 0.418220 0.408653
C16   C     C_R   0.810700 0.584082 0.419600 0.412004
C17   C     C_R   0.190053 0.415429 0.581728 0.408639
C18   C     C_R   0.236948 0.499928 0.565077 -0.327630
C19   C     C_R   0.763046 0.499932 0.434894 -0.327632
C20   C     C_R   0.049035 0.498968 0.525112 0.025282
C21   C     C_R   0.950961 0.498969 0.474792 0.025279
C22   C     C_R   0.455086 0.202058 0.382870 0.482918
C23   C     C_R   0.554424 0.797563 0.606602 0.503128
C24   C     C_R   0.544914 0.202057 0.617129 0.482887
C25   C     C_R   0.445577 0.797564 0.393397 0.503119
C26   C     C_R   0.460934 0.104222 0.378728 -0.295728
C27   C     C_R   0.558109 0.895457 0.600051 -0.265779
C28   C     C_R   0.539067 0.104220 0.621270 -0.295726
H1    H     H_    0.306320 0.368494 0.157706 0.375012
H2    H     H_    0.704782 0.186863 0.437741 0.378942
H3    H     H_    0.640749 0.730079 0.210494 0.413301
H4    H     H_    0.295217 0.186861 0.562249 0.378943
H5    H     H_    0.434292 0.068738 0.278248 0.214769
H6    H     H_    0.605778 0.931390 0.677414 0.213963
H7    H     H_    0.565710 0.068734 0.721749 0.214764
H8    H     H_    0.394224 0.931392 0.322583 0.213965
H9    H     H_    0.690101 0.628289 0.848505 0.375116
H10   H     H_    0.693546 0.368593 0.842280 0.374928
H11   H     H_    0.309898 0.628292 0.151499 0.375126
H12   H     H_    0.061025 0.647879 0.565547 0.199620
H13   H     H_    0.937762 0.349944 0.436277 0.198140
H14   H     H_    0.938974 0.647880 0.434360 0.199621
H15   H     H_    0.062227 0.349940 0.563621 0.198143
H16   H     H_    0.359231 0.730053 0.789528 0.413309
N1    N     N_R   0.500000 0.252470 0.500000 -0.195012
N2    N     N_R   0.500000 0.747530 0.500000 -0.207665
O1    O     O_R   0.369060 0.579480 0.500010 -0.530392
O2    O     O_2   0.328203 0.178194 0.151707 -0.230546
O3    O     O_3   0.327355 0.343154 0.257790 -0.498217
O4    O     O_2   0.677222 0.819354 0.846044 -0.238483
O5    O     O_2   0.543557 0.727708 0.878720 -0.270006
O6    O     O_3   0.672772 0.652725 0.746424 -0.505605
O7    O     O_2   0.544376 0.277747 0.886785 -0.219985
O8    O     O_2   0.671791 0.178191 0.848305 -0.230449
O9    O     O_3   0.672649 0.343148 0.742209 -0.498126
O10   O     O_2   0.322778 0.819358 0.153956 -0.238487
O11   O     O_2   0.456441 0.727711 0.121280 -0.270012
O12   O     O_R   0.630940 0.420520 0.499990 -0.532710
O13   O     O_3   0.327224 0.652729 0.253579 -0.505605
O14   O     O_2   0.263991 0.747131 0.516043 -0.238960
O15   O     O_2   0.175584 0.743679 0.732472 -0.232655
O16   O     O_3   0.334162 0.667934 0.761691 -0.537401
O17   O     O_2   0.673619 0.334141 0.244848 -0.270958
O18   O     O_2   0.822141 0.260189 0.254973 -0.234251
O19   O     O_3   0.731781 0.243418 0.486701 -0.477550
O20   O     O_2   0.736012 0.747127 0.483971 -0.238952
O21   O     O_2   0.824396 0.743701 0.267514 -0.232657
O22   O     O_3   0.665817 0.667957 0.238318 -0.537386
O23   O     O_R   0.630940 0.579480 0.499990 -0.530388
O24   O     O_2   0.326357 0.334136 0.755135 -0.270947
O25   O     O_2   0.177831 0.260188 0.744982 -0.234262
O26   O     O_3   0.268211 0.243411 0.513278 -0.477568
O27   O     O_R   0.369060 0.420520 0.500010 -0.532686
O28   O     O_R   0.500000 0.579460 0.285340 -0.558629
O29   O     O_R   0.500000 0.420540 0.714660 -0.558929
O30   O     O_R   0.500000 0.579460 0.714660 -0.558611
O31   O     O_R   0.500000 0.420540 0.285340 -0.558869
O32   O     O_2   0.455619 0.277750 0.113208 -0.219915
S1    S     S_3+6 0.390945 0.250824 0.223664 0.128162
S2    S     S_3+6 0.612671 0.749011 0.772169 0.109659
S3    S     S_3+6 0.609054 0.250821 0.776336 0.128195
S4    S     S_3+6 0.387328 0.749014 0.227832 0.109651
S5    S     S_3+6 0.240539 0.689662 0.646866 0.082915
S6    S     S_3+6 0.757705 0.311811 0.344925 0.089990
S7    S     S_3+6 0.759450 0.689673 0.353126 0.082909
S8    S     S_3+6 0.242278 0.311807 0.655041 0.089982
Zn1   Zn    Zn3+2 0.500000 0.606140 0.500000 1.139350
Zn2   Zn    Zn3+2 0.500000 0.393860 0.500000 1.154368

loop_
_geom_bond_atom_site_label_1
_geom_bond_atom_site_label_2
_ccdc_geom_bond_type
O16   S5    S    
C14   C18   A    
O13   S4    S    
C4    C8    S    
O20   S7    D    
C7    C8    T    
H4    O26   S    
H1    O3    S    
C15   C19   A    
C1    C18   S    
C24   N1    A    
O2    S1    D    
C22   S1    S    
C3    C7    S    
C10   C15   A    
C5    C6    S    
O14   S5    D    
C5    C28   A    
C11   H14   S    
O7    S3    D    
C3    O28   A    
O5    S2    D    
O18   S6    D    
C4    O29   A    
C26   H5    S    
H10   O9    S    
C28   H7    S    
C23   C27   A    
C23   S2    S    
O9    S3    S    
O23   Zn1   S    
C12   O12   A    
C27   H6    S    
C23   N2    A    
C10   H13   S    
O22   S7    S    
C2    C6    A    
C14   S5    S    
C10   C21   A    
H3    O22   S    
O21   S7    D    
C17   S8    S    
N1    Zn2   S    
O31   Zn2   S    
O15   S5    D    
H9    O6    S    
O32   S1    D    
C1    O1    A    
O19   S6    S    
H16   O16   S    
C11   C21   A    
C9    H12   S    
O3    S1    S    
O12   Zn2   S    
O1    Zn1   S    
C9    C14   A    
O27   Zn2   S    
O25   S8    D    
C11   C16   A    
C9    C20   A    
C6    C27   A    
C24   S3    S    
H11   O13   S    
C17   C18   A    
O30   Zn1   S    
C12   O23   A    
C16   S7    S    
O28   Zn1   S    
O24   S8    D    
C13   H15   S    
N2    Zn1   S    
C2    H8    S    
C13   C20   A    
C24   C28   A    
O4    S2    D    
O26   S8    S    
O10   S4    D    
C15   S6    S    
C13   C17   A    
O17   S6    D    
C1    O27   A    
C25   S4    S    
C16   C19   A    
C12   C19   S    
C2    C25   A    
C4    O30   A    
H2    O19   S    
C5    C26   A    
O29   Zn2   S    
C22   N1    A    
C20   C21   S    
C22   C26   A    
O11   S4    D    
O6    S2    S    
C25   N2    A    
O8    S3    D    
C3    O31   A    
