data_mof_unit_pretest_1358.cif
_audit_creation_date              2013-03-05T15:42:33-0500
_audit_creation_method            fapswitch 2.2
_symmetry_space_group_name_H-M    P1
_symmetry_Int_Tables_number       1
_space_group_crystal_system       triclinic
_cell_length_a                    10.811419
_cell_length_b                    10.922792
_cell_length_c                    9.693484
_cell_angle_alpha                 90.872546
_cell_angle_beta                  90.759854
_cell_angle_gamma                 90.750775
_cell_volume                      1144.37733006

loop_
_atom_site_label
_atom_site_type_symbol
_atom_site_description
_atom_site_fract_x
_atom_site_fract_y
_atom_site_fract_z
_atom_type_partial_charge
O1    O     O_R   0.500020 0.321960 0.617040 -0.566805
O2    O     O_R   0.499980 0.321920 0.382900 -0.550330
C1    C     C_R   0.496767 0.265413 0.498986 0.900449
O3    O     O_R   0.319670 0.500020 0.617100 -0.575622
O4    O     O_R   0.319630 0.499980 0.382950 -0.547087
C2    C     C_R   0.262245 0.490293 0.499136 0.856027
Cu1   Cu    Cu3+1 0.500020 0.500020 0.638630 1.042671
Cu2   Cu    Cu3+1 0.499980 0.499980 0.361370 1.027233
O5    O     O_R   0.500020 0.678080 0.617100 -0.578767
O6    O     O_R   0.499980 0.678040 0.382960 -0.578745
O7    O     O_R   0.680370 0.500020 0.617050 -0.549212
O8    O     O_R   0.680330 0.499980 0.382900 -0.594157
C3    C     C_R   0.507427 0.734849 0.501257 0.788526
C4    C     C_R   0.738050 0.509829 0.501695 0.821708
H1    H     H_    0.109827 0.522627 0.280718 0.179215
C5    C     C_R   0.109683 0.391628 0.734716 0.365456
C6    C     C_R   0.056065 0.408139 0.864536 -0.243387
H2    H     H_    0.092476 0.362081 0.954167 0.222827
C7    C     C_R   0.956379 0.486141 0.880558 -0.270399
H3    H     H_    0.923691 0.505845 0.983546 0.193207
C8    C     C_R   0.899451 0.538327 0.765017 0.377720
C9    C     C_R   0.942623 0.506986 0.631011 -0.054011
C10   C     C_R   0.061540 0.457303 0.620808 -0.060373
C11   C     C_R   0.127274 0.478681 0.497807 -0.036079
C12   C     C_R   0.062645 0.509418 0.377376 -0.154385
H4    H     H_    0.886650 0.536833 0.283627 0.170938
C13   C     C_R   0.935730 0.522625 0.380116 -0.175290
C14   C     C_R   0.873564 0.520131 0.506062 -0.042397
C15   C     C_2   0.512581 0.932622 0.391933 -0.146670
C16   C     C_2   0.535697 0.865825 0.505266 -0.190916
H5    H     H_    0.479418 0.888415 0.297080 0.183438
C17   C     C_2   0.521814 0.066314 0.389858 -0.076798
C18   C     C_2   0.485240 0.133647 0.497706 -0.188438
H6    H     H_    0.554028 0.109195 0.296417 0.200056
H7    H     H_    0.447556 0.091135 0.588865 0.172593
C19   C     C_2   0.495303 0.402188 0.921685 -0.067270
N1    N     N_2   0.498640 0.498660 0.846910 -0.284242
H8    H     H_    0.501848 0.313331 0.871552 0.219579
H9    H     H_    0.480418 0.580842 0.895384 0.209276
C20   C     C_2   0.466412 0.406148 0.073169 0.375557
N2    N     N_2   0.498610 0.498630 0.153040 -0.340990
H10   H     H_    0.551140 0.566478 0.108897 0.194877
N3    N     N_R   0.400536 0.303039 0.127345 0.159875
O9    O     O_R   0.423774 0.193329 0.081317 -0.366075
O10   O     O_R   0.299788 0.320300 0.196245 -0.323742
N4    N     N_R   0.200499 0.297556 0.716344 0.130916
O11   O     O_R   0.259305 0.254185 0.822461 -0.336384
O12   O     O_R   0.208500 0.239969 0.598322 -0.370663
N5    N     N_R   0.813304 0.636018 0.786208 0.142772
O13   O     O_R   0.807075 0.724965 0.698692 -0.361757
O14   O     O_R   0.752466 0.644827 0.900830 -0.393483
C21   C     C_2   0.601551 0.914990 0.630971 0.466392
H11   H     H_    0.584778 0.874378 0.730588 0.120207
O15   O     O_2   0.679826 0.996181 0.623466 -0.497040

loop_
_geom_bond_atom_site_label_1
_geom_bond_atom_site_label_2
_geom_bond_distance
_ccdc_geom_bond_type
N1    H9    1.029387 S    
O4    Cu2   1.963786 S    
C10   C11   1.416967 A    
C15   C16   1.350403 D    
C5    C10   1.422442 A    
N2    H10   1.029523 S    
C7    H3    1.082889 S    
Cu2   O8    1.958223 S    
C2    C11   1.462945 S    
C17   C18   1.336167 D    
N5    O14   1.301617 A    
C8    N5    1.439686 S    
C6    H2    1.082754 S    
Cu1   N1    2.019491 S    
Cu1   Cu2   2.687603 S    
C15   H5    1.086426 S    
C9    C14   1.424489 A    
C8    C9    1.424472 A    
C21   H11   1.085216 S    
Cu1   O7    1.963784 S    
N3    O10   1.299568 A    
H4    C13   1.083452 S    
O3    Cu1   1.958223 S    
C19   H8    1.082371 S    
C20   N2    1.304162 D    
C7    C8    1.403020 A    
C21   O15   1.221413 D    
Cu2   N2    2.019130 S    
O2    C1    1.292295 A    
C15   C17   1.462847 S    
O1    Cu1   1.952969 S    
N3    O9    1.301067 A    
O4    C2    1.298073 A    
C18   H7    1.086062 S    
O7    C4    1.292713 A    
N4    O12   1.301583 A    
H1    C12   1.083408 S    
O3    C2    1.296155 A    
C12   C13   1.382137 A    
C1    C18   1.442859 S    
C6    C7    1.391420 A    
C3    C16   1.458821 S    
C19   C20   1.505411 S    
C11   C12   1.400079 A    
Cu2   O6    1.952967 S    
N5    O13   1.301309 A    
C5    N4    1.441205 S    
C13   C14   1.401872 A    
Cu1   O5    1.959235 S    
O5    C3    1.293890 A    
C9    C10   1.406142 A    
C19   N1    1.288411 D    
C16   C21   1.492356 S    
C4    C14   1.467940 S    
N4    O11   1.300822 A    
C20   N3    1.434695 S    
O2    Cu2   1.959236 S    
O8    C4    1.304780 A    
C5    C6    1.402619 A    
O1    C1    1.291944 A    
O6    C3    1.296549 A    
C17   H6    1.085407 S    
