data_mof_unit_pretest_81.cif
_audit_creation_date              2013-03-05T16:12:08-0500
_audit_creation_method            fapswitch 2.2
_symmetry_space_group_name_H-M    P1
_symmetry_Int_Tables_number       1
_space_group_crystal_system       triclinic
_cell_length_a                    10.99877
_cell_length_b                    9.622435
_cell_length_c                    27.777641
_cell_angle_alpha                 87.646279
_cell_angle_beta                  90.19436
_cell_angle_gamma                 91.801862
_cell_volume                      2935.90605598

loop_
_atom_site_label
_atom_site_type_symbol
_atom_site_description
_atom_site_fract_x
_atom_site_fract_y
_atom_site_fract_z
_atom_type_partial_charge
O1    O     O_R   0.317570 0.620260 0.500030 -0.637794
O2    O     O_R   0.317570 0.379740 0.500030 -0.559596
C1    C     C_R   0.260685 0.497263 0.500350 0.944985
O3    O     O_R   0.499900 0.620250 0.430280 -0.533961
O4    O     O_R   0.499900 0.379750 0.430280 -0.571232
C2    C     C_R   0.499400 0.502347 0.407678 0.948173
Cu1   Cu    Cu3+1 0.499860 0.642410 0.500020 1.054725
Cu2   Cu    Cu3+1 0.499860 0.357590 0.500020 1.047118
O5    O     O_R   0.682190 0.620260 0.500010 -0.535875
O6    O     O_R   0.682190 0.379740 0.500010 -0.565803
O7    O     O_R   0.499860 0.620280 0.569750 -0.567026
O8    O     O_R   0.499860 0.379720 0.569750 -0.530995
C3    C     C_R   0.740141 0.501082 0.500334 0.994834
C4    C     C_R   0.495147 0.498248 0.592225 0.966438
C5    C     C_R   0.364676 0.513988 0.177988 0.546490
O9    O     O_2   0.260389 0.493885 0.203141 -0.512895
N1    N     N_R   0.473131 0.527694 0.201849 -0.468046
C6    C     C_R   0.580311 0.547921 0.177328 0.547203
C7    C     C_R   0.533325 0.408560 0.277654 -0.091953
C8    C     C_R   0.540089 0.402521 0.327780 -0.208474
C9    C     C_R   0.428259 0.614404 0.330250 -0.065580
C10   C     C_R   0.421445 0.620779 0.280080 -0.071893
C11   C     C_R   0.475313 0.518674 0.253542 0.320470
C12   C     C_R   0.471029 0.537051 0.101379 -0.042872
C13   C     C_R   0.361611 0.518772 0.127380 -0.024109
C14   C     C_R   0.251788 0.505013 0.102468 -0.135474
C15   C     C_R   0.581283 0.552427 0.126778 -0.024697
C16   C     C_R   0.490496 0.507315 0.354594 -0.008715
H1    H     H_    0.383104 0.692121 0.349989 0.204850
H2    H     H_    0.374957 0.705420 0.261824 0.164009
H3    H     H_    0.166148 0.492925 0.121583 0.191110
C17   C     C_R   0.485244 0.498493 0.645204 0.020575
C18   C     C_R   0.358630 0.514546 0.974024 0.042903
C19   C     C_R   0.580729 0.562900 0.973342 0.043059
C20   C     C_R   0.469693 0.537158 0.948432 0.070205
C21   C     C_R   0.251478 0.485389 0.947355 -0.200543
C22   C     C_R   0.253131 0.480633 0.897454 -0.134342
C23   C     C_R   0.361445 0.504355 0.871991 -0.028235
C24   C     C_R   0.469904 0.533184 0.897288 -0.041290
C25   C     C_R   0.578746 0.557334 0.871307 -0.026864
C26   C     C_R   0.577433 0.550820 0.820939 0.546145
N2    N     N_R   0.471319 0.520587 0.797217 -0.471157
C27   C     C_R   0.364171 0.498244 0.821564 0.548153
C28   C     C_R   0.418577 0.613277 0.716422 -0.058733
C29   C     C_R   0.425323 0.607442 0.666451 -0.101833
C30   C     C_R   0.539710 0.397027 0.674961 -0.121097
C31   C     C_R   0.533435 0.403038 0.724928 -0.091272
C32   C     C_R   0.473051 0.511307 0.745839 0.321175
O10   O     O_2   0.260946 0.468791 0.797096 -0.492524
C33   C     C_R   0.358442 0.519822 0.025138 0.043295
C34   C     C_R   0.470319 0.539097 0.050133 0.069693
C35   C     C_R   0.581623 0.559462 0.024556 0.043737
C36   C     C_R   0.249902 0.505975 0.052456 -0.200498
H4    H     H_    0.383400 0.688127 0.644353 0.160427
H5    H     H_    0.372682 0.698090 0.732303 0.156186
H6    H     H_    0.168588 0.457329 0.878888 0.193247
H7    H     H_    0.164312 0.462977 0.963844 0.139563
H8    H     H_    0.160964 0.496782 0.036442 0.137960
O11   O     O_2   0.685658 0.564178 0.201838 -0.510371
C37   C     C_R   0.690195 0.570594 0.101377 -0.135706
H9    H     H_    0.586167 0.317268 0.345234 0.219576
H10   H     H_    0.573996 0.328148 0.257457 0.165399
H11   H     H_    0.776364 0.581531 0.120082 0.191532
C38   C     C_R   0.687574 0.590986 0.945864 -0.201497
C39   C     C_R   0.686390 0.587716 0.895969 -0.134696
O12   O     O_2   0.681303 0.574980 0.795793 -0.497128
C40   C     C_R   0.690700 0.573716 0.051393 -0.200758
H12   H     H_    0.774315 0.617488 0.961594 0.139880
H13   H     H_    0.592082 0.317256 0.660006 0.204247
H14   H     H_    0.770976 0.608881 0.876762 0.193499
H15   H     H_    0.577424 0.324970 0.747471 0.159200
H16   H     H_    0.779223 0.584911 0.035086 0.137992
C41   C     C_3   0.077460 0.582524 0.456436 0.173150
C42   C     C_3   0.076965 0.540825 0.550718 0.127308
H17   H     H_    0.121108 0.688052 0.458738 0.073607
H18   H     H_    0.114256 0.648994 0.553989 0.060415
C43   C     C_3   0.936503 0.602439 0.460376 0.167077
C44   C     C_3   0.933623 0.550353 0.550386 0.179561
H19   H     H_    0.927128 0.709683 0.473226 0.066126
H20   H     H_    0.915583 0.663138 0.551812 0.099967
H21   H     H_    0.100337 0.293036 0.462923 0.240863
H22   H     H_    0.091712 0.271926 0.525952 0.201014
H23   H     H_    0.895307 0.316617 0.456619 0.273936
H24   H     H_    0.885623 0.273537 0.519069 0.236865
C45   C     C_3   0.065992 0.342654 0.495353 -0.342284
C46   C     C_3   0.123150 0.490663 0.500784 -0.211749
C47   C     C_3   0.879760 0.500737 0.500893 -0.231404
C48   C     C_3   0.925771 0.350558 0.492500 -0.328447
C49   C     C_3   0.605747 0.082385 0.528273 0.227400
C50   C     C_3   0.618097 0.921893 0.518192 0.204163
H25   H     H_    0.692415 0.135895 0.517654 0.159137
H26   H     H_    0.687185 0.913516 0.489347 0.153170
H27   H     H_    0.368509 0.123255 0.558739 0.234924
H28   H     H_    0.420595 0.884494 0.570563 0.219678
C51   C     C_3   0.389011 0.075652 0.524081 -0.286327
C52   C     C_3   0.402114 0.910865 0.531943 -0.292305
C53   C     C_3   0.504918 0.092670 0.451677 0.129723
C54   C     C_3   0.476890 0.929896 0.451674 0.161418
N3    N     N_3   0.500250 0.143650 0.501060 -0.218984
N4    N     N_3   0.500250 0.856350 0.501060 -0.197084
H29   H     H_    0.432972 0.142357 0.429370 0.160444
H30   H     H_    0.378589 0.913793 0.442793 0.105553
H31   H     H_    0.307761 0.096238 0.501142 0.141726
H32   H     H_    0.313121 0.859737 0.523735 0.165164
S1    S     S_3+6 0.130195 0.517560 0.398960 0.032562
O13   O     O_2   0.153273 0.638958 0.364084 -0.259809
O14   O     O_2   0.246385 0.441759 0.404904 -0.363044
O15   O     O_3   0.029691 0.404528 0.375149 -0.458482
H33   H     H_    0.053601 0.400102 0.340902 0.394495
S2    S     S_3+6 0.141280 0.442573 0.602789 0.046690
O16   O     O_2   0.264609 0.391761 0.592355 -0.385196
O17   O     O_2   0.154142 0.537791 0.644154 -0.212084
O18   O     O_3   0.058517 0.300057 0.620865 -0.424248
H34   H     H_    0.103736 0.218983 0.610579 0.352508
S3    S     S_3+6 0.850772 0.612082 0.404401 0.077111
O19   O     O_2   0.744341 0.699485 0.412675 -0.245413
O20   O     O_2   0.922239 0.682927 0.363992 -0.177756
O21   O     O_3   0.798699 0.454747 0.388181 -0.514742
H35   H     H_    0.787751 0.463806 0.352805 0.386184
S4    S     S_3+6 0.852753 0.479448 0.603485 0.082844
O22   O     O_2   0.915935 0.517634 0.649309 -0.146938
O23   O     O_2   0.731634 0.542579 0.604799 -0.312935
O24   O     O_3   0.830443 0.306209 0.602432 -0.499959
H36   H     H_    0.814071 0.275719 0.636351 0.400211
Br1   Br    Br    0.596468 0.114443 0.597621 -0.470681
Br2   Br    Br    0.696726 0.826752 0.572428 -0.380008
Br3   Br    Br    0.663872 0.153545 0.421647 -0.454702
Br4   Br    Br    0.549002 0.873285 0.391798 -0.392928

loop_
_geom_bond_atom_site_label_1
_geom_bond_atom_site_label_2
_geom_bond_distance
_ccdc_geom_bond_type
C44   C47   1.580990 S    
C47   C48   1.572644 S    
C26   N2    1.367551 A    
C20   C24   1.422752 A    
C7    C8    1.393052 A    
C12   C15   1.407723 A    
C53   Br3   2.000220 S    
C53   C54   1.586799 S    
O24   H36   0.990633 S    
C49   Br1   1.966832 S    
C45   C46   1.551469 S    
C28   C29   1.393849 A    
Cu1   O7    1.939893 S    
S1    O14   1.496571 D    
N1    C11   1.435127 S    
C42   H18   1.113782 S    
C49   N3    1.505256 S    
C37   H11   1.083595 S    
C38   H12   1.075724 S    
C21   C22   1.388942 A    
Cu2   N3    2.057779 S    
C40   H16   1.075697 S    
C15   C37   1.394927 A    
C23   C24   1.408293 A    
O7    C4    1.306706 A    
C44   H20   1.111691 S    
C5    C13   1.404947 A    
C7    H10   1.082913 S    
C39   H14   1.083606 S    
C18   C21   1.416621 A    
O15   H33   0.990782 S    
Cu1   O5    2.023355 S    
C19   C20   1.421592 A    
C17   C29   1.406646 A    
C8    H9    1.075486 S    
O5    C3    1.329113 A    
O21   H35   0.990230 S    
C30   H13   1.072001 S    
S2    O16   1.489664 D    
C22   H6    1.083548 S    
C50   H26   1.113179 S    
C2    C16   1.476384 S    
C51   C52   1.602649 S    
C37   C40   1.387555 A    
C51   H31   1.113901 S    
S3    O20   1.500662 D    
C49   H25   1.104240 S    
S4    O24   1.678737 S    
H21   C45   1.109555 S    
C12   C34   1.422821 A    
C54   Br4   1.950019 S    
H23   C48   1.108999 S    
C14   H3    1.083573 S    
H27   C51   1.109799 S    
C9    C10   1.394311 A    
C1    C46   1.512113 S    
C41   H17   1.113621 S    
O3    Cu1   1.957601 S    
C50   N4    1.507767 S    
C53   N3    1.477250 S    
S4    O23   1.482579 D    
N1    C6    1.368083 A    
C43   H19   1.113626 S    
S1    O15   1.679556 S    
C33   C36   1.416541 A    
Cu1   N4    2.059882 S    
C34   C35   1.421700 A    
Cu1   Cu2   2.740661 S    
C12   C13   1.408216 A    
O3    C2    1.318856 A    
C21   H7    1.075785 S    
C24   C25   1.408028 A    
C7    C11   1.399897 A    
C27   O10   1.349669 S    
C8    C16   1.402904 A    
C18   C33   1.422819 A    
C54   H30   1.115632 S    
C9    H1    1.079538 S    
O1    C1    1.320939 A    
C44   S4    1.822171 S    
C22   C23   1.395337 A    
C41   S1    1.840434 S    
C31   C32   1.399880 A    
Cu2   O8    1.957279 S    
S3    O21   1.680123 S    
C3    C47   1.535769 S    
C19   C38   1.416258 A    
C33   C34   1.421641 A    
C50   Br2   1.945092 S    
N2    C32   1.433841 S    
C42   C46   1.577996 S    
H28   C52   1.111732 S    
S2    O18   1.682075 S    
C31   H15   1.082895 S    
C35   C40   1.416269 A    
C25   C26   1.403098 A    
C9    C16   1.404165 A    
O8    C4    1.325015 A    
C29   H4    1.083329 S    
C54   N4    1.542103 S    
C25   C39   1.394879 A    
C52   H32   1.108827 S    
N2    C27   1.367481 A    
C14   C36   1.388961 A    
S4    O22   1.501507 D    
O18   H34   0.990593 S    
C45   C48   1.548118 S    
C5    N1    1.368056 A    
C30   C31   1.393591 A    
C10   H2    1.082782 S    
O1    Cu1   2.009588 S    
C17   C30   1.400895 A    
O2    Cu2   2.022919 S    
C6    C15   1.403109 A    
H24   C48   1.107101 S    
C4    C17   1.476116 S    
O6    C3    1.312885 A    
C42   S2    1.846382 S    
O4    Cu2   1.940189 S    
C36   H8    1.075831 S    
C26   O12   1.349989 S    
H22   C45   1.108432 S    
S1    O13   1.502529 D    
C19   C35   1.421652 A    
C38   C39   1.387605 A    
O2    C1    1.309863 A    
C13   C14   1.395441 A    
C23   C27   1.404865 A    
C28   H5    1.082789 S    
O4    C2    1.313543 A    
C5    O9    1.349691 S    
C52   N4    1.501669 S    
C18   C20   1.421745 A    
C51   N3    1.501527 S    
S2    O17   1.502312 D    
C41   C46   1.576615 S    
C28   C32   1.399009 A    
C6    O11   1.350023 S    
C43   C47   1.577901 S    
Cu2   O6    2.010025 S    
C42   C44   1.582102 S    
C41   C43   1.572847 S    
C10   C11   1.399577 A    
C49   C50   1.590847 S    
C43   S3    1.816320 S    
C53   H29   1.111233 S    
S3    O19   1.486636 D    
