data_mof_unit_pretest_689.cif
_audit_creation_date              2012-12-10T17:52:20-0500
_audit_creation_method            fapswitch 2.2
_symmetry_space_group_name_H-M    P1
_symmetry_Int_Tables_number       1
_space_group_crystal_system       triclinic
_cell_length_a                    19.071391
_cell_length_b                    10.635549
_cell_length_c                    9.913302
_cell_angle_alpha                 89.878817
_cell_angle_beta                  90.227687
_cell_angle_gamma                 91.506058
_cell_volume                      2010.04721951

loop_
_atom_site_label
_atom_site_type_symbol
_atom_type_description
_atom_site_fract_x
_atom_site_fract_y
_atom_site_fract_z
_atom_type_partial_charge
C1    C     C_R   0.501726 0.260669 0.500194 0.863037
C2    C     C_R   0.289290 0.480339 0.500620 -0.050203
C3    C     C_R   0.927262 0.404429 0.511201 0.315994
C4    C     C_R   0.068766 0.414406 0.509072 0.291584
C5    C     C_R   0.810314 0.397251 0.624248 0.176480
C6    C     C_R   0.740081 0.427971 0.621275 -0.239447
C7    C     C_R   0.709540 0.474483 0.502993 -0.067827
C8    C     C_R   0.749701 0.488846 0.386034 -0.174986
C9    C     C_R   0.820299 0.460357 0.388565 -0.172492
C10   C     C_R   0.851384 0.416401 0.507717 0.033386
C11   C     C_R   0.617875 0.136162 0.630057 -0.172023
C12   C     C_R   0.365324 0.497298 0.499899 0.863625
C13   C     C_R   0.672305 0.073003 0.692660 -0.113835
C14   C     C_R   0.672600 0.942251 0.691884 -0.124346
C15   C     C_R   0.618406 0.874185 0.628574 -0.191305
C16   C     C_R   0.562210 0.936811 0.566202 0.098572
C17   C     C_R   0.561984 0.068615 0.566818 0.102552
C18   C     C_R   0.506453 0.128571 0.500273 -0.102096
C19   C     C_R   0.454097 0.062180 0.430514 -0.178288
C20   C     C_R   0.454265 0.933712 0.430073 -0.169306
C21   C     C_R   0.506792 0.871968 0.499382 -0.112336
C22   C     C_R   0.407752 0.336025 0.139534 -0.329918
C23   C     C_R   0.501988 0.739453 0.499854 0.878029
C24   C     C_R   0.362072 0.255509 0.069236 0.597287
C25   C     C_R   0.362174 0.255370 0.929281 0.095593
C26   C     C_R   0.408010 0.335772 0.859654 -0.316951
C27   C     C_R   0.454645 0.419068 0.927567 0.146119
C28   C     C_R   0.454587 0.419168 0.072080 0.105210
C29   C     C_R   0.543501 0.577263 0.071645 -0.088009
C30   C     C_R   0.543477 0.577252 0.928522 -0.093788
C31   C     C_R   0.634558 0.496888 0.500437 0.842315
C32   C     C_R   0.253476 0.477769 0.623819 -0.164998
C33   C     C_R   0.181844 0.453293 0.626421 -0.122017
C34   C     C_R   0.144906 0.431086 0.505890 0.070858
C35   C     C_R   0.180711 0.432710 0.382572 -0.117971
C36   C     C_R   0.252560 0.457583 0.379906 -0.153272
H1    H     H_    0.280748 0.493725 0.718552 0.170711
H2    H     H_    0.620683 0.237649 0.630214 0.152121
H3    H     H_    0.714714 0.125698 0.740726 0.169808
H4    H     H_    0.715298 0.893404 0.739292 0.152179
H5    H     H_    0.621725 0.772887 0.627304 0.144644
H6    H     H_    0.412492 0.882033 0.378137 0.173073
H7    H     H_    0.579041 0.640416 0.125492 0.142353
H8    H     H_    0.404742 0.330431 0.246460 0.229509
H9    H     H_    0.405385 0.329979 0.752784 0.242554
H10   H     H_    0.155469 0.452154 0.722982 0.165437
H11   H     H_    0.578981 0.640421 0.874842 0.141929
H12   H     H_    0.153203 0.416632 0.288156 0.165852
H13   H     H_    0.279283 0.457776 0.283708 0.169676
H14   H     H_    0.708981 0.412193 0.711215 0.174427
H15   H     H_    0.726781 0.523149 0.293266 0.163295
H16   H     H_    0.851099 0.476361 0.298252 0.171777
H17   H     H_    0.412237 0.110085 0.378791 0.186333
N1    N     N_R   0.032405 0.377614 0.397473 -0.157199
N2    N     N_R   0.962726 0.372949 0.398431 -0.157161
N3    N     N_R   0.963693 0.440678 0.622464 -0.119904
N4    N     N_R   0.033171 0.444829 0.621775 -0.153600
N5    N     N_R   0.499340 0.498800 0.142780 -0.099224
N6    N     N_R   0.499320 0.498720 0.857170 -0.102950
O1    O     O_R   0.500000 0.316780 0.614690 -0.633743
O2    O     O_R   0.499990 0.316750 0.385360 -0.624849
O3    O     O_R   0.398140 0.500000 0.614700 -0.629378
O4    O     O_R   0.398130 0.499970 0.385370 -0.633829
O5    O     O_R   0.500010 0.683250 0.614640 -0.607969
O6    O     O_R   0.500000 0.683220 0.385310 -0.609922
O7    O     O_R   0.601870 0.500030 0.614630 -0.634432
O8    O     O_R   0.601860 0.500000 0.385300 -0.611409
Zn1   Zn    Zn3+2 0.500000 0.500020 0.653130 0.945623
Zn2   Zn    Zn3+2 0.500000 0.499980 0.346870 0.954370
F1    F     F_    0.317643 0.177383 0.138197 -0.643923
I1    I     I_    0.293292 0.134127 0.819992 -0.258621
I2    I     I_    0.847435 0.315244 0.806264 -0.362788

loop_
_geom_bond_atom_site_label_1
_geom_bond_atom_site_label_2
_ccdc_geom_bond_type
C4    N4    A    
C31   O7    A    
O7    Zn1   S    
C24   C25   A    
N5    Zn2   S    
C29   C30   A    
C25   I1    S    
C28   N5    A    
N6    Zn1   S    
C11   H2    S    
C12   O3    A    
C9    C10   A    
C20   H6    S    
C19   C20   A    
C14   C15   A    
O3    Zn1   S    
C29   H7    S    
C2    C12   S    
C30   N6    A    
C19   H17   S    
C17   C18   A    
C1    C18   S    
C24   F1    S    
C5    C10   A    
C3    C10   S    
C22   C28   A    
C13   C14   A    
C6    H14   S    
C31   O8    A    
C33   H10   S    
C11   C13   A    
C8    H15   S    
O1    Zn1   S    
C26   C27   A    
C16   C21   A    
C9    H16   S    
C23   O6    A    
O6    Zn2   S    
C35   H12   S    
O5    Zn1   S    
C23   O5    A    
C33   C34   A    
C6    C7    A    
C4    C34   S    
C21   C23   S    
C5    C6    A    
C16   C17   A    
C22   C24   A    
C13   H3    S    
C7    C31   S    
N3    N4    A    
C14   H4    S    
C15   C16   A    
C20   C21   A    
C30   H11   S    
C7    C8    A    
C2    C36   A    
C29   N5    A    
C15   H5    S    
C2    C32   A    
C34   C35   A    
C3    N3    A    
C1    O1    A    
O2    Zn2   S    
C27   C28   A    
C12   O4    A    
N1    N2    A    
C18   C19   A    
C27   N6    A    
C1    O2    A    
C26   H9    S    
C4    N1    A    
C25   C26   A    
C32   H1    S    
C3    N2    A    
C22   H8    S    
C36   H13   S    
O4    Zn2   S    
C32   C33   A    
C5    I2    S    
C8    C9    A    
O8    Zn2   S    
C35   C36   A    
C11   C17   A    
