data_mof_unit_pretest_1406.cif
_audit_creation_date              2012-12-11T15:16:42-0500
_audit_creation_method            fapswitch 2.2
_symmetry_space_group_name_H-M    P1
_symmetry_Int_Tables_number       1
_space_group_crystal_system       triclinic
_cell_length_a                    25.523109
_cell_length_b                    7.256059
_cell_length_c                    21.724158
_cell_angle_alpha                 89.785589
_cell_angle_beta                  109.904381
_cell_angle_gamma                 89.711532
_cell_volume                      3782.80057625

loop_
_atom_site_label
_atom_site_type_symbol
_atom_type_description
_atom_site_fract_x
_atom_site_fract_y
_atom_site_fract_z
_atom_type_partial_charge
O1    O     O_R   0.554350 0.505270 0.581390 -0.534344
O2    O     O_R   0.445650 0.005270 0.418610 -0.530378
O3    O     O_R   0.553380 0.177580 0.454800 -0.536087
O4    O     O_R   0.446620 0.677580 0.545200 -0.537491
C1    C     C_R   0.565488 0.345378 0.437626 0.711842
C2    C     C_R   0.434837 0.845473 0.562749 0.712035
O5    O     O_R   0.560970 0.175640 0.583140 -0.532724
O6    O     O_R   0.439030 0.675640 0.416860 -0.532382
O7    O     O_R   0.453290 0.004120 0.547860 -0.502502
O8    O     O_R   0.546710 0.504120 0.452140 -0.506019
C3    C     C_R   0.578746 0.344535 0.605958 0.673846
C4    C     C_R   0.421803 0.845733 0.393353 0.684852
O9    O     O_3   0.464660 0.338800 0.488280 -0.359554
O10   O     O_3   0.535340 0.838800 0.511720 -0.367329
V1    V     V_3+5 0.506560 0.064420 0.502170 1.483731
V2    V     V_3+5 0.493440 0.564420 0.497830 1.478630
C5    C     C_R   0.143326 0.819197 0.291092 0.139418
C6    C     C_R   0.861026 0.362204 0.709056 0.169802
C7    C     C_R   0.117192 0.925688 0.176359 -0.105581
C8    C     C_R   0.883335 0.431878 0.824419 -0.104236
C9    C     C_R   0.390838 0.897708 0.272250 0.095099
C10   C     C_R   0.609903 0.413084 0.724504 0.101013
C11   C     C_R   0.350272 0.949075 0.212736 -0.096006
C12   C     C_R   0.649934 0.476984 0.781643 -0.101115
C13   C     C_R   0.294525 0.963988 0.205946 -0.174797
C14   C     C_R   0.705550 0.482981 0.788413 -0.173821
C15   C     C_R   0.275335 0.922496 0.257779 0.061960
C16   C     C_R   0.725634 0.413868 0.740200 0.069218
C17   C     C_R   0.315900 0.866653 0.319788 0.001391
C18   C     C_R   0.685819 0.346054 0.679771 -0.016081
C19   C     C_R   0.216329 0.922579 0.248191 0.011896
C20   C     C_R   0.784662 0.410952 0.751623 0.021385
C21   C     C_R   0.199229 0.877517 0.301865 0.016050
C22   C     C_R   0.803674 0.348941 0.701295 -0.024406
C23   C     C_R   0.240350 0.871805 0.364271 0.211360
C24   C     C_R   0.766634 0.259504 0.646638 0.228908
C25   C     C_R   0.294917 0.822915 0.370908 0.050644
C26   C     C_R   0.708365 0.261972 0.634066 0.025944
C27   C     C_R   0.173731 0.962765 0.187170 -0.221593
C28   C     C_R   0.826127 0.461792 0.812477 -0.215782
C29   C     C_R   0.102730 0.836225 0.226838 0.103131
C30   C     C_R   0.900235 0.365978 0.772918 0.101832
C31   C     C_R   0.374938 0.861428 0.327793 -0.131583
C32   C     C_R   0.626177 0.358473 0.670708 -0.126703
H1    H     H_    0.183187 0.014785 0.145683 0.116719
H2    H     H_    0.815747 0.508242 0.853895 0.114502
H3    H     H_    0.267137 0.005466 0.158180 0.124911
H4    H     H_    0.732018 0.542290 0.833461 0.124579
H5    H     H_    0.361075 0.980265 0.169903 0.144605
H6    H     H_    0.638723 0.527130 0.822284 0.144293
C33   C     C_R   0.139354 0.773039 0.901096 0.086158
C34   C     C_R   0.861327 0.273111 0.099591 0.086844
C35   C     C_R   0.183817 0.782504 0.876112 0.219276
C36   C     C_R   0.816921 0.282640 0.124695 0.219089
C37   C     C_R   0.187293 0.932126 0.836583 -0.056569
C38   C     C_R   0.812983 0.432138 0.163729 -0.055490
C39   C     C_R   0.151442 0.085069 0.830653 0.114151
C40   C     C_R   0.848277 0.584889 0.169042 0.115471
C41   C     C_R   0.115931 0.089759 0.868301 -0.218381
C42   C     C_R   0.883702 0.589544 0.131321 -0.219458
H7    H     H_    0.089351 0.207024 0.864864 0.145422
H8    H     H_    0.910035 0.706243 0.134504 0.145009
C43   C     C_R   0.108923 0.936123 0.904195 -0.121628
C44   C     C_R   0.891133 0.436156 0.095854 -0.122470
N1    N     N_R   0.268896 0.018677 0.806196 -0.234454
N2    N     N_R   0.731435 0.521188 0.194213 -0.234881
N3    N     N_R   0.300519 0.000485 0.768731 -0.263835
N4    N     N_R   0.699699 0.502767 0.231527 -0.261711
C45   C     C_R   0.287559 0.877013 0.718769 0.582241
C46   C     C_R   0.712467 0.376844 0.281202 0.581512
N5    N     N_R   0.241121 0.773371 0.707780 -0.202276
N6    N     N_R   0.758840 0.271065 0.292090 -0.206050
N7    N     N_R   0.209478 0.791059 0.745265 -0.252099
N8    N     N_R   0.790588 0.288974 0.254757 -0.253730
C47   C     C_R   0.222682 0.914387 0.795044 0.556879
C48   C     C_R   0.777584 0.414736 0.205258 0.557887
C49   C     C_R   0.326132 0.706008 0.639495 0.334869
C50   C     C_R   0.673702 0.204242 0.360027 0.335867
C51   C     C_R   0.362137 0.704199 0.602753 -0.197649
C52   C     C_R   0.637786 0.202516 0.396878 -0.206785
H9    H     H_    0.363699 0.582153 0.575099 0.203621
H10   H     H_    0.636118 0.079578 0.424240 0.205035
C53   C     C_R   0.394891 0.857606 0.600069 -0.153715
C54   C     C_R   0.605340 0.357201 0.400159 -0.166748
C55   C     C_R   0.388185 0.019123 0.633371 0.292840
C56   C     C_R   0.612223 0.519736 0.367229 0.281791
C57   C     C_R   0.353972 0.018561 0.671717 -0.142706
C58   C     C_R   0.646170 0.519096 0.328558 -0.152118
H11   H     H_    0.351167 0.143116 0.697725 0.209025
H12   H     H_    0.649050 0.644497 0.302788 0.212020
C59   C     C_R   0.322707 0.864039 0.676082 -0.099024
C60   C     C_R   0.677238 0.363512 0.323769 -0.108036
O11   O     O_R   0.953220 0.285790 0.047790 -0.535312
O12   O     O_R   0.046780 0.785790 0.952210 -0.534890
O13   O     O_R   0.939020 0.617570 0.916840 -0.537526
O14   O     O_R   0.060980 0.117570 0.083160 -0.537353
C61   C     C_R   0.924431 0.447934 0.892020 0.688075
C62   C     C_R   0.075380 0.946595 0.108467 0.684055
O15   O     O_R   0.946600 0.615450 0.045180 -0.538038
O16   O     O_R   0.053400 0.115450 0.954820 -0.538603
O17   O     O_R   0.054370 0.786770 0.081410 -0.528504
O18   O     O_R   0.945630 0.286770 0.918590 -0.528183
C63   C     C_R   0.933294 0.446174 0.060807 0.707705
C64   C     C_R   0.066608 0.946078 0.939066 0.710922
O19   O     O_3   0.035300 0.454160 0.011680 -0.379945
O20   O     O_3   0.964700 0.954160 0.988320 -0.378054
V3    V     V_3+5 0.993450 0.728620 0.997830 1.380988
V4    V     V_3+5 0.006550 0.228620 0.002170 1.378232
C65   C     C_3   0.044749 0.753505 0.211440 -0.374183
C66   C     C_3   0.045258 0.543703 0.204007 -0.695229
H13   H     H_    0.057017 0.506332 0.160926 0.241062
H14   H     H_    0.074762 0.474910 0.247641 0.225555
H15   H     H_    0.003106 0.489095 0.196856 0.196687
H16   H     H_    0.026168 0.794226 0.248606 0.157925
H17   H     H_    0.014772 0.808052 0.165537 0.187015
C67   C     C_3   0.956848 0.276401 0.785957 -0.377150
C68   C     C_3   0.952582 0.066167 0.785868 -0.699042
H18   H     H_    0.940780 0.018857 0.828013 0.237193
H19   H     H_    0.920959 0.015924 0.740185 0.237896
H20   H     H_    0.993527 0.003907 0.790247 0.198064
H21   H     H_    0.975337 0.321542 0.749463 0.183063
H22   H     H_    0.986939 0.315479 0.833899 0.185064
Br1   Br    Br    0.237992 0.584430 0.891638 -0.530397
Br2   Br    Br    0.763125 0.085730 0.109489 -0.530293
C69   C     C_3   0.146323 0.234649 0.779980 -0.314786
C70   C     C_3   0.097342 0.196488 0.717640 -0.744667
H23   H     H_    0.104074 0.064317 0.695697 0.246787
H24   H     H_    0.057911 0.188661 0.728439 0.216391
H25   H     H_    0.093479 0.309267 0.681643 0.243211
H26   H     H_    0.140537 0.371059 0.798976 0.215114
H27   H     H_    0.184706 0.246796 0.767292 0.231642
C71   C     C_3   0.853135 0.733528 0.219478 -0.319015
C72   C     C_3   0.899824 0.687050 0.283358 -0.736903
H28   H     H_    0.890919 0.555270 0.303932 0.244328
H29   H     H_    0.940238 0.674584 0.274900 0.217400
H30   H     H_    0.903202 0.798248 0.319456 0.244559
H31   H     H_    0.861695 0.868706 0.201755 0.213885
H32   H     H_    0.813662 0.752410 0.229468 0.235123
Br3   Br    Br    0.284618 0.485404 0.638357 -0.456856
Br4   Br    Br    0.715047 0.982087 0.360666 -0.460846
Br5   Br    Br    0.421690 0.251393 0.628569 -0.589031
Br6   Br    Br    0.579690 0.753703 0.373408 -0.598969
Br7   Br    Br    0.228592 0.978355 0.439935 -0.569030
Br8   Br    Br    0.798071 0.089489 0.598828 -0.591336
C73   C     C_3   0.128952 0.718182 0.345768 -0.344983
C74   C     C_3   0.162603 0.539560 0.368075 -0.660846
H33   H     H_    0.167593 0.465137 0.325809 0.215006
H34   H     H_    0.204235 0.568038 0.404189 0.253443
H35   H     H_    0.140835 0.447679 0.392419 0.238577
H36   H     H_    0.084923 0.678671 0.332036 0.180139
H37   H     H_    0.133711 0.809385 0.387747 0.234430
C75   C     C_3   0.877691 0.437183 0.652417 -0.309230
C76   C     C_3   0.913654 0.309080 0.626713 -0.635292
H38   H     H_    0.915003 0.166156 0.645147 0.254582
H39   H     H_    0.896697 0.305505 0.572374 0.250443
H40   H     H_    0.956909 0.361647 0.640700 0.189230
H41   H     H_    0.900450 0.568602 0.668277 0.168414
H42   H     H_    0.839767 0.476611 0.610733 0.214669
C77   C     C_3   0.451750 0.879701 0.277898 -0.335982
C78   C     C_3   0.465374 0.910079 0.215229 -0.697440
H43   H     H_    0.442464 0.810400 0.176965 0.230283
H44   H     H_    0.455089 0.053667 0.197072 0.224391
H45   H     H_    0.510694 0.887855 0.225859 0.258101
H46   H     H_    0.476616 0.979919 0.314674 0.215371
H47   H     H_    0.465507 0.737740 0.295524 0.213016
C79   C     C_3   0.549013 0.400492 0.719754 -0.336001
C80   C     C_3   0.535871 0.440734 0.782118 -0.704002
H48   H     H_    0.560280 0.347845 0.822593 0.233231
H49   H     H_    0.544620 0.587123 0.796541 0.222754
H50   H     H_    0.490910 0.416313 0.772805 0.257537
H51   H     H_    0.523540 0.496778 0.681202 0.215029
H52   H     H_    0.535484 0.257165 0.705252 0.213929
C81   C     C_3   0.322857 0.690252 0.426161 -0.344603
C82   C     C_3   0.327377 0.496406 0.400798 -0.648068
H53   H     H_    0.349816 0.404504 0.442525 0.242682
H54   H     H_    0.285141 0.439475 0.376054 0.217795
H55   H     H_    0.349949 0.496712 0.365294 0.221470
H56   H     H_    0.362807 0.744159 0.456345 0.174578
H57   H     H_    0.299002 0.676133 0.460143 0.217696
C83   C     C_3   0.673719 0.154594 0.574932 -0.297373
C84   C     C_3   0.663501 0.957790 0.593507 -0.580388
H58   H     H_    0.703690 0.884197 0.616752 0.230162
H59   H     H_    0.639630 0.881341 0.548754 0.229134
H60   H     H_    0.640495 0.956946 0.628577 0.209091
H61   H     H_    0.636377 0.230121 0.547559 0.144178
H62   H     H_    0.693470 0.147251 0.536947 0.216452
C85   C     C_3   0.111955 0.587820 0.896998 -0.288808
C86   C     C_3   0.060360 0.585911 0.834195 -0.781127
H63   H     H_    0.021890 0.614865 0.845389 0.227854
H64   H     H_    0.063072 0.689598 0.797557 0.233528
H65   H     H_    0.056729 0.453004 0.809159 0.197582
H66   H     H_    0.140284 0.475150 0.894780 0.194834
H67   H     H_    0.102287 0.551620 0.941382 0.203360
C87   C     C_3   0.888907 0.087159 0.103233 -0.289590
C88   C     C_3   0.941025 0.081539 0.165534 -0.776527
H68   H     H_    0.979170 0.110653 0.153809 0.227497
H69   H     H_    0.938496 0.183499 0.202555 0.233388
H70   H     H_    0.945374 0.947210 0.190360 0.196144
H71   H     H_    0.860763 0.975334 0.105769 0.194208
H72   H     H_    0.898010 0.052105 0.058445 0.203978

loop_
_geom_bond_atom_site_label_1
_geom_bond_atom_site_label_2
_ccdc_geom_bond_type
O17   V3    S    
C44   C63   S    
N2    N4    A    
C79   H52   S    
C70   H23   S    
C38   C48   S    
C72   H28   S    
C57   C59   A    
C15   C17   A    
C68   H18   S    
C9    C77   S    
O15   C63   A    
O1    C3    A    
C52   C54   A    
O2    C4    A    
O11   C63   A    
C2    O7    A    
C73   C74   S    
C80   H49   S    
C84   H58   S    
O5    C3    A    
N8    C48   A    
C86   H65   S    
C7    C27   A    
C86   H64   S    
C23   C25   A    
C54   C56   A    
C4    C31   S    
C6    C30   A    
O11   V4    S    
C39   C69   S    
C8    C28   A    
C50   C52   A    
C39   C41   A    
O20   V3    S    
C81   H57   S    
C40   C42   A    
O16   C64   A    
C67   C68   S    
C18   C26   A    
C42   H8    S    
C45   N5    A    
C34   C87   S    
C82   H53   S    
C66   H14   S    
C9    C31   A    
C69   H26   S    
C87   H72   S    
C8    C61   S    
C58   C60   A    
C40   C71   S    
C71   C72   S    
N1    N3    A    
O14   C62   A    
C72   H30   S    
C19   C21   A    
O18   V4    S    
C38   C40   A    
C76   H39   S    
C13   H3    S    
C22   C24   A    
C73   H36   S    
C14   H4    S    
C27   H1    S    
C88   H70   S    
C37   C47   S    
C49   C51   A    
C87   C88   S    
O14   V4    S    
O12   C64   A    
C79   H51   S    
O6    V2    S    
C29   C65   S    
C17   C31   A    
N7    C47   A    
C18   C32   A    
C5    C21   A    
C6    C75   S    
C7    C62   S    
C34   C36   A    
C80   H50   S    
C74   H34   S    
C35   C37   A    
C9    C11   A    
C12   H6    S    
C84   H59   S    
O19   V4    S    
C10   C32   A    
O12   V3    S    
O16   V4    S    
C5    C29   A    
C41   H7    S    
C67   H21   S    
C55   C57   A    
C15   C19   A    
C78   H45   S    
C16   C20   A    
C26   C83   S    
N6    N8    A    
C35   Br1   S    
C68   H20   S    
C55   Br5   S    
C80   H48   S    
C51   H9    S    
C1    C54   S    
C70   H25   S    
C50   C60   A    
C71   H31   S    
C81   C82   S    
C46   N6    A    
C77   H47   S    
C86   H63   S    
C33   C35   A    
C20   C22   A    
O4    V2    S    
C5    C73   S    
C74   H35   S    
C69   H27   S    
C77   C78   S    
C66   H15   S    
O6    C4    A    
N2    C48   A    
C23   Br7   S    
C33   C43   A    
C3    C32   S    
C66   H13   S    
O1    V2    S    
C76   H40   S    
O2    V1    S    
C6    C22   A    
C82   H55   S    
C85   H66   S    
C73   H37   S    
C83   H62   S    
C65   H16   S    
C75   H42   S    
O4    C2    A    
C53   C55   A    
C58   H12   S    
C37   C39   A    
C34   C44   A    
C79   C80   S    
C10   C12   A    
C28   H2    S    
C24   C26   A    
O3    V1    S    
C83   C84   S    
C56   Br6   S    
N5    N7    A    
C74   H33   S    
C67   H22   S    
C84   H60   S    
C30   C67   S    
C36   Br2   S    
C75   H41   S    
C49   C59   A    
C70   H24   S    
C2    C53   S    
C77   H46   S    
C14   C16   A    
C46   C60   S    
C49   Br3   S    
C12   C14   A    
C43   C64   S    
O3    C1    A    
C50   Br4   S    
C8    C30   A    
O13   C61   A    
C36   C38   A    
O13   V3    S    
C13   C15   A    
C62   O17   A    
O15   V3    S    
C41   C43   A    
N1    C47   A    
C42   C44   A    
C78   H43   S    
C68   H19   S    
C24   Br8   S    
C16   C18   A    
O8    V2    S    
C65   C66   S    
C51   C53   A    
C69   C70   S    
C81   H56   S    
O5    V1    S    
C21   C23   A    
C52   H10   S    
C19   C27   A    
C56   C58   A    
C20   C28   A    
O7    V1    S    
C82   H54   S    
C33   C85   S    
C83   H61   S    
C65   H17   S    
C25   C81   S    
C88   H68   S    
C10   C79   S    
C87   H71   S    
C1    O8    A    
C11   C13   A    
C11   H5    S    
C75   C76   S    
N4    C46   A    
O9    V2    S    
C17   C25   A    
C72   H29   S    
C57   H11   S    
O10   V1    S    
C85   C86   S    
N3    C45   A    
C76   H38   S    
C45   C59   S    
C71   H32   S    
C61   O18   A    
C85   H67   S    
C7    C29   A    
C78   H44   S    
C88   H69   S    
