data_mof_unit_pretest_162.cif
_audit_creation_date              2012-12-11T19:49:38-0500
_audit_creation_method            fapswitch 2.2
_symmetry_space_group_name_H-M    P1
_symmetry_Int_Tables_number       1
_space_group_crystal_system       triclinic
_cell_length_a                    8.238881
_cell_length_b                    15.024602
_cell_length_c                    18.702092
_cell_angle_alpha                 101.63011
_cell_angle_beta                  91.372771
_cell_angle_gamma                 98.419551
_cell_volume                      2239.66887051

loop_
_atom_site_label
_atom_site_type_symbol
_atom_type_description
_atom_site_fract_x
_atom_site_fract_y
_atom_site_fract_z
_atom_type_partial_charge
Ba1   Ba    Ba6+2 0.853520 0.540910 0.466490 1.643768
Ba2   Ba    Ba6+2 0.336320 0.459170 0.533520 1.643218
C1    C     C_3   0.690832 0.870318 0.304791 -0.112886
C2    C     C_R   0.889779 0.420026 0.094139 0.038107
C3    C     C_R   0.725637 0.384929 0.070785 -0.098737
C4    C     C_3   0.132143 0.721289 0.272409 0.345019
C5    C     C_R   0.665173 0.389124 0.001383 -0.093031
C6    C     C_R   0.767787 0.429007 0.953903 0.040253
C7    C     C_R   0.930834 0.468241 0.977667 0.010790
C8    C     C_R   0.710419 0.428132 0.882662 -0.102167
C9    C     C_R   0.814520 0.464344 0.833233 -0.036576
C10   C     C_R   0.975148 0.509525 0.858341 -0.005818
C11   C     C_R   0.033096 0.510469 0.930650 -0.017577
C12   C     C_3   0.654878 0.773893 0.320818 0.352361
C13   C     C_R   0.764455 0.454516 0.758889 0.027502
C14   C     C_R   0.872986 0.487932 0.710885 -0.247180
C15   C     C_R   0.027065 0.538654 0.735397 0.064027
C16   C     C_3   0.110123 0.742116 0.196781 -0.382777
C17   C     C_R   0.079947 0.550643 0.810506 -0.045740
C18   C     C_R   0.154685 0.502693 0.072400 -0.010711
C19   C     C_R   0.214235 0.500382 0.143900 -0.003097
C20   C     C_R   0.109824 0.457534 0.191082 -0.058434
C21   C     C_R   0.951517 0.413159 0.163144 -0.055295
C22   C     C_R   0.236801 0.597657 0.838632 -0.048086
C23   C     C_3   0.467776 0.307542 0.305870 0.396796
C24   C     C_R   0.296873 0.594653 0.909032 0.035320
C25   C     C_R   0.195280 0.550404 0.955105 0.005020
C26   C     C_R   0.256353 0.546091 0.025711 0.013152
C27   C     C_R   0.459095 0.633464 0.933552 -0.080692
C28   C     C_3   0.244112 0.744450 0.628947 0.311175
C29   C     C_R   0.520106 0.628199 0.002783 -0.093448
C30   C     C_R   0.419407 0.585176 0.049419 0.030847
C31   C     C_R   0.377408 0.541907 0.168087 -0.040955
C32   C     C_R   0.479200 0.581828 0.119523 -0.110717
C33   C     C_R   0.432610 0.544140 0.240687 0.000053
C34   C     C_3   0.463774 0.275928 0.223128 0.316573
C35   C     C_R   0.325558 0.506964 0.288077 -0.300684
C36   C     C_R   0.165918 0.462672 0.264912 0.032558
C37   C     C_R   0.851283 0.171580 0.547130 0.034591
C38   C     C_R   0.786584 0.077304 0.539533 -0.026027
C39   C     C_R   0.647986 0.889680 0.527768 -0.037865
C40   C     C_3   0.269168 0.849052 0.649899 -0.392729
C41   C     C_R   0.800622 0.926618 0.565505 -0.055513
C42   C     C_R   0.872112 0.016944 0.567621 -0.109924
C43   C     C_R   0.580085 0.795557 0.519167 0.040435
C44   C     C_R   0.429288 0.762537 0.479771 -0.300909
C45   C     C_3   0.045393 0.243588 0.732622 0.529080
C46   C     C_R   0.611181 0.194339 0.479676 0.000291
C47   C     C_R   0.544278 0.100992 0.471427 -0.049465
C48   C     C_R   0.630383 0.042536 0.503038 0.014178
C49   C     C_R   0.394336 0.064419 0.431942 -0.047158
C50   C     C_R   0.325769 0.973490 0.426521 -0.092730
C51   C     C_R   0.407361 0.914245 0.458157 -0.043793
C52   C     C_3   0.947649 0.254146 0.369394 0.351317
C53   C     C_R   0.562120 0.948603 0.496169 0.003946
C54   C     C_R   0.339517 0.821338 0.451877 -0.006662
C55   C     C_R   0.759779 0.229171 0.519489 -0.297168
C56   C     C_3   0.105315 0.211885 0.803650 0.413257
C57   C     C_3   0.910745 0.149311 0.345207 0.263299
C58   C     C_3   0.728049 0.672353 0.688376 0.314895
C59   C     C_3   0.750506 0.702880 0.771134 -0.423707
C60   C     C_3   0.100256 0.096001 0.261337 0.260523
C61   C     C_3   0.025955 0.999179 0.220862 -0.231339
C62   C     C_3   0.075032 0.979785 0.141780 -0.513011
C63   C     C_3   0.595535 0.181207 0.135966 0.265677
C64   C     C_3   0.577251 0.083458 0.149981 -0.161996
C65   C     C_3   0.552632 0.011668 0.078652 -0.507922
C66   C     C_3   0.994248 0.050319 0.767030 0.307575
C67   C     C_3   0.498456 0.227078 0.677779 0.322563
C68   C     C_3   0.849185 0.045871 0.817087 -0.235252
C69   C     C_3   0.718047 0.963470 0.785768 -0.502528
C70   C     C_3   0.473430 0.131554 0.695678 -0.378468
C71   C     C_R   0.991837 0.463962 0.048201 0.008734
H1    H     H_    0.728958 0.774192 0.371291 0.079107
H2    H     H_    0.624611 0.614456 0.675113 0.075213
H3    H     H_    0.821131 0.883476 0.291605 0.139242
H4    H     H_    0.864804 0.753328 0.786233 0.117046
H5    H     H_    0.759421 0.643281 0.796665 0.062466
H6    H     H_    0.643667 0.734917 0.792828 0.121802
H7    H     H_    0.522556 0.758239 0.330557 -0.071284
H8    H     H_    0.673496 0.922134 0.354236 0.073407
H9    H     H_    0.346437 0.326352 0.321779 -0.093520
H10   H     H_    0.564579 0.368673 0.322201 0.033958
H11   H     H_    0.355955 0.220867 0.206244 -0.037694
H12   H     H_    0.359798 0.873776 0.697228 0.126215
H13   H     H_    0.446661 0.334544 0.197256 -0.071665
H14   H     H_    0.190828 0.806796 0.193083 0.106941
H15   H     H_    0.231390 0.250856 0.818150 0.085380
H16   H     H_    0.618825 0.238309 0.653415 0.006347
H17   H     H_    0.403846 0.229470 0.635685 0.116183
H18   H     H_    0.517606 0.081702 0.651087 0.062217
H19   H     H_    0.341719 0.107661 0.700857 0.185181
H20   H     H_    0.052641 0.655345 0.273727 0.097250
H21   H     H_    0.541683 0.132198 0.747689 0.131182
H22   H     H_    0.643065 0.355123 0.106471 0.091205
H23   H     H_    0.315071 0.879432 0.603613 0.063801
H24   H     H_    0.538318 0.360358 0.984623 0.068623
H25   H     H_    0.833145 0.478362 0.653919 0.060149
H26   H     H_    0.585320 0.396458 0.865993 0.112760
H27   H     H_    0.872294 0.374923 0.195137 0.140299
H28   H     H_    0.316706 0.634001 0.805513 0.099946
H29   H     H_    0.539647 0.667108 0.898863 0.063798
H30   H     H_    0.646144 0.658314 0.020022 0.069243
H31   H     H_    0.605379 0.611714 0.135694 0.108688
H32   H     H_    0.262611 0.714085 0.281687 -0.058160
H33   H     H_    0.368798 0.510804 0.343865 0.074240
H34   H     H_    0.150593 0.872701 0.664689 0.109215
H35   H     H_    0.869784 0.886545 0.592871 0.104165
H36   H     H_    0.994978 0.038727 0.592140 0.106853
H37   H     H_    0.208654 0.950759 0.396437 0.127122
H38   H     H_    0.326418 0.105427 0.405077 0.155584
H39   H     H_    0.376967 0.690925 0.474060 0.073460
H40   H     H_    0.809691 0.301160 0.525129 0.069610
H41   H     H_    0.143214 0.685473 0.154637 0.080818
H42   H     H_    0.980288 0.749516 0.185681 0.149292
H43   H     H_    0.362643 0.721601 0.614731 0.009598
H44   H     H_    0.154311 0.721875 0.581206 0.070177
H45   H     H_    0.833828 0.280479 0.387030 -0.068448
H46   H     H_    0.235949 0.101464 0.261295 0.080478
H47   H     H_    0.064964 0.148135 0.231701 0.065217
H48   H     H_    0.068824 0.948133 0.249415 0.150175
H49   H     H_    0.890133 0.991672 0.220722 0.130336
H50   H     H_    0.036590 0.031255 0.112423 0.135681
H51   H     H_    0.013817 0.910280 0.113655 0.150470
H52   H     H_    0.209840 0.981618 0.139824 0.140471
H53   H     H_    0.708961 0.193336 0.106102 0.057009
H54   H     H_    0.491468 0.189049 0.099532 0.013243
H55   H     H_    0.689638 0.075217 0.180173 0.123557
H56   H     H_    0.041231 0.272703 0.415733 0.062497
H57   H     H_    0.471313 0.071614 0.184218 0.117206
H58   H     H_    0.439590 0.017639 0.047524 0.136571
H59   H     H_    0.539766 0.941740 0.090919 0.151342
H60   H     H_    0.660083 0.020905 0.044633 0.134799
H61   H     H_    0.462533 0.870037 0.258440 0.178788
H62   H     H_    0.598614 0.831371 0.197936 0.204333
H63   H     H_    0.129792 0.375299 0.793634 0.123319
H64   H     H_    0.214708 0.349170 0.714139 0.247658
H65   H     H_    0.816757 0.160929 0.710152 0.138501
H66   H     H_    0.815215 0.261005 0.771225 0.172742
H67   H     H_    0.823427 0.129562 0.296332 0.034775
H68   H     H_    0.058445 0.217480 0.911562 0.186489
H69   H     H_    0.021601 0.310181 0.881622 0.135073
H70   H     H_    0.039818 0.983284 0.760091 0.064102
H71   H     H_    0.955436 0.054326 0.711487 0.038033
H72   H     H_    0.893737 0.040115 0.872285 0.132865
H73   H     H_    0.789717 0.108174 0.822299 0.139763
H74   H     H_    0.670683 0.968609 0.730834 0.137765
H75   H     H_    0.614144 0.961544 0.822439 0.148409
H76   H     H_    0.770215 0.898779 0.781079 0.161862
H77   H     H_    0.846631 0.120796 0.388822 -0.011667
H78   H     H_    0.842112 0.649557 0.666806 0.007659
N1    N     N_3   0.584801 0.881167 0.244342 -0.516247
N2    N     N_3   0.104239 0.341898 0.739244 -0.484627
N3    N     N_3   0.866178 0.230200 0.723653 -0.520486
N4    N     N_3   0.008257 0.238617 0.867028 -0.539653
O1    O     O_2   0.871960 0.437280 0.322960 -0.460528
O2    O     O_2   0.179709 0.177846 0.534714 -0.487578
O3    O     O_3   0.111891 0.193039 0.670618 -0.626584
O4    O     O_3   0.121410 0.444460 0.412450 -0.488687
O5    O     O_3   0.580430 0.613240 0.540320 -0.490512
O6    O     O_2   0.337390 0.273050 0.457610 -0.449352
O7    O     O_3   0.501464 0.235030 0.337843 -0.651098
O8    O     O_2   0.434397 0.465547 0.758087 -0.509544
O9    O     O_3   0.488369 0.294538 0.741240 -0.626583
O10   O     O_3   0.661450 0.607570 0.372550 -0.481917
O11   O     O_2   0.773838 0.544018 0.244559 -0.493723
O12   O     O_3   0.694995 0.746865 0.659147 -0.643683
O13   O     O_3   0.003124 0.290791 0.309909 -0.653746
O14   O     O_3   0.700125 0.709552 0.262066 -0.614089
O15   O     O_2   0.852310 0.726980 0.542430 -0.470566
O16   O     O_3   0.084010 0.657370 0.410280 -0.486190
O17   O     O_2   0.002121 0.820977 0.459595 -0.487864
O18   O     O_3   0.057970 0.111205 0.335289 -0.658120
O19   O     O_3   0.614523 0.245730 0.203282 -0.649442
O20   O     O_3   0.130163 0.118477 0.795816 -0.647386
O21   O     O_3   0.086807 0.793129 0.324762 -0.612046
O22   O     O_2   0.317750 0.562750 0.677090 -0.469598
O23   O     O_3   0.068300 0.555620 0.587560 -0.494439
O24   O     O_3   0.528270 0.392500 0.627460 -0.488113
O25   O     O_3   0.186857 0.709570 0.689040 -0.642971
O26   O     O_3   0.609290 0.386840 0.459690 -0.478985
O27   O     O_3   0.105700 0.342700 0.589730 -0.469991
P1    P     P_3+3 0.039430 0.410940 0.333230 0.989873
P2    P     P_3+3 0.676770 0.715000 0.563590 0.967403
P3    P     P_3+3 0.129245 0.774197 0.412241 0.933977
P4    P     P_3+3 0.150290 0.589140 0.666780 0.973042
P5    P     P_3+3 0.059298 0.223267 0.587064 0.947056
P6    P     P_3+3 0.641078 0.599186 0.278788 0.938483
P7    P     P_3+3 0.517781 0.271589 0.432919 0.948062
P8    P     P_3+3 0.555183 0.403020 0.721642 0.901794

loop_
_geom_bond_atom_site_label_1
_geom_bond_atom_site_label_2
_ccdc_geom_bond_type
C69   H74   S    
C6    C8    A    
C34   O19   S    
C44   H39   S    
C63   O19   S    
C67   C70   S    
C56   O20   S    
C67   O9    S    
O3    P5    S    
C16   H41   S    
Ba1   P1    S    
C46   C55   A    
C28   H43   S    
C43   C44   A    
C60   H46   S    
C1    N1    S    
C35   C36   A    
C40   H23   S    
C12   H1    S    
C65   H60   S    
C59   H5    S    
C22   C24   A    
C22   H28   S    
C70   H19   S    
O9    P8    S    
C57   H77   S    
C19   C31   A    
C13   C14   A    
C20   C36   A    
Ba1   O15   S    
C59   H6    S    
C66   H70   S    
Ba1   Ba2   S    
Ba2   O27   S    
C7    C11   A    
C39   C53   A    
C3    H22   S    
O26   P7    S    
O1    P1    D    
C29   C30   A    
C59   H4    S    
Ba2   O4    S    
C47   C49   A    
C48   C53   A    
C1    H8    S    
C68   C69   S    
C68   H73   S    
Ba2   O22   S    
Ba1   O10   S    
H69   N4    S    
C40   H34   S    
C15   P4    S    
C60   H47   S    
C62   H52   S    
C41   H35   S    
C70   H21   S    
C42   H36   S    
O13   P1    S    
C64   C65   S    
C65   H59   S    
C19   C20   A    
C39   C41   A    
C7    C71   A    
C12   O14   S    
C67   H16   S    
Ba2   O6    S    
C61   H48   S    
C66   O20   S    
C52   C57   S    
C51   C53   A    
C4    C16   S    
C65   H58   S    
C58   O12   S    
O16   P3    S    
C49   C50   A    
O10   P6    S    
Ba1   O4    S    
O21   P3    S    
C8    C9    A    
C37   C38   A    
C3    C5    A    
C2    C21   A    
Ba1   O26   S    
C6    C7    A    
C55   H40   S    
C45   N2    S    
H66   N3    S    
C34   H13   S    
C62   H51   S    
C60   O18   S    
Ba1   O16   S    
Ba1   P2    S    
C36   P1    S    
C58   C59   S    
C58   H78   S    
C30   C32   A    
C50   H37   S    
Ba1   O1    S    
C41   C42   A    
Ba2   P4    S    
C60   C61   S    
Ba1   O23   S    
O15   P2    D    
O12   P2    S    
C26   C30   A    
O17   P3    D    
C4    H20   S    
H61   N1    S    
C31   C32   A    
C46   P7    S    
H64   N2    S    
C40   H12   S    
C28   O25   S    
C10   C11   A    
C1    H3    S    
C2    C71   A    
C1    C12   S    
C68   H72   S    
O5    P2    S    
O6    P7    D    
C46   C47   A    
C45   N3    S    
C13   P8    S    
C63   C64   S    
C9    C13   A    
C12   H7    S    
C52   H45   S    
C24   C25   A    
C23   H9    S    
O11   P6    D    
Ba2   O24   S    
C27   H29   S    
C67   H17   S    
C14   C15   A    
C63   H54   S    
C61   H49   S    
C50   C51   A    
C51   C54   A    
C70   H18   S    
C52   H56   S    
C49   H38   S    
C5    H24   S    
C33   C35   A    
Ba1   O5    S    
H68   N4    S    
O2    P5    D    
O14   P6    S    
C52   O13   S    
C2    C3    A    
C57   O18   S    
C56   H15   S    
C16   H42   S    
C9    C10   A    
C28   H44   S    
C54   P3    S    
C62   H50   S    
C18   C26   A    
C58   H2    S    
C16   H14   S    
O25   P4    S    
C21   H27   S    
C63   H53   S    
C17   C22   A    
C37   P5    S    
C35   H33   S    
C27   C29   A    
C45   C56   S    
H63   N2    S    
C31   C33   A    
C14   H25   S    
C69   H76   S    
O24   P8    S    
C4    O21   S    
C57   H67   S    
C34   H11   S    
C38   C48   A    
C10   C17   A    
C69   H75   S    
C15   C17   A    
C4    H32   S    
C64   H55   S    
C18   C71   A    
C66   H71   S    
O8    P8    D    
C28   C40   S    
O27   P5    S    
C8    H26   S    
C32   H31   S    
C23   O7    S    
C5    C6    A    
C56   N4    S    
O22   P4    D    
C23   C34   S    
C61   C62   S    
O23   P4    S    
C38   C42   A    
C18   C19   A    
C24   C27   A    
Ba2   O5    S    
C47   C48   A    
C33   P6    S    
C44   C54   A    
C25   C26   A    
C23   H10   S    
C66   C68   S    
C39   C43   A    
C20   C21   A    
C11   C25   A    
Ba2   O23   S    
O4    P1    S    
H65   N3    S    
Ba2   O26   S    
O7    P7    S    
H62   N1    S    
C43   P2    S    
C29   H30   S    
C64   H57   S    
C45   O3    S    
C37   C55   A    
