data_mof_unit_pretest_1834.cif
_audit_creation_date              2012-12-10T17:55:39-0500
_audit_creation_method            fapswitch 2.2
_symmetry_space_group_name_H-M    P1
_symmetry_Int_Tables_number       1
_space_group_crystal_system       monoclinic
_cell_length_a                    21.636514
_cell_length_b                    21.636514
_cell_length_c                    23.558482
_cell_angle_alpha                 90.0
_cell_angle_beta                  90.0
_cell_angle_gamma                 90.000046
_cell_volume                      11028.6380344

loop_
_atom_site_label
_atom_site_type_symbol
_atom_type_description
_atom_site_fract_x
_atom_site_fract_y
_atom_site_fract_z
_atom_type_partial_charge
C1    C     C_R   0.120123 0.500000 0.000000 0.884907
C2    C     C_R   0.500000 0.000000 0.109373 0.901322
C3    C     C_R   0.000000 0.500000 0.890627 0.901323
C4    C     C_R   0.500000 1.000000 0.890627 0.901323
C5    C     C_R   0.500000 0.000000 0.609373 0.901322
C6    C     C_R   0.000000 0.500000 0.609373 0.901322
C7    C     C_R   0.500000 0.000000 0.390626 0.901323
C8    C     C_R   0.000000 0.500000 0.390626 0.901323
C9    C     C_1   0.000000 0.500000 0.169594 -0.186531
C10   C     C_1   0.500000 0.000000 0.169594 -0.186531
C11   C     C_1   0.000000 0.500000 0.830406 -0.186531
C12   C     C_R   0.500000 0.879877 1.000000 0.884907
C13   C     C_1   0.500000 0.000000 0.830406 -0.186531
C14   C     C_1   0.500000 0.000000 0.669594 -0.186531
C15   C     C_1   0.000000 0.500000 0.669594 -0.186531
C16   C     C_1   0.500000 0.000000 0.330406 -0.186531
C17   C     C_1   0.000000 0.500000 0.330406 -0.186531
C18   C     C_1   0.000000 0.500000 0.220362 0.007253
C19   C     C_1   0.500000 0.000000 0.220362 0.007253
C20   C     C_1   0.000000 0.500000 0.779638 0.007253
C21   C     C_1   0.500000 0.000000 0.779638 0.007253
C22   C     C_1   0.500000 1.000000 0.720362 0.007253
C23   C     C_R   0.879877 0.500000 0.000000 0.884907
C24   C     C_1   0.000000 0.500000 0.720362 0.007253
C25   C     C_1   0.500000 0.000000 0.279638 0.007253
C26   C     C_1   0.000000 0.500000 0.279638 0.007253
C27   C     C_R   0.217461 0.457266 0.966439 -0.220940
C28   C     C_R   0.457266 0.782539 0.966439 -0.220942
C29   C     C_R   0.782539 0.542734 0.966439 -0.220941
C30   C     C_R   0.542734 0.217461 0.966439 -0.220941
C31   C     C_R   0.217461 0.542734 0.033561 -0.220942
C32   C     C_R   0.457266 0.217461 0.033561 -0.220941
C33   C     C_R   0.782539 0.457266 0.033561 -0.220941
C34   C     C_R   0.500000 0.120123 0.000000 0.884907
C35   C     C_R   0.542734 0.782539 0.033561 -0.220940
C36   C     C_R   0.717461 0.957266 0.466439 -0.220940
C37   C     C_R   0.957266 0.282539 0.466439 -0.220942
C38   C     C_R   0.282539 0.042734 0.466439 -0.220941
C39   C     C_R   0.042734 0.717461 0.466439 -0.220941
C40   C     C_R   0.717461 0.042734 0.533561 -0.220942
C41   C     C_R   0.957266 0.717461 0.533561 -0.220941
C42   C     C_R   0.282539 0.957266 0.533561 -0.220941
C43   C     C_R   0.042734 0.282539 0.533561 -0.220940
C44   C     C_R   0.281565 0.457224 0.965634 0.078211
C45   C     C_R   0.620123 0.000000 0.500000 0.884907
C46   C     C_R   0.457224 0.718435 0.965634 0.078212
C47   C     C_R   0.718435 0.542776 0.965634 0.078212
C48   C     C_R   0.542776 0.281565 0.965634 0.078212
C49   C     C_R   0.281565 0.542776 0.034366 0.078212
C50   C     C_R   0.457224 0.281565 0.034366 0.078212
C51   C     C_R   0.718435 0.457224 0.034366 0.078212
C52   C     C_R   0.542776 0.718435 0.034366 0.078211
C53   C     C_R   0.781565 0.957224 0.465634 0.078211
C54   C     C_R   0.957224 0.218435 0.465634 0.078212
C55   C     C_R   0.218435 0.042776 0.465634 0.078212
C56   C     C_R   1.000000 0.379877 0.500000 0.884907
C57   C     C_R   0.042776 0.781565 0.465634 0.078212
C58   C     C_R   0.781565 0.042776 0.534366 0.078212
C59   C     C_R   0.957224 0.781565 0.534366 0.078212
C60   C     C_R   0.218435 0.957224 0.534366 0.078212
C61   C     C_R   0.042776 0.218435 0.534366 0.078211
C62   C     C_R   0.313285 0.500000 1.000000 -0.051722
C63   C     C_R   0.500000 0.686715 0.000000 -0.051722
C64   C     C_R   0.686715 0.500000 1.000000 -0.051723
C65   C     C_R   0.500000 0.313285 0.000000 -0.051723
C66   C     C_R   0.813285 1.000000 0.500000 -0.051722
C67   C     C_R   0.379877 1.000000 0.500000 0.884907
C68   C     C_R   1.000000 0.186715 0.500000 -0.051722
C69   C     C_R   0.186715 1.000000 0.500000 -0.051723
C70   C     C_R   0.000000 0.813285 0.500000 -0.051723
C71   C     C_R   0.500000 0.620521 0.000000 0.883447
C72   C     C_R   0.620521 0.500000 0.000000 0.883445
C73   C     C_R   0.500000 0.379479 0.000000 0.883444
C74   C     C_R   0.379479 0.500000 1.000000 0.883446
C75   C     C_R   0.000000 0.120521 0.500000 0.883447
C76   C     C_R   0.120521 0.000000 0.500000 0.883445
C77   C     C_R   1.000000 0.879479 0.500000 0.883444
C78   C     C_R   0.000000 0.620123 0.500000 0.884907
C79   C     C_R   0.879479 1.000000 0.500000 0.883446
C80   C     C_R   0.186090 0.500000 1.000000 -0.061513
C81   C     C_R   0.500000 0.813909 0.000000 -0.061514
C82   C     C_R   0.813909 0.500000 1.000000 -0.061514
C83   C     C_R   0.500000 0.186090 0.000000 -0.061514
C84   C     C_R   0.686090 1.000000 0.500000 -0.061513
C85   C     C_R   1.000000 0.313910 0.500000 -0.061514
C86   C     C_R   0.313910 1.000000 0.500000 -0.061514
C87   C     C_R   0.000000 0.686090 0.500000 -0.061514
C88   C     C_R   0.000000 0.500000 0.109373 0.901322
H1    H     H_    0.191954 0.424649 0.940515 0.148174
H2    H     H_    0.924648 0.308046 0.440515 0.148174
H3    H     H_    0.308046 0.075351 0.440515 0.148174
H4    H     H_    0.075351 0.691954 0.440515 0.148174
H5    H     H_    0.691954 0.075351 0.559485 0.148174
H6    H     H_    0.924649 0.691954 0.559485 0.148174
H7    H     H_    0.308046 0.924648 0.559485 0.148174
H8    H     H_    0.075351 0.308046 0.559485 0.148174
H9    H     H_    0.284070 0.387933 0.905950 0.183559
H10   H     H_    0.336681 0.382454 0.957897 0.163413
H11   H     H_    0.387933 0.715929 0.905951 0.183559
H12   H     H_    0.424648 0.808046 0.940515 0.148174
H13   H     H_    0.382453 0.663319 0.957898 0.163413
H14   H     H_    0.715930 0.612067 0.905950 0.183559
H15   H     H_    0.663319 0.617546 0.957897 0.163413
H16   H     H_    0.612069 0.284070 0.905952 0.183558
H17   H     H_    0.617546 0.336683 0.957898 0.163412
H18   H     H_    0.284071 0.612067 0.094049 0.183559
H19   H     H_    0.336681 0.617547 0.042102 0.163413
H20   H     H_    0.387933 0.284070 0.094049 0.183559
H21   H     H_    0.382454 0.336681 0.042103 0.163413
H22   H     H_    0.715930 0.387931 0.094048 0.183558
H23   H     H_    0.808046 0.575351 0.940515 0.148174
H24   H     H_    0.663317 0.382454 0.042102 0.163412
H25   H     H_    0.612067 0.715930 0.094049 0.183559
H26   H     H_    0.617546 0.663319 0.042103 0.163413
H27   H     H_    0.784070 0.887933 0.405950 0.183559
H28   H     H_    0.836681 0.882454 0.457897 0.163413
H29   H     H_    0.887933 0.215929 0.405951 0.183559
H30   H     H_    0.882453 0.163319 0.457898 0.163413
H31   H     H_    0.215930 0.112067 0.405950 0.183559
H32   H     H_    0.163319 0.117546 0.457897 0.163413
H33   H     H_    0.112069 0.784070 0.405952 0.183558
H34   H     H_    0.575351 0.191954 0.940515 0.148174
H35   H     H_    0.117546 0.836683 0.457898 0.163412
H36   H     H_    0.784071 0.112067 0.594049 0.183559
H37   H     H_    0.836681 0.117547 0.542102 0.163413
H38   H     H_    0.887933 0.784070 0.594050 0.183559
H39   H     H_    0.882454 0.836681 0.542103 0.163413
H40   H     H_    0.215929 0.887931 0.594048 0.183558
H41   H     H_    0.163317 0.882454 0.542102 0.163412
H42   H     H_    0.112067 0.215930 0.594050 0.183559
H43   H     H_    0.117546 0.163319 0.542103 0.163413
H44   H     H_    0.191954 0.575351 0.059485 0.148174
H45   H     H_    0.424649 0.191954 0.059485 0.148174
H46   H     H_    0.808046 0.424649 0.059485 0.148174
H47   H     H_    0.575351 0.808046 0.059485 0.148174
H48   H     H_    0.691954 0.924649 0.440515 0.148174
N1    N     N_3   0.314675 0.413736 0.930825 -0.428011
N2    N     N_3   0.913735 0.185324 0.430825 -0.428012
N3    N     N_3   0.185325 0.086264 0.430825 -0.428011
N4    N     N_3   0.086265 0.814675 0.430825 -0.428010
N5    N     N_3   0.814675 0.086265 0.569175 -0.428012
N6    N     N_3   0.913735 0.814675 0.569175 -0.428011
N7    N     N_3   0.185324 0.913735 0.569175 -0.428010
N8    N     N_3   0.086264 0.185325 0.569175 -0.428011
N9    N     N_3   0.413735 0.685324 0.930825 -0.428012
N10   N     N_3   0.685325 0.586264 0.930825 -0.428011
N11   N     N_3   0.586265 0.314675 0.930825 -0.428010
N12   N     N_3   0.314675 0.586265 0.069174 -0.428012
N13   N     N_3   0.413735 0.314675 0.069175 -0.428011
N14   N     N_3   0.685324 0.413735 0.069175 -0.428010
N15   N     N_3   0.586264 0.685325 0.069175 -0.428011
N16   N     N_3   0.814675 0.913736 0.430825 -0.428011
O1    O     O_R   0.091600 0.551710 0.999990 -0.623677
O2    O     O_R   0.051710 0.408400 0.499990 -0.623676
O3    O     O_R   0.408400 0.948290 0.499990 -0.623676
O4    O     O_R   0.948290 0.591600 0.499990 -0.623677
O5    O     O_R   0.591600 0.948290 0.500010 -0.623677
O6    O     O_R   0.051710 0.591600 0.500010 -0.623677
O7    O     O_R   0.408400 0.051710 0.500010 -0.623676
O8    O     O_R   0.948290 0.408400 0.500010 -0.623676
O9    O     O_R   0.999980 0.551710 0.082770 -0.614821
O10   O     O_R   0.551710 0.000020 0.082770 -0.614821
O11   O     O_R   0.000020 0.448290 0.082770 -0.614820
O12   O     O_R   0.551710 0.908400 0.999990 -0.623676
O13   O     O_R   0.448290 0.999980 0.082770 -0.614820
O14   O     O_R   0.999980 0.448290 0.917230 -0.614820
O15   O     O_R   0.551710 0.999980 0.917230 -0.614821
O16   O     O_R   0.000020 0.551710 0.917230 -0.614821
O17   O     O_R   0.448290 0.000020 0.917230 -0.614820
O18   O     O_R   0.499980 0.051710 0.582770 -0.614821
O19   O     O_R   0.051710 0.500020 0.582770 -0.614821
O20   O     O_R   0.500020 0.948290 0.582770 -0.614820
O21   O     O_R   0.948290 0.499980 0.582770 -0.614820
O22   O     O_R   0.499980 0.948290 0.417230 -0.614820
O23   O     O_R   0.908400 0.448290 0.999990 -0.623676
O24   O     O_R   0.051710 0.499980 0.417230 -0.614821
O25   O     O_R   0.500020 0.051710 0.417230 -0.614821
O26   O     O_R   0.948290 0.500020 0.417230 -0.614820
O27   O     O_R   0.499980 0.591700 0.953290 -0.606386
O28   O     O_R   0.591700 0.500020 0.953290 -0.606386
O29   O     O_R   0.500020 0.408300 0.953290 -0.606386
O30   O     O_R   0.408300 0.499980 0.953290 -0.606386
O31   O     O_R   0.499980 0.408300 0.046710 -0.606386
O32   O     O_R   0.591700 0.499980 0.046710 -0.606387
O33   O     O_R   0.500020 0.591700 0.046710 -0.606386
O34   O     O_R   0.448290 0.091600 0.999990 -0.623677
O35   O     O_R   0.408300 0.500020 0.046710 -0.606385
O36   O     O_R   0.999980 0.091700 0.453290 -0.606386
O37   O     O_R   0.091700 0.000020 0.453290 -0.606386
O38   O     O_R   0.000020 0.908300 0.453290 -0.606386
O39   O     O_R   0.908300 0.999980 0.453290 -0.606386
O40   O     O_R   0.999980 0.908300 0.546710 -0.606386
O41   O     O_R   0.091700 0.999980 0.546710 -0.606387
O42   O     O_R   0.000020 0.091700 0.546710 -0.606386
O43   O     O_R   0.908300 0.000020 0.546710 -0.606385
O44   O     O_R   0.091600 0.448290 0.000010 -0.623677
O45   O     O_R   0.551710 0.091600 0.000010 -0.623677
O46   O     O_R   0.908400 0.551710 0.000010 -0.623676
O47   O     O_R   0.448290 0.908400 0.000010 -0.623676
O48   O     O_R   0.591600 0.051710 0.499990 -0.623677
Zn1   Zn    Zn3+2 0.000000 0.569060 0.000000 0.963225
Zn2   Zn    Zn3+2 0.500000 0.500000 0.062400 1.001141
Zn3   Zn    Zn3+2 1.000000 0.000000 0.437600 1.001141
Zn4   Zn    Zn3+2 1.000000 0.000000 0.562400 1.001141
Zn5   Zn    Zn3+2 0.569060 0.000000 0.000000 0.963225
Zn6   Zn    Zn3+2 0.000000 0.430940 0.000000 0.963225
Zn7   Zn    Zn3+2 0.430940 0.000000 0.000000 0.963225
Zn8   Zn    Zn3+2 0.500000 0.069060 0.500000 0.963225
Zn9   Zn    Zn3+2 0.069060 0.500000 0.500000 0.963225
Zn10  Zn    Zn3+2 0.500000 0.930940 0.500000 0.963225
Zn11  Zn    Zn3+2 0.930940 0.500000 0.500000 0.963225
Zn12  Zn    Zn3+2 0.500000 0.500000 0.937600 1.001141

loop_
_geom_bond_atom_site_label_1
_geom_bond_atom_site_label_2
_ccdc_geom_bond_type
C78   C87   S    
C48   N11   S    
C44   N1    S    
C23   C82   S    
C40   C84   A    
O45   Zn5   S    
H29   N2    S    
C18   C26   S    
C39   C87   A    
C40   H5    S    
C2    O10   A    
C35   C81   A    
C79   O43   A    
C31   C80   A    
O24   Zn9   S    
C68   C75   S    
C66   C79   S    
C23   O46   A    
H13   N9    S    
O41   Zn4   S    
O34   Zn7   S    
C29   C47   A    
O29   Zn12  S    
C17   C26   T    
O15   Zn5   S    
H33   N4    S    
O9    Zn1   S    
C31   C49   A    
O2    Zn9   S    
O20   Zn10  S    
O12   Zn5   S    
C9    C88   S    
C32   H45   S    
C73   O31   A    
O38   Zn3   S    
C46   N9    S    
C54   C68   A    
O27   Zn12  S    
C88   O9    A    
C39   C57   A    
C7    O22   A    
C36   H48   S    
C30   C83   A    
C55   N3    S    
O16   Zn1   S    
C7    O25   A    
C69   C76   S    
C67   O3    A    
H41   N7    S    
C37   C85   A    
C71   O27   A    
C4    C13   S    
C34   O34   A    
H25   N15   S    
C36   C53   A    
O28   Zn12  S    
C6    C15   S    
C27   C44   A    
C78   O6    A    
C38   C55   A    
C30   H34   S    
C51   N14   S    
H37   N5    S    
H27   N16   S    
O26   Zn11  S    
C53   N16   S    
C5    O18   A    
C27   H1    S    
C76   O37   A    
C57   C70   A    
H42   N8    S    
C33   C82   A    
C28   H12   S    
O6    Zn9   S    
H11   N9    S    
C47   N10   S    
O5    Zn10  S    
O48   Zn8   S    
O47   Zn7   S    
C79   O39   A    
C21   C22   S    
O4    Zn11  S    
O31   Zn2   S    
H16   N11   S    
O21   Zn11  S    
O39   Zn3   S    
H26   N15   S    
C71   O33   A    
O25   Zn8   S    
C33   H46   S    
H9    N1    S    
H40   N7    S    
C58   C66   A    
C3    O16   A    
O1    Zn1   S    
C6    O19   A    
C41   C87   A    
C11   C20   T    
C40   C58   A    
C4    O17   A    
H10   N1    S    
C42   H7    S    
C43   C85   A    
C20   C24   S    
O7    Zn8   S    
C1    O44   A    
C45   O5    A    
C59   N6    S    
C56   O2    A    
C27   C80   A    
C65   C73   S    
C35   H47   S    
C47   C64   A    
C34   O45   A    
O43   Zn4   S    
C44   C62   A    
C38   H3    S    
H38   N6    S    
O37   Zn3   S    
C49   N12   S    
C45   O48   A    
O32   Zn2   S    
O33   Zn2   S    
H21   N13   S    
O18   Zn8   S    
C31   H44   S    
C12   O12   A    
C73   O29   A    
C3    O14   A    
C61   N8    S    
C41   H6    S    
O35   Zn2   S    
C10   C19   T    
O42   Zn4   S    
O46   Zn1   S    
O30   Zn12  S    
C43   H8    S    
O40   Zn4   S    
H18   N12   S    
C13   C21   T    
H32   N3    S    
C1    O1    A    
C53   C66   A    
O13   Zn7   S    
C2    O13   A    
C72   O32   A    
C5    C14   S    
C55   C69   A    
C42   C86   A    
C37   C54   A    
C37   H2    S    
C7    C16   S    
C38   C86   A    
O10   Zn5   S    
C48   C65   A    
H24   N14   S    
H36   N5    S    
C45   C84   S    
C34   C83   S    
C77   O38   A    
C42   C60   A    
C2    C10   S    
C39   H4    S    
H28   N16   S    
C43   C61   A    
C74   O35   A    
C30   C48   A    
C16   C25   T    
C32   C83   A    
C61   C68   A    
C15   C24   T    
C67   C86   S    
C49   C62   A    
O36   Zn3   S    
C75   O36   A    
C28   C81   A    
O22   Zn10  S    
C77   O40   A    
C29   H23   S    
O3    Zn10  S    
C51   C64   A    
C63   C71   S    
H22   N14   S    
C52   C63   A    
O17   Zn7   S    
C8    O24   A    
C74   O30   A    
C6    O21   A    
C33   C51   A    
C88   O11   A    
O8    Zn11  S    
O11   Zn6   S    
C8    C17   S    
C4    O15   A    
C46   C63   A    
C28   C46   A    
H31   N3    S    
C14   C22   T    
C29   C82   A    
C56   O8    A    
H14   N10   S    
C5    O20   A    
H19   N12   S    
C50   N13   S    
C78   O4    A    
C56   C85   S    
C54   N2    S    
C60   C69   A    
C36   C84   A    
C52   N15   S    
O19   Zn9   S    
H35   N4    S    
C12   O47   A    
C12   C81   S    
C32   C50   A    
C64   C72   S    
O44   Zn6   S    
C19   C25   S    
C50   C65   A    
C60   N7    S    
C3    C11   S    
C76   O41   A    
C59   C70   A    
H20   N13   S    
C75   O42   A    
C8    O26   A    
C9    C18   T    
C23   O23   A    
C57   N4    S    
C41   C59   A    
C35   C52   A    
C1    C80   S    
C72   O28   A    
C62   C74   S    
C67   O7    A    
O14   Zn6   S    
O23   Zn6   S    
H30   N2    S    
H39   N6    S    
C58   N5    S    
H43   N8    S    
H15   N10   S    
C70   C77   S    
H17   N11   S    
