data_mof_unit_pretest_761.cif
_audit_creation_date              2012-12-11T15:22:44-0500
_audit_creation_method            fapswitch 2.2
_symmetry_space_group_name_H-M    P1
_symmetry_Int_Tables_number       1
_space_group_crystal_system       triclinic
_cell_length_a                    22.51532
_cell_length_b                    13.015237
_cell_length_c                    26.998716
_cell_angle_alpha                 90.25266
_cell_angle_beta                  90.61369
_cell_angle_gamma                 90.135105
_cell_volume                      7911.21019672

loop_
_atom_site_label
_atom_site_type_symbol
_atom_type_description
_atom_site_fract_x
_atom_site_fract_y
_atom_site_fract_z
_atom_type_partial_charge
C1    C     C_R   0.720931 0.345046 0.178185 0.534205
C2    C     C_R   0.481307 0.254486 0.897557 -0.138043
C3    C     C_R   0.027898 0.621981 0.559021 -0.135276
C4    C     C_R   0.523950 0.076680 0.400513 -0.073191
C5    C     C_R   0.511378 0.097055 0.610554 -0.129844
C6    C     C_R   0.029843 0.576189 0.401023 -0.070665
C7    C     C_R   0.013469 0.614517 0.609070 -0.133057
C8    C     C_R   0.738645 0.973365 0.375858 0.024529
C9    C     C_R   0.257054 0.947741 0.630094 0.019470
C10   C     C_R   0.238726 0.473246 0.375919 0.022239
C11   C     C_R   0.754922 0.452466 0.628664 0.016564
C12   C     C_R   0.709353 0.885732 0.393473 -0.143821
C13   C     C_R   0.023064 0.754989 0.102483 -0.136527
C14   C     C_R   0.304937 0.894748 0.608503 -0.131257
C15   C     C_R   0.208696 0.386460 0.393774 -0.141530
C16   C     C_R   0.799543 0.395097 0.605258 -0.132408
C17   C     C_R   0.706408 0.868358 0.444469 -0.073905
C18   C     C_R   0.305579 0.874807 0.557846 -0.091031
C19   C     C_R   0.205354 0.369904 0.444838 -0.071318
C20   C     C_R   0.798466 0.381795 0.553809 -0.082396
C21   C     C_R   0.723191 0.946701 0.477760 0.058792
C22   C     C_R   0.261275 0.916682 0.527721 0.057573
C23   C     C_R   0.222208 0.448767 0.477985 0.053366
C24   C     C_R   0.981299 0.754489 0.897560 -0.138091
C25   C     C_R   0.758000 0.438302 0.524880 0.057928
C26   C     C_R   0.746149 0.038391 0.459076 -0.099814
C27   C     C_R   0.213723 0.969240 0.549537 -0.086510
C28   C     C_R   0.245412 0.539943 0.458829 -0.103920
C29   C     C_R   0.714224 0.495780 0.549064 -0.092811
C30   C     C_R   0.764563 0.043301 0.410358 -0.005965
C31   C     C_R   0.206869 0.971799 0.600522 -0.002646
C32   C     C_R   0.264926 0.543084 0.410324 -0.004099
C33   C     C_R   0.706203 0.487407 0.599750 0.000423
C34   C     C_R   0.782258 0.967860 0.553750 -0.133196
C35   C     C_R   0.511533 0.254810 0.051522 0.019055
C36   C     C_R   0.201884 0.872958 0.455711 -0.138022
C37   C     C_R   0.280170 0.473558 0.554774 -0.128210
C38   C     C_R   0.699369 0.437564 0.447545 -0.130855
C39   C     C_R   0.721685 0.351581 0.320671 0.535376
C40   C     C_R   0.278438 0.348575 0.678657 0.541408
C41   C     C_R   0.220770 0.848078 0.321910 0.536471
C42   C     C_R   0.778487 0.848568 0.678633 0.537264
C43   C     C_R   0.793673 0.960609 0.604136 -0.012983
C44   C     C_R   0.188302 0.891925 0.406751 0.002718
C45   C     C_R   0.292060 0.463898 0.605053 -0.010717
C46   C     C_R   0.493209 0.254329 0.948540 0.021840
C47   C     C_R   0.693815 0.447881 0.396950 0.014085
C48   C     C_R   0.704149 0.855293 0.610448 -0.147172
C49   C     C_R   0.293871 0.894230 0.389475 -0.167938
C50   C     C_R   0.204207 0.354453 0.610427 -0.145459
C51   C     C_R   0.796317 0.397364 0.388226 -0.167553
C52   C     C_R   0.688562 0.875468 0.560987 0.055694
C53   C     C_R   0.305314 0.912873 0.440281 0.062844
C54   C     C_R   0.188311 0.375694 0.561181 0.055713
C55   C     C_R   0.806122 0.423526 0.438690 0.054316
C56   C     C_R   0.729809 0.929365 0.531637 -0.003311
C57   C     C_R   0.011520 0.754809 0.051526 0.019044
C58   C     C_R   0.258271 0.897024 0.474034 -0.018367
C59   C     C_R   0.228578 0.432511 0.532134 -0.002681
C60   C     C_R   0.755706 0.431187 0.469908 -0.006716
C61   C     C_R   0.757344 0.893379 0.631689 -0.009352
C62   C     C_R   0.234948 0.883877 0.372366 -0.007040
C63   C     C_R   0.256864 0.393871 0.631940 -0.008276
C64   C     C_R   0.738885 0.403695 0.367629 -0.008411
C65   C     C_R   0.555191 0.158613 0.322107 0.542610
C66   C     C_R   0.445724 0.159133 0.678574 0.543744
C67   C     C_R   0.053956 0.658289 0.321429 0.536756
C68   C     C_R   0.993198 0.754332 0.948544 0.021840
C69   C     C_R   0.944969 0.659177 0.678240 0.539413
C70   C     C_R   0.731531 0.004589 0.323923 0.540117
C71   C     C_R   0.267509 0.999733 0.677797 0.541632
C72   C     C_R   0.231557 0.504542 0.323945 0.539529
C73   C     C_R   0.767276 0.500286 0.677428 0.539643
C74   C     C_R   0.513093 0.069594 0.103650 -0.127963
C75   C     C_R   0.478893 0.068540 0.897922 -0.132549
C76   C     C_R   0.013090 0.569591 0.103651 -0.127944
C77   C     C_R   0.978885 0.568544 0.897924 -0.132601
C78   C     C_R   0.505016 0.066404 0.052229 -0.041118
C79   C     C_R   0.503926 0.160193 0.026070 0.030666
C80   C     C_R   0.489348 0.065568 0.948893 -0.044109
C81   C     C_R   0.005015 0.566400 0.052230 -0.041106
C82   C     C_R   0.989342 0.565571 0.948895 -0.044101
C83   C     C_R   0.490470 0.970836 0.974816 0.021344
C84   C     C_R   0.499471 0.971505 0.026646 0.036375
C85   C     C_R   0.990473 0.470838 0.974815 0.021333
C86   C     C_R   0.999480 0.471501 0.026645 0.036301
C87   C     C_3   0.845832 0.020103 0.627183 -0.233756
C88   C     C_3   0.865682 0.116478 0.598828 -0.329457
C89   C     C_3   0.907369 0.182843 0.630536 -0.450287
C90   C     C_R   0.495928 0.159824 0.974485 0.033899
C91   C     C_3   0.126697 0.931433 0.393096 -0.227952
C92   C     C_3   0.094215 0.984967 0.436005 -0.321520
C93   C     C_3   0.040062 0.043889 0.417990 -0.462850
C94   C     C_3   0.343450 0.523898 0.628925 -0.233900
C95   C     C_3   0.363919 0.620437 0.601227 -0.330489
C96   C     C_3   0.405073 0.685740 0.633928 -0.453786
C97   C     C_3   0.641501 0.509712 0.376725 -0.231658
C98   C     C_3   0.634478 0.612892 0.404025 -0.319429
C99   C     C_3   0.587659 0.680406 0.379118 -0.457344
C100  C     C_2   0.482596 0.871010 0.948074 0.544969
C101  C     C_R   0.003918 0.660192 0.026073 0.030665
C102  C     C_2   0.509088 0.873182 0.053290 0.554258
C103  C     C_2   0.982612 0.371017 0.948067 0.545063
C104  C     C_2   0.009127 0.373175 0.053283 0.554131
C105  C     C_2   0.630065 0.838173 0.541778 0.533472
C106  C     C_2   0.364094 0.953907 0.455997 0.555505
C107  C     C_2   0.130373 0.336555 0.541917 0.540233
C108  C     C_2   0.867113 0.450767 0.456175 0.554561
C109  C     C_3   0.813497 0.118337 0.396436 -0.239999
C110  C     C_3   0.856319 0.149107 0.438755 -0.335962
C111  C     C_3   0.913228 0.194641 0.417932 -0.433647
C112  C     C_R   0.279873 0.343970 0.822399 0.536905
C113  C     C_R   0.995920 0.659826 0.974488 0.033898
C114  C     C_3   0.146630 0.002211 0.620960 -0.244911
C115  C     C_3   0.095768 0.936521 0.598863 -0.309130
C116  C     C_3   0.035755 0.971913 0.618147 -0.449640
C117  C     C_3   0.315671 0.615257 0.396871 -0.236427
C118  C     C_3   0.357900 0.643762 0.440144 -0.330420
C119  C     C_3   0.416257 0.687900 0.421301 -0.434324
C120  C     C_3   0.646692 0.519731 0.620937 -0.237385
C121  C     C_3   0.593951 0.468176 0.593685 -0.304225
C122  C     C_3   0.535010 0.505055 0.614457 -0.449923
C123  C     C_3   0.650555 0.788950 0.970053 -0.257275
C124  C     C_R   0.509822 0.347558 0.025350 -0.138985
C125  C     C_3   0.643214 0.677694 0.951724 -0.296875
C126  C     C_3   0.588543 0.627315 0.974311 -0.439089
C127  C     C_3   0.305968 0.742205 0.017603 -0.241723
C128  C     C_3   0.258720 0.683086 0.986788 -0.298021
C129  C     C_3   0.279503 0.661803 0.934085 -0.438467
C130  C     C_3   0.150568 0.288939 0.970052 -0.257288
C131  C     C_3   0.143210 0.177703 0.951700 -0.296861
C132  C     C_3   0.088541 0.127318 0.974288 -0.439029
C133  C     C_3   0.806046 0.242313 0.017645 -0.241736
C134  C     C_3   0.758821 0.183111 0.986843 -0.298059
C135  C     C_R   0.500143 0.347341 0.974285 -0.144957
C136  C     C_3   0.779602 0.161840 0.934140 -0.438349
C137  C     C_3   0.653407 0.850538 0.861052 -0.258092
C138  C     C_3   0.644380 0.953661 0.834534 -0.302094
C139  C     C_3   0.589976 0.950619 0.800318 -0.427951
C140  C     C_3   0.338693 0.783106 0.126778 -0.244625
C141  C     C_3   0.370974 0.863626 0.159246 -0.281471
C142  C     C_3   0.424795 0.817411 0.185732 -0.440941
C143  C     C_3   0.153421 0.350656 0.861064 -0.258033
C144  C     C_3   0.144422 0.453849 0.834603 -0.302513
C145  C     C_3   0.090019 0.450932 0.800386 -0.427648
C146  C     C_R   0.009805 0.847558 0.025355 -0.138990
C147  C     C_3   0.838746 0.283336 0.126816 -0.244646
C148  C     C_3   0.870952 0.363930 0.159293 -0.282029
C149  C     C_3   0.924831 0.317871 0.185757 -0.440303
C150  C     C_R   0.000128 0.847343 0.974290 -0.144964
C151  C     C_R   0.736797 0.959900 0.129908 0.025404
C152  C     C_R   0.262118 0.964384 0.871148 0.020922
C153  C     C_R   0.236802 0.459893 0.129910 0.025480
C154  C     C_R   0.762123 0.464403 0.871155 0.020832
C155  C     C_R   0.787199 0.906511 0.114415 -0.139858
C156  C     C_R   0.220928 0.845031 0.178180 0.535973
C157  C     C_R   0.205942 0.942109 0.890454 -0.141201
C158  C     C_R   0.287212 0.406519 0.114421 -0.139596
C159  C     C_R   0.705952 0.442094 0.890461 -0.141128
C160  C     C_R   0.791041 0.873582 0.065167 -0.120688
C161  C     C_R   0.200062 0.921388 0.940902 -0.139307
C162  C     C_R   0.291059 0.373579 0.065175 -0.120639
C163  C     C_R   0.700076 0.421376 0.940910 -0.139280
C164  C     C_R   0.745287 0.896796 0.031007 0.007194
C165  C     C_R   0.250035 0.925819 0.972372 0.023237
C166  C     C_R   0.245304 0.396770 0.031012 0.007217
C167  C     C_R   0.779870 0.843973 0.822398 0.537535
C168  C     C_R   0.750046 0.425847 0.972382 0.023216
C169  C     C_R   0.695527 0.951704 0.047061 -0.120672
C170  C     C_R   0.305745 0.949849 0.953094 -0.115776
C171  C     C_R   0.195536 0.451665 0.047063 -0.120630
C172  C     C_R   0.805750 0.449917 0.953104 -0.115773
C173  C     C_R   0.553683 0.157011 0.177637 0.539758
C174  C     C_R   0.445881 0.157228 0.822632 0.536220
C175  C     C_R   0.053681 0.657011 0.177638 0.539456
C176  C     C_R   0.945879 0.657228 0.822633 0.536231
C177  C     C_R   0.690854 0.981199 0.096130 -0.087930
C178  C     C_R   0.472615 0.161454 0.872418 -0.016421
C179  C     C_R   0.311987 0.966648 0.902776 -0.120529
C180  C     C_R   0.190859 0.481171 0.096130 -0.087921
C181  C     C_R   0.811990 0.466710 0.902784 -0.120552
C182  C     C_R   0.704019 0.842016 0.946881 0.009550
C183  C     C_R   0.279141 0.828135 0.048831 0.021920
C184  C     C_R   0.204036 0.342003 0.946886 0.009531
C185  C     C_R   0.779184 0.328229 0.048857 0.021813
C186  C     C_R   0.708522 0.852750 0.894475 0.006355
C187  C     C_R   0.283863 0.828340 0.101213 0.004212
C188  C     C_R   0.208539 0.352761 0.894482 0.006394
C189  C     C_R   0.525857 0.162069 0.128324 -0.019039
C190  C     C_R   0.783894 0.328453 0.101238 0.004478
C191  C     C_R   0.812701 0.900278 0.905258 -0.148531
C192  C     C_R   0.203188 0.952904 0.104372 -0.144873
C193  C     C_R   0.312725 0.400222 0.905264 -0.148491
C194  C     C_R   0.703167 0.452911 0.104378 -0.145029
C195  C     C_R   0.805582 0.905638 0.955917 -0.144600
C196  C     C_R   0.208281 0.968903 0.053885 -0.144536
C197  C     C_R   0.305607 0.405582 0.955924 -0.144597
C198  C     C_R   0.708263 0.468906 0.053891 -0.144564
C199  C     C_R   0.752039 0.876433 0.977436 0.021417
C200  C     C_R   0.972609 0.661457 0.872420 -0.016595
C201  C     C_R   0.245008 0.905899 0.025682 0.024874
C202  C     C_R   0.252060 0.376398 0.977443 0.021423
C203  C     C_R   0.745022 0.405941 0.025695 0.024857
C204  C     C_R   0.765239 0.872172 0.873936 0.020722
C205  C     C_R   0.239144 0.880364 0.128549 0.014726
C206  C     C_R   0.265256 0.372155 0.873942 0.020905
C207  C     C_R   0.739146 0.380414 0.128562 0.015251
C208  C     C_R   0.531752 0.166509 0.372699 0.016752
C209  C     C_R   0.473360 0.171559 0.629980 0.027527
C210  C     C_R   0.026556 0.663414 0.370658 0.015993
C211  C     C_R   0.025850 0.662067 0.128327 -0.019235
C212  C     C_R   0.966249 0.671812 0.627626 0.032006
C213  C     C_R   0.528307 0.262232 0.396603 -0.127126
C214  C     C_R   0.455276 0.254090 0.600086 -0.119719
C215  C     C_R   0.005008 0.755488 0.390535 -0.140565
C216  C     C_R   0.934321 0.737622 0.595986 -0.118609
C217  C     C_R   0.521191 0.267799 0.447858 -0.119388
C218  C     C_R   0.471446 0.258606 0.550644 -0.116949
C219  C     C_R   0.993565 0.763075 0.441320 -0.117125
C220  C     C_R   0.947606 0.743057 0.545940 -0.110347
C221  C     C_R   0.731226 0.001202 0.179822 0.535384
C222  C     C_R   0.523076 0.254991 0.102479 -0.136415
C223  C     C_R   0.268942 0.002977 0.820752 0.537280
C224  C     C_R   0.231226 0.501204 0.179821 0.535743
C225  C     C_R   0.768944 0.502981 0.820754 0.537898
C226  C     C_R   0.516155 0.177477 0.475960 0.026188
C227  C     C_R   0.507063 0.181516 0.530181 0.015727
C228  C     C_R   0.002295 0.677607 0.472379 0.027234
C229  C     C_R   0.993661 0.683534 0.526595 0.013166
C230  C     C_R   0.516441 0.082229 0.451451 -0.071124
C231  C     C_R   0.528975 0.103098 0.561209 -0.133010
C232  C     C_R   0.017692 0.583369 0.451044 -0.072795
Cr1   Cr    Cr6+3 0.756570 0.170940 0.251190 0.989332
Cr2   Cr    Cr6+3 0.374010 0.036240 0.749520 1.012488
Cr3   Cr    Cr6+3 0.125990 0.536240 0.250480 1.022157
Cr4   Cr    Cr6+3 0.874010 0.536240 0.749520 1.015492
Cr5   Cr    Cr6+3 0.243430 0.170940 0.748810 1.001506
Cr6   Cr    Cr6+3 0.256570 0.670940 0.251190 0.990349
Cr7   Cr    Cr6+3 0.743430 0.670940 0.748810 0.998683
Cr8   Cr    Cr6+3 0.623740 0.299110 0.249580 1.002196
Cr9   Cr    Cr6+3 0.376260 0.299110 0.750420 0.999489
Cr10  Cr    Cr6+3 0.123740 0.799110 0.249580 1.001485
Cr11  Cr    Cr6+3 0.876260 0.799110 0.750420 0.998550
Cr12  Cr    Cr6+3 0.625990 0.036240 0.250480 1.020381
H1    H     H_    0.470677 0.997919 0.878077 0.178574
H2    H     H_    0.344406 0.956267 0.977180 0.144381
H3    H     H_    0.600093 0.464338 0.380130 0.140944
H4    H     H_    0.437268 0.737899 0.941083 0.323768
H5    H     H_    0.566053 0.783290 0.091485 0.326545
H6    H     H_    0.937282 0.237916 0.941047 0.323834
H7    H     H_    0.066113 0.283346 0.091494 0.326857
H8    H     H_    0.563006 0.853181 0.492299 0.327993
H9    H     H_    0.411196 0.039732 0.505116 0.338153
H10   H     H_    0.062131 0.352299 0.493800 0.331244
H11   H     H_    0.918775 0.515530 0.509283 0.339440
H12   H     H_    0.937031 0.135395 0.396409 0.134732
H13   H     H_    0.161007 0.474802 0.021195 0.128694
H14   H     H_    0.902978 0.258161 0.392195 0.195710
H15   H     H_    0.942266 0.223095 0.448559 0.173524
H16   H     H_    0.835089 0.206925 0.463169 0.155422
H17   H     H_    0.868487 0.080617 0.461085 0.154782
H18   H     H_    0.841746 0.079823 0.368482 0.177045
H19   H     H_    0.793343 0.188038 0.380199 0.182559
H20   H     H_    0.033885 0.963570 0.659024 0.149320
H21   H     H_    0.028325 0.053472 0.608026 0.171771
H22   H     H_    0.999797 0.924919 0.601063 0.149796
H23   H     H_    0.094301 0.942208 0.557884 0.157079
H24   H     H_    0.844410 0.456371 0.977190 0.144291
H25   H     H_    0.102551 0.854527 0.608811 0.169237
H26   H     H_    0.144743 0.990483 0.661522 0.168744
H27   H     H_    0.138743 0.084738 0.612892 0.195695
H28   H     H_    0.441829 0.626887 0.402232 0.132207
H29   H     H_    0.407678 0.751243 0.394827 0.193471
H30   H     H_    0.443246 0.717646 0.452937 0.168126
H31   H     H_    0.336653 0.701735 0.464454 0.155783
H32   H     H_    0.368421 0.574397 0.462402 0.156854
H33   H     H_    0.343710 0.575419 0.369173 0.174989
H34   H     H_    0.297272 0.686015 0.380268 0.182855
H35   H     H_    0.652267 0.024888 0.107293 0.150987
H36   H     H_    0.531043 0.483121 0.653999 0.146201
H37   H     H_    0.531923 0.589851 0.610998 0.183137
H38   H     H_    0.497659 0.469946 0.593186 0.138909
H39   H     H_    0.594129 0.486608 0.553586 0.161941
H40   H     H_    0.596881 0.383325 0.597687 0.171599
H41   H     H_    0.643008 0.496326 0.660243 0.165840
H42   H     H_    0.642784 0.604647 0.618539 0.193651
H43   H     H_    0.591637 0.628401 0.015392 0.153941
H44   H     H_    0.547674 0.668338 0.962499 0.205454
H45   H     H_    0.585178 0.546360 0.961573 0.126322
H46   H     H_    0.355440 0.987067 0.889071 0.141831
H47   H     H_    0.638758 0.673558 0.910849 0.173188
H48   H     H_    0.683413 0.633475 0.962444 0.175583
H49   H     H_    0.655476 0.783268 0.010790 0.181612
H50   H     H_    0.609913 0.834701 0.963432 0.185318
H51   H     H_    0.284075 0.734848 0.913410 0.174783
H52   H     H_    0.323047 0.621950 0.934757 0.156044
H53   H     H_    0.246445 0.612442 0.914462 0.148381
H54   H     H_    0.249788 0.608750 0.004927 0.167400
H55   H     H_    0.215546 0.723920 0.984895 0.174108
H56   H     H_    0.340046 0.775646 0.993555 0.215249
H57   H     H_    0.152268 0.524851 0.107289 0.150933
H58   H     H_    0.328936 0.683496 0.040281 0.135630
H59   H     H_    0.091650 0.128358 0.015369 0.154006
H60   H     H_    0.047673 0.168368 0.962497 0.205510
H61   H     H_    0.085161 0.046378 0.961530 0.126321
H62   H     H_    0.138739 0.173611 0.910825 0.173233
H63   H     H_    0.183407 0.133461 0.962401 0.175607
H64   H     H_    0.155497 0.283219 0.010787 0.181618
H65   H     H_    0.109932 0.334712 0.963444 0.185291
H66   H     H_    0.784149 0.234885 0.913461 0.174895
H67   H     H_    0.823156 0.122023 0.934808 0.156059
H68   H     H_    0.855439 0.487158 0.889079 0.141746
H69   H     H_    0.746554 0.112450 0.914522 0.148494
H70   H     H_    0.749930 0.108769 0.004992 0.167452
H71   H     H_    0.715627 0.223885 0.984952 0.174132
H72   H     H_    0.840105 0.275784 0.993588 0.215329
H73   H     H_    0.829046 0.183657 0.040334 0.135741
H74   H     H_    0.596047 0.892088 0.770744 0.148001
H75   H     H_    0.549471 0.931841 0.821544 0.194669
H76   H     H_    0.583779 0.026878 0.782740 0.144848
H77   H     H_    0.638366 0.015523 0.862580 0.166490
H78   H     H_    0.683778 0.973039 0.811993 0.159071
H79   H     H_    0.533542 0.332508 0.375943 0.114049
H80   H     H_    0.654949 0.786239 0.834157 0.169263
H81   H     H_    0.613053 0.836316 0.882346 0.199595
H82   H     H_    0.410555 0.754609 0.210716 0.145654
H83   H     H_    0.456847 0.786552 0.158500 0.184388
H84   H     H_    0.447477 0.877719 0.208237 0.147472
H85   H     H_    0.386159 0.928044 0.135538 0.173485
H86   H     H_    0.340918 0.895779 0.187652 0.167718
H87   H     H_    0.327113 0.713613 0.148140 0.186203
H88   H     H_    0.371950 0.757829 0.099583 0.183161
H89   H     H_    0.096081 0.392479 0.770775 0.148685
H90   H     H_    0.425092 0.311707 0.613938 0.126266
H91   H     H_    0.049511 0.432114 0.821600 0.194895
H92   H     H_    0.083836 0.527246 0.782858 0.144346
H93   H     H_    0.138425 0.515649 0.862683 0.166488
H94   H     H_    0.183826 0.473249 0.812074 0.158600
H95   H     H_    0.154945 0.286419 0.834133 0.169285
H96   H     H_    0.113068 0.336412 0.882354 0.199651
H97   H     H_    0.910671 0.254983 0.210721 0.145824
H98   H     H_    0.956913 0.287169 0.158510 0.184592
H99   H     H_    0.947446 0.378228 0.208278 0.148408
H100  H     H_    0.886059 0.428419 0.135595 0.173282
H101  H     H_    0.999770 0.822339 0.367249 0.107125
H102  H     H_    0.840871 0.395955 0.187713 0.167379
H103  H     H_    0.827209 0.213817 0.148178 0.186251
H104  H     H_    0.872028 0.258136 0.099626 0.183202
H105  H     H_    0.513181 0.998923 0.124591 0.168256
H106  H     H_    0.896804 0.781074 0.609493 0.131435
H107  H     H_    0.558097 0.044468 0.546948 0.163126
H108  H     H_    0.510623 0.011444 0.471604 0.147672
H109  H     H_    0.064801 0.577230 0.545422 0.150922
H110  H     H_    0.020716 0.514741 0.473163 0.150688
H111  H     H_    0.526108 0.033079 0.633041 0.126751
H112  H     H_    0.526254 0.001423 0.383356 0.153522
H113  H     H_    0.038529 0.563578 0.633004 0.118262
H114  H     H_    0.044835 0.502800 0.386867 0.153107
H115  H     H_    0.521216 0.342656 0.465503 0.096117
H116  H     H_    0.970667 0.497923 0.878081 0.178563
H117  H     H_    0.453006 0.319258 0.527939 0.106669
H118  H     H_    0.979995 0.836416 0.456391 0.101710
H119  H     H_    0.919759 0.789771 0.522152 0.114728
H120  H     H_    0.690619 0.830057 0.367799 0.111029
H121  H     H_    0.343414 0.873672 0.630370 0.133004
H122  H     H_    0.189667 0.330566 0.368313 0.112707
H123  H     H_    0.836374 0.364530 0.626456 0.126729
H124  H     H_    0.815644 0.002983 0.530994 0.101836
H125  H     H_    0.166370 0.855546 0.481054 0.110542
H126  H     H_    0.312964 0.511475 0.532531 0.102453
H127  H     H_    0.013177 0.498920 0.124593 0.168347
H128  H     H_    0.659303 0.443252 0.469096 0.099157
H129  H     H_    0.690469 0.795269 0.457792 0.132032
H130  H     H_    0.341900 0.831767 0.542016 0.115871
H131  H     H_    0.189156 0.296769 0.458033 0.139265
H132  H     H_    0.831527 0.333471 0.536650 0.114185
H133  H     H_    0.674940 0.807970 0.632449 0.153390
H134  H     H_    0.329749 0.894137 0.363047 0.137544
H135  H     H_    0.175656 0.305090 0.632001 0.156908
H136  H     H_    0.832926 0.376978 0.364517 0.136132
H137  H     H_    0.756974 0.100989 0.484143 0.105461
H138  H     H_    0.856313 0.917011 0.890726 0.136241
H139  H     H_    0.179704 0.003717 0.526521 0.109231
H140  H     H_    0.255733 0.603480 0.483461 0.104615
H141  H     H_    0.683932 0.544198 0.528427 0.112344
H142  H     H_    0.475978 0.326619 0.878086 0.115562
H143  H     H_    0.532786 0.326821 0.121423 0.125892
H144  H     H_    0.975969 0.826622 0.878089 0.115620
H145  H     H_    0.032771 0.826820 0.121427 0.126014
H146  H     H_    0.497928 0.419970 0.954896 0.100862
H147  H     H_    0.515816 0.420358 0.044422 0.109845
H148  H     H_    0.997910 0.919973 0.954902 0.100898
H149  H     H_    0.170212 0.996443 0.124425 0.133221
H150  H     H_    0.015796 0.920358 0.044429 0.109948
H151  H     H_    0.823190 0.890683 0.140178 0.111883
H152  H     H_    0.166828 0.942323 0.866755 0.118160
H153  H     H_    0.323204 0.390710 0.140185 0.112150
H154  H     H_    0.666838 0.442278 0.866761 0.118260
H155  H     H_    0.830216 0.832333 0.053440 0.119035
H156  H     H_    0.156763 0.902826 0.955525 0.114134
H157  H     H_    0.330239 0.332339 0.053452 0.119044
H158  H     H_    0.656780 0.402788 0.955533 0.114154
H159  H     H_    0.842473 0.933142 0.978455 0.116901
H160  H     H_    0.356339 0.416934 0.890731 0.136203
H161  H     H_    0.181699 0.027896 0.036472 0.114796
H162  H     H_    0.342503 0.433071 0.978461 0.116862
H163  H     H_    0.681658 0.527859 0.036471 0.114742
H164  H     H_    0.883564 0.213496 0.663228 0.146972
H165  H     H_    0.945886 0.137182 0.643710 0.154895
H166  H     H_    0.923950 0.248278 0.608286 0.159067
H167  H     H_    0.889939 0.093709 0.564883 0.151208
H168  H     H_    0.826294 0.162977 0.588099 0.164298
H169  H     H_    0.832057 0.046852 0.664507 0.172549
H170  H     H_    0.884680 0.968156 0.631106 0.160291
H171  H     H_    0.670167 0.496411 0.124424 0.132527
H172  H     H_    0.053497 0.107057 0.392909 0.154878
H173  H     H_    0.008644 0.991995 0.398187 0.142827
H174  H     H_    0.017376 0.077569 0.450533 0.154266
H175  H     H_    0.079242 0.927383 0.463409 0.152629
H176  H     H_    0.124606 0.040739 0.454608 0.175491
H177  H     H_    0.131598 0.990496 0.363796 0.172463
H178  H     H_    0.099818 0.867141 0.378352 0.178912
H179  H     H_    0.380206 0.717774 0.665740 0.147058
H180  H     H_    0.442210 0.638786 0.648657 0.153255
H181  H     H_    0.423699 0.749932 0.611981 0.155417
H182  H     H_    0.660998 0.974854 0.021194 0.128709
H183  H     H_    0.388776 0.598070 0.567521 0.151175
H184  H     H_    0.324745 0.667091 0.590240 0.166024
H185  H     H_    0.328726 0.549926 0.666119 0.170051
H186  H     H_    0.382435 0.472603 0.633313 0.160418
H187  H     H_    0.601622 0.701025 0.341093 0.147890
H188  H     H_    0.544455 0.639370 0.377093 0.147680
H189  H     H_    0.581970 0.752237 0.400904 0.165393
H190  H     H_    0.621030 0.600122 0.442992 0.164896
H191  H     H_    0.677736 0.653999 0.404129 0.164895
H192  H     H_    0.648400 0.529949 0.337353 0.178663
O1    O     O_R   0.769900 0.064540 0.196060 -0.528767
O2    O     O_R   0.433710 0.069580 0.694600 -0.512870
O3    O     O_R   0.066290 0.569580 0.305400 -0.519675
O4    O     O_R   0.933710 0.569580 0.694600 -0.507752
O5    O     O_R   0.680760 0.993330 0.302620 -0.494696
O6    O     O_R   0.319240 0.993330 0.697380 -0.501265
O7    O     O_R   0.180760 0.493330 0.302620 -0.495497
O8    O     O_R   0.819240 0.493330 0.697380 -0.496907
O9    O     O_3   0.668770 0.168760 0.250420 -0.235315
O10   O     O_3   0.331230 0.168760 0.749580 -0.233304
O11   O     O_3   0.168770 0.668760 0.250420 -0.236233
O12   O     O_R   0.230100 0.064540 0.803940 -0.523272
O13   O     O_3   0.831230 0.668760 0.749580 -0.234487
O14   O     O_R   0.750800 0.274080 0.199250 -0.508667
O15   O     O_R   0.249200 0.274080 0.800750 -0.504741
O16   O     O_R   0.250800 0.774080 0.199250 -0.508373
O17   O     O_R   0.749200 0.774080 0.800750 -0.504324
O18   O     O_R   0.669990 0.371670 0.194150 -0.522599
O19   O     O_R   0.330010 0.371670 0.805850 -0.526554
O20   O     O_R   0.169990 0.871670 0.194150 -0.519589
O21   O     O_R   0.830010 0.871670 0.805850 -0.525801
O22   O     O_R   0.574600 0.238480 0.197800 -0.500523
O23   O     O_R   0.269900 0.564540 0.196060 -0.529013
O24   O     O_R   0.425400 0.238480 0.802200 -0.500276
O25   O     O_R   0.074600 0.738480 0.197800 -0.500229
O26   O     O_R   0.925400 0.738480 0.802200 -0.499871
O27   O     O_R   0.566130 0.068680 0.194240 -0.522866
O28   O     O_R   0.433870 0.068680 0.805760 -0.533780
O29   O     O_R   0.066130 0.568680 0.194240 -0.522457
O30   O     O_R   0.933870 0.568680 0.805760 -0.533579
O31   O     O_R   0.680610 0.992490 0.199570 -0.496753
O32   O     O_R   0.319390 0.992490 0.800430 -0.505935
O33   O     O_R   0.180610 0.492490 0.199570 -0.495950
O34   O     O_R   0.730100 0.564540 0.803940 -0.522864
O35   O     O_R   0.819390 0.492490 0.800430 -0.505535
O36   O     O_R   0.770060 0.065440 0.307230 -0.539067
O37   O     O_R   0.229940 0.065440 0.692770 -0.528598
O38   O     O_R   0.270060 0.565440 0.307230 -0.537594
O39   O     O_R   0.729940 0.565440 0.692770 -0.531363
O40   O     O_R   0.750960 0.274920 0.302300 -0.510012
O41   O     O_R   0.249040 0.274920 0.697700 -0.500631
O42   O     O_R   0.250960 0.774920 0.302300 -0.508983
O43   O     O_R   0.749040 0.774920 0.697700 -0.501566
O44   O     O_R   0.670160 0.372580 0.305320 -0.529512
O45   O     O_R   0.574760 0.239320 0.300850 -0.502563
O46   O     O_R   0.329840 0.372580 0.694680 -0.536515
O47   O     O_R   0.170160 0.872580 0.305320 -0.532043
O48   O     O_R   0.829840 0.872580 0.694680 -0.537652
O49   O     O_2   0.514174 0.849456 0.913126 -0.606584
O50   O     O_R   0.438466 0.802335 0.962324 -0.699829
O51   O     O_2   0.468399 0.811846 0.057641 -0.526692
O52   O     O_R   0.564756 0.852257 0.074212 -0.742642
O53   O     O_2   0.014205 0.349474 0.913127 -0.606496
O54   O     O_R   0.938472 0.302344 0.962293 -0.699828
O55   O     O_2   0.968473 0.311752 0.057588 -0.526648
O56   O     O_R   0.425240 0.239320 0.699150 -0.508608
O57   O     O_R   0.064790 0.352330 0.074236 -0.742487
O58   O     O_2   0.605726 0.764918 0.561343 -0.573979
O59   O     O_R   0.601863 0.887500 0.502177 -0.735452
O60   O     O_2   0.408028 0.935770 0.431297 -0.581659
O61   O     O_R   0.368908 0.017817 0.497613 -0.690960
O62   O     O_2   0.108167 0.259519 0.559857 -0.566318
O63   O     O_R   0.100270 0.388437 0.504143 -0.736625
O64   O     O_2   0.910110 0.429687 0.430893 -0.572400
O65   O     O_R   0.875424 0.507224 0.499862 -0.693658
O66   O     O_R   0.074760 0.739320 0.300850 -0.510336
O67   O     O_R   0.925240 0.739320 0.699150 -0.510099
O68   O     O_R   0.566290 0.069580 0.305400 -0.521476

loop_
_geom_bond_atom_site_label_1
_geom_bond_atom_site_label_2
_ccdc_geom_bond_type
C93   H172  S    
C21   C26   A    
C72   O7    A    
C34   C56   A    
C101  C113  A    
C24   H144  S    
C132  H61   S    
C114  H27   S    
C115  H23   S    
C7    C212  A    
C105  O59   S    
C137  H80   S    
C185  C190  A    
C65   C208  S    
C54   C107  S    
C194  H171  S    
C65   O68   A    
C96   H181  S    
C102  O51   D    
C147  C190  S    
C143  C144  S    
C29   C33   A    
C111  H12   S    
C166  C202  S    
C140  H87   S    
C3    H109  S    
C110  C111  S    
C79   C90   A    
C127  H56   S    
C146  C150  A    
C53   C106  S    
C91   H177  S    
Cr6   O23   S    
C163  H158  S    
C5    C231  A    
C25   C60   S    
C151  C155  A    
C142  H83   S    
C134  H70   S    
C31   C114  S    
C81   C86   A    
C85   C103  S    
C217  C226  A    
C225  O34   A    
Cr1   O40   S    
Cr2   O32   S    
C100  O50   S    
C1    O14   A    
C153  C180  A    
Cr7   O43   S    
C108  O64   D    
C89   H166  S    
C93   H174  S    
Cr7   O13   S    
C80   C83   A    
C228  C229  S    
C2    H142  S    
C4    C208  A    
C9    C31   A    
C139  H75   S    
C175  O29   A    
C25   C29   A    
C51   C64   A    
C30   C109  S    
C27   C31   A    
C183  C201  A    
C28   C32   A    
C99   H187  S    
C140  C141  S    
C224  O23   A    
C7    H113  S    
C47   C64   A    
C77   H116  S    
C147  H104  S    
C95   H183  S    
C17   C21   A    
C28   H140  S    
C19   C23   A    
C110  H16   S    
C116  H20   S    
C126  H45   S    
C222  H143  S    
C16   C20   A    
C167  C204  S    
C217  H115  S    
C46   C90   A    
C88   H168  S    
C131  H62   S    
C83   C100  S    
C138  H78   S    
C216  H106  S    
C36   C44   A    
C37   C45   A    
C160  C164  A    
C43   C61   A    
C137  C186  S    
Cr11  O26   S    
Cr3   O11   S    
H10   O63   S    
C152  C157  A    
C35   C124  A    
C49   C62   A    
C124  C135  A    
C140  C187  S    
C182  C199  A    
C5    H111  S    
C144  C145  S    
H7    O57   S    
C122  H36   S    
C22   C58   S    
Cr12  O9    S    
C136  H69   S    
C82   C85   A    
Cr7   O34   S    
Cr8   O22   S    
C92   H176  S    
C130  C131  S    
C133  H73   S    
C172  H24   S    
C106  O60   D    
C15   H122  S    
C156  O20   A    
C77   C82   A    
C49   C53   A    
C36   H125  S    
C129  H53   S    
Cr4   O8    S    
C51   C55   A    
Cr2   O28   S    
C104  O57   S    
C122  H37   S    
C210  C215  A    
C48   C52   A    
C88   C89   S    
C24   C200  A    
C98   C99   S    
C181  H68   S    
C170  H2    S    
C133  H72   S    
C109  H18   S    
C108  O65   S    
C161  C165  A    
Cr12  O68   S    
C218  H117  S    
C158  C162  A    
C227  C231  A    
H9    O61   S    
C208  C213  A    
H11   O65   S    
C53   C58   A    
C6    C232  A    
C84   C102  S    
C192  C205  A    
C147  C148  S    
C32   C117  S    
C86   C104  S    
C128  C129  S    
C118  H32   S    
C97   C98   S    
C167  O17   A    
C96   H179  S    
C173  O27   A    
H5    O52   S    
C81   C101  A    
C85   C86   A    
C120  H42   S    
C194  C207  A    
Cr8   O44   S    
C220  C229  A    
C94   H186  S    
Cr8   O18   S    
Cr11  O67   S    
C192  H149  S    
C151  C177  A    
C13   C57   A    
C129  H51   S    
C42   O43   A    
Cr1   O9    S    
Cr2   O6    S    
C135  H146  S    
C153  C158  A    
C172  C181  A    
C50   H135  S    
C1    O18   A    
C150  H148  S    
C132  H59   S    
C143  H96   S    
C175  C211  S    
C219  C228  A    
C111  H14   S    
C71   O37   A    
C164  C199  S    
C133  C185  S    
C70   O36   A    
Cr9   O19   S    
C193  H160  S    
C50   C63   A    
C214  H90   S    
C169  C177  A    
H6    O54   S    
C195  C199  A    
C54   C59   A    
C167  O21   A    
C69   O4    A    
C11   C33   A    
C153  C224  S    
C214  C218  A    
C91   C92   S    
C189  C222  A    
C98   H191  S    
C226  C230  A    
C99   H189  S    
C41   O47   A    
C117  H34   S    
Cr3   O29   S    
C169  H182  S    
C83   C84   A    
C219  H118  S    
C8    C12   A    
C187  C205  A    
C38   C47   A    
Cr11  O48   S    
C125  H47   S    
C23   C28   A    
Cr7   O17   S    
C97   H3    S    
C37   C59   A    
C38   C60   A    
C121  H40   S    
C52   C105  S    
C26   C30   A    
C132  H60   S    
Cr6   O38   S    
C67   O66   A    
C149  H97   S    
C152  C223  S    
C123  H49   S    
C120  C121  S    
C231  H107  S    
C131  H63   S    
C70   O5    A    
C18   C22   A    
C145  H92   S    
C34   C43   A    
C216  C220  A    
C82   C113  A    
C130  H64   S    
Cr3   O33   S    
C162  H157  S    
Cr9   O56   S    
C105  O58   D    
C115  H25   S    
C107  O62   D    
C114  C115  S    
C57   C101  A    
C18   H130  S    
C112  O19   A    
C8    C70   S    
C47   C97   S    
C55   C108  S    
C163  C168  A    
Cr10  O47   S    
C154  C159  A    
C117  C118  S    
C119  H30   S    
C174  O28   A    
Cr9   O10   S    
C194  C198  A    
C158  H153  S    
C223  O32   A    
C35   C79   A    
C140  H88   S    
C77   C200  A    
C191  C195  A    
C68   C150  A    
Cr3   O7    S    
C39   O40   A    
C33   C120  S    
C226  C227  S    
C160  H155  S    
C196  H161  S    
C2    C178  A    
C196  C201  A    
C55   C60   A    
C142  H84   S    
C134  H71   S    
C66   O56   A    
C10   C72   S    
C221  O31   A    
C87   C88   S    
C38   H128  S    
C143  C188  S    
C13   C211  A    
C89   H165  S    
C93   H173  S    
C3    C229  A    
C127  H58   S    
Cr11  O13   S    
Cr10  O20   S    
C15   C19   A    
C39   C64   S    
C188  C206  A    
C50   C54   A    
C40   C63   S    
C148  H100  S    
C144  H93   S    
C103  O54   S    
C3    C7    A    
C4    H112  S    
C161  H156  S    
Cr1   O14   S    
C123  C125  S    
C191  H138  S    
C147  H103  S    
C20   C25   A    
C71   O6    A    
C154  C181  A    
C141  H86   S    
C179  H46   S    
C182  C186  A    
H4    O50   S    
C165  C201  S    
C110  H17   S    
C46   C135  A    
C162  C166  A    
Cr3   O3    S    
C12   C17   A    
C149  H99   S    
C42   O48   A    
C174  C178  S    
C87   H170  S    
C68   C113  A    
C57   C146  A    
Cr6   O16   S    
C41   C62   S    
C176  C200  S    
C49   H134  S    
C114  H26   S    
C111  H15   S    
C176  O30   A    
C195  H159  S    
Cr2   O10   S    
C171  H13   S    
Cr5   O41   S    
C11   C73   S    
C35   C222  A    
C157  H152  S    
Cr8   O45   S    
C154  C225  S    
C180  H57   S    
C151  C221  S    
C16   H123  S    
Cr6   O42   S    
C14   H121  S    
C23   C59   S    
C9    C14   A    
C183  C187  A    
C74   C189  A    
C34   H124  S    
C11   C16   A    
C91   H178  S    
C192  C196  A    
Cr10  O25   S    
C159  H154  S    
C230  H108  S    
C69   C212  S    
C232  H110  S    
C156  C205  S    
C142  H82   S    
C121  C122  S    
C44   C91   S    
C67   O3    A    
C136  H67   S    
C100  O49   D    
C125  C126  S    
Cr8   O9    S    
Cr12  O27   S    
C191  C204  A    
C127  C128  S    
C157  C161  A    
C218  C227  A    
C228  C232  A    
C5    C209  A    
C73   O39   A    
C128  H55   S    
C139  H76   S    
C176  O26   A    
C165  C170  A    
C143  H95   S    
Cr1   O1    S    
Cr4   O13   S    
C148  H102  S    
C69   O67   A    
C104  O55   D    
C99   H188  S    
C9    C71   S    
C21   C56   S    
C96   H180  S    
Cr10  O11   S    
C137  H81   S    
C95   H184  S    
C170  C179  A    
C36   C58   A    
C116  H22   S    
C209  C214  A    
C197  C202  A    
C8    C30   A    
C185  C203  A    
C152  C179  A    
C145  H89   S    
C126  H44   S    
C66   O2    A    
C112  C206  S    
C130  C184  S    
C109  C110  S    
C74   H105  S    
C107  O63   S    
C87   H169  S    
C197  H162  S    
C92   C93   S    
C94   C95   S    
C138  C139  S    
C24   C68   A    
C88   H167  S    
C168  C172  A    
C74   C78   A    
C138  H77   S    
C198  C203  A    
C12   H120  S    
C175  O25   A    
C213  H79   S    
C37   H126  S    
C115  C116  S    
C102  O52   S    
C112  O15   A    
C127  C183  S    
C14   C18   A    
C95   C96   S    
C174  O24   A    
C65   O45   A    
Cr1   O36   S    
C2    C46   A    
C119  H28   S    
Cr7   O39   S    
C92   H175  S    
C123  C182  S    
C215  C219  A    
C10   C15   A    
C39   O44   A    
Cr4   O4    S    
C106  O61   S    
C20   H132  S    
C73   O8    A    
C67   C210  S    
H8    O59   S    
C75   C178  A    
C118  C119  S    
C117  H33   S    
C124  H147  S    
C13   H145  S    
C155  H151  S    
C224  O33   A    
C212  C216  A    
C109  H19   S    
C72   O38   A    
C75   C80   A    
C75   H1    S    
Cr5   O10   S    
C139  H74   S    
C166  C171  A    
C126  H43   S    
C164  C169  A    
C223  O12   A    
C45   C94   S    
C118  H31   S    
C6    H114  S    
C40   O46   A    
C120  H41   S    
C184  C202  A    
C94   H185  S    
C145  H91   S    
C148  C149  S    
C116  H21   S    
C213  C217  A    
C78   C79   A    
C134  C136  S    
C129  H52   S    
C44   C62   A    
C45   C63   A    
C198  H163  S    
C184  C188  A    
C4    C230  A    
Cr4   O30   S    
C10   C32   A    
C119  H29   S    
C122  H38   S    
Cr12  O5    S    
C190  C207  A    
C186  C204  A    
C66   C209  S    
C42   C61   S    
Cr9   O46   S    
Cr10  O66   S    
Cr11  O21   S    
C76   C211  A    
C156  O16   A    
Cr5   O15   S    
C159  C163  A    
C171  C180  A    
Cr4   O35   S    
Cr5   O37   S    
C76   H127  S    
C225  O35   A    
C136  H66   S    
C193  C206  A    
C155  C160  A    
C27   H139  S    
C89   H164  S    
C29   H141  S    
C76   C81   A    
C128  H54   S    
C6    C210  A    
C98   H190  S    
C121  H39   S    
C137  C138  S    
C40   O41   A    
C220  H119  S    
C41   O42   A    
C168  C203  S    
C17   H129  S    
C22   C27   A    
C43   C87   S    
C144  H94   S    
C19   H131  S    
C103  O53   D    
C141  C142  S    
C51   H136  S    
C48   C61   A    
C133  C134  S    
C221  O1    A    
C193  C197  A    
C173  C189  S    
C141  H85   S    
Cr12  O31   S    
C215  H101  S    
C80   C90   A    
C131  C132  S    
C1    C207  S    
C125  H48   S    
C177  H35   S    
Cr5   O12   S    
C78   C84   A    
Cr6   O11   S    
Cr9   O24   S    
C48   H133  S    
C146  H150  S    
C149  H98   S    
Cr2   O2    S    
C97   H192  S    
C123  H50   S    
C26   H137  S    
C52   C56   A    
C173  O22   A    
C130  H65   S    
