data_mof_unit_pretest_38.cif
_audit_creation_date              2012-12-11T15:35:22-0500
_audit_creation_method            fapswitch 2.2
_symmetry_space_group_name_H-M    P1
_symmetry_Int_Tables_number       1
_space_group_crystal_system       triclinic
_cell_length_a                    17.362817
_cell_length_b                    24.23294
_cell_length_c                    14.906878
_cell_angle_alpha                 90.290039
_cell_angle_beta                  124.957543
_cell_angle_gamma                 89.491074
_cell_volume                      5140.26537441

loop_
_atom_site_label
_atom_site_type_symbol
_atom_type_description
_atom_site_fract_x
_atom_site_fract_y
_atom_site_fract_z
_atom_type_partial_charge
C1    C     C_R   0.350063 0.151886 0.907451 -0.126899
C2    C     C_R   0.313663 0.870227 0.908480 -0.113969
C3    C     C_R   0.850063 0.651886 0.907452 -0.126898
C4    C     C_R   0.813663 0.370227 0.908480 -0.113970
C5    C     C_R   0.650510 0.150210 0.092823 -0.111328
C6    C     C_R   0.690347 0.877871 0.092059 -0.091900
C7    C     C_R   0.150510 0.650210 0.092823 -0.111328
C8    C     C_R   0.190347 0.377872 0.092058 -0.091899
C9    C     C_R   0.599982 0.875927 0.909302 -0.120775
C10   C     C_R   0.559615 0.152186 0.910798 -0.117386
C11   C     C_R   0.099982 0.375927 0.909302 -0.120774
C12   C     C_R   0.059615 0.652185 0.910798 -0.117386
C13   C     C_R   0.434234 0.000811 0.632818 0.049557
C14   C     C_R   0.934234 0.500811 0.632818 0.049557
C15   C     C_R   0.789386 0.000476 0.374802 -0.083946
C16   C     C_R   0.289390 0.500477 0.374800 -0.083963
C17   C     C_R   0.621137 0.182897 0.003236 0.032938
C18   C     C_R   0.689796 0.864423 0.001210 0.020492
C19   C     C_R   0.121137 0.682897 0.003236 0.032937
C20   C     C_R   0.189796 0.364423 0.001209 0.020490
C21   C     C_3   0.027866 0.963591 0.641791 -0.434256
C22   C     C_3   0.032191 0.061455 0.590603 -0.447172
C23   C     C_3   0.527867 0.463608 0.641804 -0.434236
C24   C     C_3   0.532199 0.561461 0.590565 -0.447171
C25   C     C_3   0.920906 0.961800 0.556791 -0.348998
C26   C     C_3   0.925732 0.060325 0.509698 -0.337971
C27   C     C_3   0.420905 0.461821 0.556813 -0.349010
C28   C     C_3   0.425741 0.560332 0.509660 -0.337996
C29   C     C_3   0.049508 0.983498 0.490840 -0.388157
C30   C     C_3   0.549508 0.483480 0.490842 -0.388173
C31   C     C_3   0.073217 0.002832 0.602729 0.401745
C32   C     C_3   0.573220 0.502833 0.602721 0.401748
C33   C     C_3   0.891999 0.001422 0.460954 0.355864
C34   C     C_3   0.392001 0.501424 0.460950 0.355888
C35   C     C_R   0.407989 0.867128 0.091325 -0.118308
C36   C     C_R   0.444605 0.153659 0.089629 -0.141013
C37   C     C_R   0.907989 0.367128 0.091325 -0.118309
C38   C     C_R   0.944605 0.653659 0.089630 -0.141014
C39   C     C_3   0.943064 0.983641 0.406852 -0.416405
C40   C     C_3   0.443065 0.483619 0.406858 -0.416388
C41   C     C_R   0.156498 0.814748 0.908773 0.033396
C42   C     C_R   0.303277 0.275685 0.903444 0.030395
C43   C     C_R   0.656498 0.314748 0.908773 0.033396
C44   C     C_R   0.803279 0.775686 0.903446 0.030394
C45   C     C_R   0.607563 0.270216 0.910532 -0.216474
C46   C     C_R   0.753976 0.820854 0.905745 -0.214679
C47   C     C_R   0.107563 0.770216 0.910532 -0.216475
C48   C     C_R   0.253974 0.320853 0.905743 -0.214677
C49   C     C_R   0.646436 0.240150 0.007256 0.133957
C50   C     C_R   0.764917 0.835207 0.003475 0.133776
C51   C     C_R   0.146436 0.740150 0.007255 0.133957
C52   C     C_R   0.264917 0.335207 0.003474 0.133776
C53   C     C_R   0.720468 0.262422 0.106401 -0.163545
C54   C     C_R   0.839670 0.812524 0.102060 -0.163540
C55   C     C_R   0.220467 0.762422 0.106400 -0.163545
C56   C     C_R   0.339671 0.312525 0.102059 -0.163540
C57   C     C_R   0.269657 0.806136 0.104983 -0.196681
C58   C     C_R   0.386917 0.266979 0.100217 -0.189559
C59   C     C_R   0.769657 0.306136 0.104983 -0.196681
C60   C     C_R   0.886916 0.766978 0.100219 -0.189560
C61   C     C_R   0.245638 0.827041 0.004441 0.127087
C62   C     C_R   0.361307 0.244248 0.999906 0.121911
C63   C     C_R   0.745638 0.327041 0.004441 0.127087
C64   C     C_R   0.861307 0.744247 0.999907 0.121913
C65   C     C_R   0.389905 0.952154 0.463723 -0.168389
C66   C     C_R   0.394991 0.052106 0.468982 -0.166379
C67   C     C_R   0.889904 0.452154 0.463723 -0.168390
C68   C     C_R   0.894991 0.552106 0.468982 -0.166379
C69   C     C_R   0.395585 0.952533 0.374999 -0.158157
C70   C     C_R   0.401525 0.052425 0.381015 -0.152042
C71   C     C_R   0.895585 0.452533 0.374999 -0.158158
C72   C     C_R   0.901525 0.552425 0.381015 -0.152044
C73   C     C_R   0.413047 0.002378 0.342657 0.144528
C74   C     C_R   0.913047 0.502378 0.342657 0.144528
C75   C     C_R   0.483123 0.047026 0.251859 -0.045556
C76   C     C_R   0.491628 0.955530 0.262726 -0.071155
C77   C     C_R   0.983123 0.547026 0.251859 -0.045559
C78   C     C_R   0.991628 0.455531 0.262726 -0.071168
C79   C     C_R   0.400396 0.001742 0.518229 0.132521
C80   C     C_R   0.900396 0.501742 0.518229 0.132521
C81   C     C_R   0.230671 0.954990 0.718179 -0.142636
C82   C     C_R   0.231680 0.047988 0.726303 -0.142999
C83   C     C_R   0.730672 0.454990 0.718176 -0.142639
C84   C     C_R   0.731682 0.547988 0.726298 -0.142999
C85   C     C_R   0.383318 0.185556 0.998076 0.049884
C86   C     C_R   0.318303 0.854812 0.000932 0.038541
C87   C     C_R   0.883318 0.685556 0.998077 0.049884
C88   C     C_R   0.818303 0.354812 0.000932 0.038543
C89   C     C_R   0.457798 0.001704 0.284959 -0.015014
C90   C     C_R   0.957798 0.501704 0.284959 -0.015007
C91   C     C_R   0.175180 0.002208 0.681200 0.006564
C92   C     C_R   0.675182 0.502209 0.681193 0.006564
C93   C     C_R   0.451922 0.046181 0.697797 -0.117614
C94   C     C_R   0.450010 0.954790 0.695758 -0.141249
C95   C     C_R   0.951922 0.546181 0.697797 -0.117613
C96   C     C_R   0.950010 0.454790 0.695758 -0.141248
C97   C     C_R   0.746309 0.954416 0.309098 0.226960
C98   C     C_R   0.744261 0.046050 0.308754 0.229898
C99   C     C_R   0.246311 0.454417 0.309098 0.226969
C100  C     C_R   0.244261 0.546050 0.308753 0.229902
H1    H     H_    0.309106 0.163783 0.822649 0.104886
H2    H     H_    0.260260 0.860169 0.825001 0.106807
H3    H     H_    0.809106 0.663783 0.822650 0.104885
H4    H     H_    0.760259 0.360170 0.825001 0.106807
H5    H     H_    0.044134 0.977589 0.722133 0.170285
H6    H     H_    0.050870 0.076991 0.671168 0.167831
H7    H     H_    0.544143 0.477617 0.722145 0.170280
H8    H     H_    0.550877 0.577010 0.671122 0.167827
H9    H     H_    0.884133 0.973375 0.595545 0.174750
H10   H     H_    0.892795 0.073532 0.552107 0.202967
H11   H     H_    0.384140 0.473418 0.595567 0.174737
H12   H     H_    0.392807 0.573556 0.552064 0.202984
H13   H     H_    0.902642 0.918700 0.528060 0.209236
H14   H     H_    0.906864 0.090685 0.444273 0.187183
H15   H     H_    0.402626 0.418717 0.528109 0.209240
H16   H     H_    0.406874 0.590680 0.444217 0.187165
H17   H     H_    0.077466 0.941104 0.497194 0.155730
H18   H     H_    0.082535 0.011261 0.462812 0.160214
H19   H     H_    0.577468 0.441084 0.497216 0.155727
H20   H     H_    0.582533 0.511234 0.462796 0.160219
H21   H     H_    0.921273 0.941510 0.371168 0.172305
H22   H     H_    0.924075 0.012334 0.338837 0.158797
H23   H     H_    0.421275 0.441482 0.371207 0.172332
H24   H     H_    0.424073 0.512296 0.338821 0.158787
H25   H     H_    0.543728 0.257207 0.834863 0.115065
H26   H     H_    0.702590 0.841646 0.829827 0.116802
H27   H     H_    0.043728 0.757207 0.834862 0.115064
H28   H     H_    0.202587 0.341645 0.829824 0.116801
H29   H     H_    0.747855 0.243029 0.184367 0.124633
H30   H     H_    0.855183 0.825129 0.180377 0.120842
H31   H     H_    0.247855 0.743029 0.184367 0.124635
H32   H     H_    0.355185 0.325131 0.180376 0.120845
H33   H     H_    0.331524 0.819036 0.182386 0.114755
H34   H     H_    0.435983 0.246841 0.177511 0.123850
H35   H     H_    0.831525 0.319036 0.182386 0.114755
H36   H     H_    0.935980 0.746840 0.177512 0.123849
H37   H     H_    0.387307 0.912695 0.495311 0.111224
H38   H     H_    0.396434 0.091366 0.504527 0.112462
H39   H     H_    0.887306 0.412695 0.495311 0.111224
H40   H     H_    0.896434 0.591366 0.504527 0.112462
H41   H     H_    0.440725 0.853063 0.173730 0.100015
H42   H     H_    0.493174 0.168053 0.172486 0.125857
H43   H     H_    0.940725 0.353064 0.173730 0.100013
H44   H     H_    0.993175 0.668053 0.172486 0.125856
H45   H     H_    0.396046 0.913403 0.340085 0.105723
H46   H     H_    0.407778 0.091819 0.352155 0.113241
H47   H     H_    0.896046 0.413403 0.340085 0.105723
H48   H     H_    0.907778 0.591819 0.352155 0.113240
H49   H     H_    0.471510 0.090131 0.259071 0.102097
H50   H     H_    0.496395 0.914358 0.291791 0.104513
H51   H     H_    0.971510 0.590131 0.259071 0.102096
H52   H     H_    0.996395 0.414358 0.291791 0.104509
H53   H     H_    0.209068 0.913532 0.687702 0.086903
H54   H     H_    0.212969 0.091145 0.710020 0.093989
H55   H     H_    0.709068 0.413532 0.687702 0.086904
H56   H     H_    0.712971 0.591146 0.710014 0.093989
H57   H     H_    0.435872 0.088895 0.673028 0.086426
H58   H     H_    0.431708 0.912633 0.667985 0.090216
H59   H     H_    0.935872 0.588895 0.673028 0.086426
H60   H     H_    0.931708 0.412633 0.667985 0.090216
H61   H     H_    0.689095 0.163087 0.176962 0.148917
H62   H     H_    0.748637 0.875240 0.176777 0.132919
H63   H     H_    0.189095 0.663088 0.176961 0.148918
H64   H     H_    0.248638 0.375241 0.176776 0.132926
H65   H     H_    0.573871 0.870369 0.824474 0.100185
H66   H     H_    0.515268 0.166433 0.827106 0.090640
H67   H     H_    0.073870 0.370369 0.824473 0.100184
H68   H     H_    0.015268 0.666433 0.827105 0.090639
H69   H     H_    0.056680 0.921151 0.652868 0.158790
H70   H     H_    0.061139 0.090631 0.559670 0.158980
H71   H     H_    0.556674 0.421165 0.652893 0.158797
H72   H     H_    0.561152 0.590625 0.559620 0.158983
N1    N     N_R   0.392140 0.102630 0.941800 -0.045338
N2    N     N_R   0.392140 0.897370 0.941800 -0.047969
N3    N     N_R   0.892140 0.602630 0.941800 -0.045338
N4    N     N_R   0.892140 0.397370 0.941800 -0.047968
N5    N     N_R   0.450890 0.896450 0.057150 -0.034546
N6    N     N_R   0.450890 0.103550 0.057150 -0.038823
N7    N     N_R   0.950890 0.396450 0.057150 -0.034548
N8    N     N_R   0.950890 0.603550 0.057150 -0.038822
N9    N     N_R   0.525160 0.027960 0.206160 -0.029709
N10   N     N_R   0.525160 0.972040 0.206160 -0.032148
N11   N     N_R   0.025160 0.527960 0.206160 -0.029710
N12   N     N_R   0.025160 0.472040 0.206160 -0.032151
N13   N     N_R   0.317870 0.971120 0.792790 -0.034995
N14   N     N_R   0.317870 0.028880 0.792790 -0.036305
N15   N     N_R   0.817870 0.471120 0.792790 -0.034995
N16   N     N_R   0.817870 0.528880 0.792790 -0.036304
N17   N     N_R   0.473480 0.027920 0.793480 -0.041909
N18   N     N_R   0.473480 0.972080 0.793480 -0.041944
N19   N     N_R   0.973480 0.527920 0.793480 -0.041909
N20   N     N_R   0.973480 0.472080 0.793480 -0.041944
N21   N     N_R   0.681610 0.971120 0.207570 -0.084171
N22   N     N_R   0.681610 0.028880 0.207570 -0.080297
N23   N     N_R   0.181610 0.471120 0.207570 -0.084173
N24   N     N_R   0.181610 0.528880 0.207570 -0.080299
N25   N     N_R   0.605410 0.102620 0.056870 -0.035637
N26   N     N_R   0.605410 0.897380 0.056870 -0.030375
N27   N     N_R   0.105410 0.602620 0.056870 -0.035637
N28   N     N_R   0.105410 0.397380 0.056870 -0.030377
N29   N     N_R   0.549680 0.896430 0.944180 -0.047098
N30   N     N_R   0.549680 0.103570 0.944180 -0.044652
N31   N     N_R   0.049680 0.396430 0.944180 -0.047098
N32   N     N_R   0.049680 0.603570 0.944180 -0.044651
Ni1   Ni    Ni4+2 0.433410 0.064680 0.868830 0.202483
Ni2   Ni    Ni4+2 0.433410 0.935320 0.868830 0.209970
Ni3   Ni    Ni4+2 0.933410 0.564680 0.868830 0.202483
Ni4   Ni    Ni4+2 0.933410 0.435320 0.868830 0.209971
Ni5   Ni    Ni4+2 0.565650 0.934380 0.131170 0.273711
Ni6   Ni    Ni4+2 0.565650 0.065620 0.131170 0.255215
Ni7   Ni    Ni4+2 0.065650 0.434380 0.131170 0.273708
Ni8   Ni    Ni4+2 0.065650 0.565620 0.131170 0.255214
N33   N     N_3   0.116400 0.845904 0.810166 -0.233802
H73   H     H_    0.052155 0.862152 0.789461 0.116163
H74   H     H_    0.102460 0.818873 0.747663 0.098224
N34   N     N_3   0.291744 0.261530 0.803134 -0.230733
H75   H     H_    0.312680 0.295270 0.778705 0.119099
H76   H     H_    0.220230 0.255091 0.743427 0.100783
N35   N     N_3   0.616400 0.345905 0.810167 -0.233803
H77   H     H_    0.552155 0.362152 0.789463 0.116161
H78   H     H_    0.602459 0.318873 0.747663 0.098226
N36   N     N_3   0.791749 0.761532 0.803137 -0.230733
H79   H     H_    0.812688 0.795272 0.778712 0.119099
H80   H     H_    0.720235 0.755094 0.743427 0.100784
Br1   Br    Br    0.736768 0.883756 0.359097 -0.651643
Br2   Br    Br    0.718679 0.111638 0.360757 -0.669443
Br3   Br    Br    0.236788 0.383753 0.359100 -0.651648
Br4   Br    Br    0.218683 0.611639 0.360757 -0.669443

loop_
_geom_bond_atom_site_label_1
_geom_bond_atom_site_label_2
_ccdc_geom_bond_type
C68   C80   A    
C38   C87   A    
C97   Br1   S    
C13   C79   S    
N16   Ni3   S    
C58   C62   A    
C65   C79   A    
N7    Ni7   S    
C63   C88   S    
C98   N22   A    
C69   H45   S    
C37   C88   A    
C71   H47   S    
C41   C61   A    
C83   N15   A    
C77   H51   S    
C24   C32   S    
C53   C59   A    
C43   C63   A    
C94   N18   A    
C54   C60   A    
N33   H73   S    
C78   C90   A    
C83   C92   A    
C21   C31   S    
C1    N1    A    
C50   C54   A    
C39   H22   S    
C30   H20   S    
C82   N14   A    
C3    C87   A    
C34   C40   S    
N1    N6    A    
C29   C31   S    
N34   H76   S    
C35   C86   A    
C21   H69   S    
C47   H27   S    
C83   H55   S    
C30   H19   S    
C2    H2    S    
C10   C17   A    
N5    Ni5   S    
C81   C91   A    
C99   N23   A    
C81   H53   S    
C56   H32   S    
N6    Ni6   S    
C100  Br4   S    
N27   Ni8   S    
C53   H29   S    
C97   N21   A    
N8    Ni8   S    
N26   Ni5   S    
C36   H42   S    
N25   Ni6   S    
C28   H16   S    
C16   C34   S    
N18   Ni2   S    
N4    N7    A    
C27   H15   S    
N3    Ni3   S    
C6    H62   S    
C45   H25   S    
N30   Ni1   S    
N15   Ni4   S    
C96   N20   A    
N29   Ni2   S    
C69   C73   A    
C70   H46   S    
C23   C27   S    
C67   H39   S    
C26   H10   S    
C64   C87   S    
C51   C55   A    
C95   N19   A    
C76   C89   A    
C65   H37   S    
C100  N24   A    
C27   H11   S    
C94   H58   S    
C11   H67   S    
N20   Ni4   S    
C57   H33   S    
N17   N18   A    
C15   C97   A    
C84   N16   A    
C54   H30   S    
C14   C96   A    
C44   C46   A    
C35   N5    A    
N33   H74   S    
C27   C34   S    
C1    C85   A    
C6    C18   A    
C62   C85   S    
C77   C90   A    
N28   Ni7   S    
C38   N8    A    
C22   C31   S    
C78   H52   S    
N19   N20   A    
C36   N6    A    
N34   H75   S    
C72   C74   A    
C8    H64   S    
C17   C49   S    
N22   Ni6   S    
C6    N26   A    
C16   C100  A    
C47   C51   A    
C32   C92   S    
N11   Ni8   S    
C72   H48   S    
C29   H17   S    
C11   C20   A    
N10   Ni5   S    
C58   H34   S    
C82   C91   A    
C13   C93   A    
N9    Ni6   S    
N24   Ni8   S    
N9    N10   A    
C42   C48   A    
N36   H80   S    
N11   N12   A    
C26   H14   S    
N23   Ni7   S    
C66   C79   A    
C25   H13   S    
N35   H78   S    
C33   C39   S    
C26   C33   S    
N21   Ni5   S    
C66   H38   S    
N32   Ni3   S    
C76   H50   S    
C68   C72   A    
C23   H7    S    
C29   C39   S    
C70   C73   A    
C45   C49   A    
C41   C47   A    
C30   C40   S    
N25   N30   A    
C8    C20   A    
C40   H24   S    
C93   H57   S    
C10   N30   A    
N2    N5    A    
C22   H70   S    
C9    N29   A    
C35   H41   S    
C37   H43   S    
C3    N3    A    
C96   H60   S    
C11   N31   A    
C7    C19   A    
C14   C80   S    
C55   C57   A    
C4    N4    A    
N27   N32   A    
C36   C85   A    
C95   H59   S    
C59   C63   A    
C8    N28   A    
C44   N36   S    
C15   C98   A    
C44   C64   A    
C68   H40   S    
C1    H1    S    
C14   C95   A    
N35   H77   S    
C18   C50   S    
N12   Ni7   S    
C29   H18   S    
C3    H3    S    
C40   H23   S    
C21   C25   S    
C93   N17   A    
C76   N10   A    
N14   Ni1   S    
N19   Ni3   S    
C38   H44   S    
N13   Ni2   S    
C46   H26   S    
C43   N35   S    
C67   C80   A    
C24   C28   S    
C31   C91   S    
C78   N12   A    
C15   C33   S    
C12   H68   S    
C71   C74   A    
C5    N25   A    
C16   C99   A    
C57   C61   A    
N3    N8    A    
C4    C88   A    
C25   H9    S    
C10   H66   S    
C84   C92   A    
N31   Ni4   S    
C46   C50   A    
C55   H31   S    
C37   N7    A    
C39   H21   S    
C13   C94   A    
C60   C64   A    
C23   C32   S    
C60   H36   S    
C9    H65   S    
C73   C89   S    
N15   N16   A    
C43   C45   A    
C22   H6    S    
C2    N2    A    
C30   C32   S    
C84   H56   S    
N4    Ni4   S    
N13   N14   A    
C66   C70   A    
C7    H63   S    
C48   H28   S    
C75   H49   S    
N28   N31   A    
C65   C69   A    
C74   C90   S    
C4    H4    S    
C12   C19   A    
C59   H35   S    
C77   N11   A    
C56   C58   A    
C2    C86   A    
N26   N29   A    
C67   C71   A    
C61   C86   S    
C12   N32   A    
C7    N27   A    
N36   H79   S    
C24   H72   S    
C99   Br3   S    
C49   C53   A    
C42   N34   S    
C41   N33   S    
C75   C89   A    
C28   C34   S    
N23   N24   A    
C82   H54   S    
C19   C51   S    
C9    C18   A    
C48   C52   A    
C5    C17   A    
C20   C52   S    
N21   N22   A    
C22   C26   S    
C25   C33   S    
N2    Ni2   S    
N1    Ni1   S    
N17   Ni1   S    
C5    H61   S    
C42   C62   A    
C28   H12   S    
C21   H5    S    
C24   H8    S    
C52   C56   A    
C81   N13   A    
C98   Br2   S    
C23   H71   S    
C75   N9    A    
