data_mof_unit_pretest_371.cif
_audit_creation_date              2013-03-05T16:31:37-0500
_audit_creation_method            fapswitch 2.2
_symmetry_space_group_name_H-M    P1
_symmetry_Int_Tables_number       1
_space_group_crystal_system       triclinic
_cell_length_a                    9.555719
_cell_length_b                    10.821611
_cell_length_c                    15.378749
_cell_angle_alpha                 88.35187
_cell_angle_beta                  73.906722
_cell_angle_gamma                 90.782349
_cell_volume                      1526.94970992

loop_
_atom_site_label
_atom_site_type_symbol
_atom_site_description
_atom_site_fract_x
_atom_site_fract_y
_atom_site_fract_z
_atom_type_partial_charge
O1    O     O_R   0.118810 0.319640 0.500000 -0.537861
O2    O     O_R   0.881230 0.319680 0.499990 -0.593700
C1    C     C_R   0.997681 0.262701 0.503432 0.813222
O3    O     O_R   0.055580 0.499970 0.629840 -0.553557
O4    O     O_R   0.818000 0.500010 0.629830 -0.559903
C2    C     C_R   0.917677 0.501727 0.672479 0.882483
Cu1   Cu    Cu3+1 0.140670 0.499980 0.500000 1.024591
Cu2   Cu    Cu3+1 0.859330 0.500020 0.500000 0.984555
O5    O     O_R   0.118770 0.680320 0.500010 -0.576299
O6    O     O_R   0.881190 0.680360 0.500000 -0.607323
O7    O     O_R   0.182000 0.499990 0.370170 -0.579294
O8    O     O_R   0.944420 0.500030 0.370160 -0.558188
C3    C     C_R   0.001036 0.737875 0.498890 0.847727
C4    C     C_R   0.082379 0.496867 0.327030 0.857562
C5    C     C_R   0.871845 0.527544 0.769382 -0.120081
C6    C     C_R   0.126995 0.493868 0.226501 -0.198076
C7    C     C_R   0.901082 0.657904 0.889495 0.360183
C8    C     C_R   0.957287 0.606711 0.804800 -0.293403
C9    C     C_R   0.731308 0.492397 0.821170 0.370860
C10   C     C_R   0.664202 0.557643 0.900257 -0.079812
C11   C     C_R   0.754132 0.631176 0.938677 -0.059416
C12   C     C_R   0.510843 0.552213 0.941930 -0.099336
C13   C     C_R   0.456727 0.585150 0.033659 -0.023408
C14   C     C_R   0.546657 0.662193 0.070176 0.308835
C15   C     C_R   0.694178 0.679878 0.023838 -0.145323
C16   C     C_R   0.407569 0.524149 0.893715 0.411546
C17   C     C_R   0.264113 0.494661 0.940974 -0.029728
C18   C     C_R   0.216685 0.498490 0.035520 -0.056001
C19   C     C_R   0.313406 0.543060 0.083184 0.037832
C20   C     C_R   0.073560 0.459040 0.082129 0.441416
C21   C     C_R   0.030190 0.452296 0.177757 0.318600
C22   C     C_R   0.267699 0.536202 0.178627 -0.152856
H1    H     H_    0.761118 0.735837 0.054241 0.241249
H2    H     H_    0.342840 0.560788 0.216789 0.188448
H3    H     H_    0.189418 0.469441 0.902408 0.236113
H4    H     H_    0.065169 0.635354 0.763921 0.215445
C23   C     C_R   0.121685 0.070327 0.461153 0.063975
C24   C     C_R   0.996693 0.129673 0.507671 -0.047382
C25   C     C_R   0.874222 0.059808 0.556519 -0.152895
H5    H     H_    0.777049 0.104680 0.595100 0.173785
C26   C     C_R   0.876286 0.930865 0.553644 -0.187237
H6    H     H_    0.780664 0.877581 0.591097 0.162919
C27   C     C_R   0.000231 0.871632 0.501329 -0.118666
C28   C     C_R   0.124314 0.942651 0.456660 0.062251
C29   C     C_3   0.203878 0.954689 0.357020 0.633674
C30   C     C_3   0.202708 0.094515 0.364734 -0.564297
H7    H     H_    0.311576 0.137639 0.358292 0.218904
H8    H     H_    0.136823 0.145290 0.326693 0.197073
C31   C     C_R   0.605428 0.556993 0.430873 0.229879
N1    N     N_R   0.648210 0.500930 0.499430 -0.250736
C32   C     C_R   0.546214 0.432098 0.562633 -0.088085
H9    H     H_    0.579055 0.378719 0.613951 0.207005
C33   C     C_R   0.397410 0.431114 0.562673 0.418422
N2    N     N_R   0.352300 0.500890 0.499430 -0.253066
C34   C     C_R   0.458111 0.557041 0.431199 0.066444
C35   C     C_3   0.465591 0.689573 0.403371 -0.312016
C36   C     C_3   0.624664 0.690696 0.403046 0.176826
H10   H     H_    0.446865 0.699720 0.335737 0.282665
H11   H     H_    0.397017 0.747224 0.456767 0.194923
H12   H     H_    0.649570 0.751929 0.454072 0.126443
O9    O     O_3   0.980719 0.422349 0.032208 -0.719497
H13   H     H_    0.881156 0.407027 0.072479 0.379725
O10   O     O_3   0.344595 0.908682 0.337592 -0.713788
H14   H     H_    0.398980 0.947789 0.278567 0.387824
N3    N     N_R   0.120695 0.905138 0.298092 0.146879
O11   O     O_R   0.098890 0.786403 0.297284 -0.362922
O12   O     O_R   0.084186 0.975925 0.238436 -0.302152
N4    N     N_R   0.295678 0.356662 0.629813 0.147682
O13   O     O_R   0.279666 0.240275 0.615128 -0.343313
O14   O     O_R   0.254845 0.393585 0.712595 -0.317769
O15   O     O_3   0.718260 0.708376 0.315535 -0.611894
H15   H     H_    0.818254 0.710780 0.322610 0.378020
O16   O     O_3   0.895715 0.399639 0.221152 -0.705680
H16   H     H_    0.907432 0.345142 0.271432 0.337848
N5    N     N_R   0.988953 0.748059 0.918712 0.130112
O17   O     O_R   0.128443 0.732632 0.902667 -0.329553
O18   O     O_R   0.937829 0.857142 0.940718 -0.301746
O19   O     O_3   0.665267 0.391968 0.793886 -0.687129
H17   H     H_    0.597049 0.351671 0.848184 0.351102
N6    N     N_R   0.485619 0.743904 0.142311 0.099787
O20   O     O_R   0.360656 0.793699 0.147168 -0.275837
O21   O     O_R   0.569565 0.794341 0.185693 -0.322466
O22   O     O_3   0.438798 0.534824 0.800652 -0.661291
H18   H     H_    0.517892 0.597803 0.778486 0.338149

loop_
_geom_bond_atom_site_label_1
_geom_bond_atom_site_label_2
_geom_bond_distance
_ccdc_geom_bond_type
C5    C8    1.396983 A    
C34   C35   1.479916 S    
C16   O22   1.379674 S    
C26   H6    1.083457 S    
C9    C10   1.420698 A    
C27   C28   1.400585 A    
Cu1   Cu2   2.688411 S    
C25   C26   1.397584 A    
C33   N2    1.378770 A    
C6    C21   1.418612 A    
C5    C9    1.399323 A    
C16   C17   1.389804 A    
O4    C2    1.297823 A    
C13   C19   1.431047 A    
C18   C19   1.417007 A    
C19   C22   1.409997 A    
C20   C21   1.412433 A    
O7    C4    1.303086 A    
C21   O16   1.379855 S    
C31   C36   1.491280 S    
C35   C36   1.518561 S    
O16   H16   0.990863 S    
C33   N4    1.426374 S    
O5    C3    1.297373 A    
C2    C5    1.468374 S    
N2    C34   1.360492 A    
C14   N6    1.436846 S    
C1    C24   1.438967 S    
N4    O13   1.300386 A    
N3    O12   1.301735 A    
C13   C14   1.422629 A    
C26   C27   1.408202 A    
O3    Cu1   1.936004 S    
C7    C8    1.397740 A    
C30   H8    1.111611 S    
C32   H9    1.082152 S    
C14   C15   1.399814 A    
O3    C2    1.299690 A    
C25   H5    1.083276 S    
O19   H17   0.990901 S    
C36   H12   1.113841 S    
C17   H3    1.083693 S    
C31   C34   1.406341 A    
C29   O10   1.396188 S    
C7    C11   1.419526 A    
O1    C1    1.291118 A    
C22   H2    1.080820 S    
C9    O19   1.381928 S    
Cu1   O7    1.924916 S    
N5    O17   1.300601 A    
C23   C24   1.387241 A    
O22   H18   0.990788 S    
Cu2   O8    1.936004 S    
N1    C32   1.364858 A    
C36   O15   1.400326 S    
N5    O18   1.301430 A    
N6    O21   1.300828 A    
C10   C12   1.427074 A    
C31   N1    1.362253 A    
C29   N3    1.468439 S    
C4    C6    1.486886 S    
Cu2   N1    2.020009 S    
C3    C27   1.449098 S    
C28   C29   1.510952 S    
Cu1   O5    1.965596 S    
C11   C15   1.397558 A    
C30   H7    1.112112 S    
O1    Cu1   1.959879 S    
Cu2   O6    1.959879 S    
O2    Cu2   1.965595 S    
O8    C4    1.302612 A    
N6    O20   1.300882 A    
O6    C3    1.291623 A    
O4    Cu2   1.924913 S    
C6    C22   1.405232 A    
C35   H11   1.111409 S    
C23   C28   1.385595 A    
C18   C20   1.410499 A    
O2    C1    1.292586 A    
O15   H15   0.991283 S    
C24   C25   1.400465 A    
C35   H10   1.105940 S    
O9    H13   0.989610 S    
O10   H14   0.991725 S    
C29   C30   1.521144 S    
C10   C11   1.417987 A    
N4    O14   1.300294 A    
N3    O11   1.299842 A    
C12   C16   1.423503 A    
C20   O9    1.385509 S    
C17   C18   1.399955 A    
C7    N5    1.439026 S    
C12   C13   1.419150 A    
Cu1   N2    2.019753 S    
C32   C33   1.421654 A    
C23   C30   1.484018 S    
C8    H4    1.083881 S    
C15   H1    1.079825 S    
