data_mof_unit_pretest_967.cif
_audit_creation_date              2012-12-10T19:05:18-0500
_audit_creation_method            fapswitch 2.2
_symmetry_space_group_name_H-M    P1
_symmetry_Int_Tables_number       1
_space_group_crystal_system       triclinic
_cell_length_a                    9.556252
_cell_length_b                    10.862356
_cell_length_c                    17.335493
_cell_angle_alpha                 90.640986
_cell_angle_beta                  86.794387
_cell_angle_gamma                 89.848176
_cell_volume                      1796.5455419

loop_
_atom_site_label
_atom_site_type_symbol
_atom_type_description
_atom_site_fract_x
_atom_site_fract_y
_atom_site_fract_z
_atom_type_partial_charge
C1    C     C_R   0.499915 0.737354 0.500221 0.798877
C2    C     C_R   0.346115 0.459122 0.773670 -0.214525
C3    C     C_R   0.422921 0.453403 0.147331 -0.195966
C4    C     C_R   0.426448 0.445774 0.226476 -0.259772
C5    C     C_R   0.628224 0.583052 0.224900 0.149645
C6    C     C_R   0.632507 0.581827 0.142945 0.206836
C7    C     C_R   0.525247 0.519959 0.104652 0.142055
C8    C     C_2   0.463589 0.439281 0.977461 -0.237420
C9    C     C_2   0.514882 0.529804 0.020537 -0.215825
C10   C     C_R   0.526264 0.510666 0.265987 -0.074182
C11   C     C_R   0.383800 0.937092 0.481006 0.129581
C12   C     C_R   0.482469 0.497713 0.649849 0.797253
C13   C     C_R   0.501776 0.870259 0.498991 -0.141352
C14   C     C_R   0.624104 0.933028 0.516192 -0.226805
C15   C     C_R   0.625031 0.061126 0.523153 0.156525
C16   C     C_R   0.503088 0.128526 0.505303 -0.118521
C17   C     C_R   0.384739 0.064178 0.483297 0.079703
C18   C     C_3   0.238428 0.068783 0.519238 -0.457658
C19   C     C_3   0.238069 0.929453 0.516186 -0.461271
C20   C     C_R   0.933192 0.477579 0.433484 0.166472
C21   C     C_R   0.920276 0.543109 0.562262 0.517785
C22   C     C_R   0.068979 0.539389 0.562621 -0.174446
C23   C     C_R   0.500360 0.262454 0.503580 0.803499
C24   C     C_R   0.080090 0.478199 0.433354 0.248677
C25   C     C_3   0.091016 0.367218 0.381994 -0.488121
C26   C     C_3   0.931951 0.367006 0.382069 -0.475885
C27   C     C_R   0.517750 0.503656 0.350329 0.810245
C28   C     C_R   0.474281 0.486141 0.733950 -0.073652
C29   C     C_R   0.596213 0.495975 0.774632 -0.209274
C30   C     C_R   0.590597 0.479771 0.853755 -0.217647
C31   C     C_R   0.463156 0.452923 0.893773 0.182834
C32   C     C_R   0.339154 0.441671 0.853634 0.217774
Cu1   Cu    Cu3+1 0.359330 0.500020 0.500000 0.939079
Cu2   Cu    Cu3+1 0.640670 0.499980 0.500000 0.962230
H1    H     H_    0.696498 0.515412 0.745533 0.205628
H2    H     H_    0.717368 0.881979 0.528579 0.152546
H3    H     H_    0.233365 0.107145 0.579102 0.202209
H4    H     H_    0.162704 0.109743 0.480569 0.192550
H5    H     H_    0.232988 0.886641 0.574270 0.199816
H6    H     H_    0.163743 0.891005 0.475170 0.195527
H7    H     H_    0.119753 0.568545 0.613751 0.156781
H8    H     H_    0.140288 0.388560 0.324363 0.188996
H9    H     H_    0.349320 0.389488 0.257207 0.153706
H10   H     H_    0.135481 0.286390 0.410580 0.204992
H11   H     H_    0.892126 0.388436 0.324694 0.200056
H12   H     H_    0.883291 0.285647 0.410370 0.204572
H13   H     H_    0.551748 0.613568 0.992420 0.166647
H14   H     H_    0.338020 0.407728 0.119896 0.144159
H15   H     H_    0.251320 0.450421 0.742505 0.158492
H16   H     H_    0.424870 0.354026 0.002572 0.154794
H17   H     H_    0.686490 0.487493 0.884024 0.146656
N1    N     N_R   0.852130 0.499070 0.499500 -0.224238
N2    N     N_R   0.148040 0.499110 0.499500 -0.209482
O1    O     O_R   0.381190 0.680360 0.500000 -0.575570
O2    O     O_R   0.618770 0.680320 0.499990 -0.592328
O3    O     O_R   0.367430 0.500040 0.613600 -0.603256
O4    O     O_R   0.605020 0.500000 0.613590 -0.530001
O5    O     O_R   0.381230 0.319680 0.500010 -0.576847
O6    O     O_R   0.618810 0.319640 0.500000 -0.577154
O7    O     O_R   0.394980 0.500000 0.386410 -0.581073
O8    O     O_R   0.632570 0.499960 0.386400 -0.577777
C33   C     C_3   0.753460 0.641897 0.097326 -0.911548
H18   H     H_    0.767851 0.605464 0.037428 0.227985
H19   H     H_    0.736599 0.742952 0.095604 0.235124
H20   H     H_    0.853772 0.621954 0.124162 0.244256
C34   C     C_3   0.751936 0.119769 0.556499 -0.819640
H21   H     H_    0.718911 0.182044 0.605453 0.238943
H22   H     H_    0.823776 0.050072 0.579255 0.211706
H23   H     H_    0.812907 0.171189 0.511554 0.237446
O9    O     O_3   0.845153 0.585974 0.627266 -0.606521
C35   C     C_3   0.856357 0.715661 0.633613 0.048047
H24   H     H_    0.748403 0.754132 0.636281 0.173884
H25   H     H_    0.915339 0.760252 0.583877 0.108429
C36   C     C_3   0.923686 0.750228 0.708833 -0.372589
H26   H     H_    0.860098 0.712057 0.758587 0.222530
H27   H     H_    0.030702 0.710219 0.708888 0.209994
C37   C     C_3   0.933464 0.889703 0.718642 -0.917488
H28   H     H_    0.999696 0.929458 0.670477 0.253576
H29   H     H_    0.981549 0.911991 0.773918 0.259425
H30   H     H_    0.827376 0.932001 0.719748 0.258716
C38   C     C_3   0.726971 0.663999 0.268490 -0.844651
H31   H     H_    0.811805 0.607058 0.291033 0.238851
H32   H     H_    0.775374 0.737763 0.232474 0.232692
H33   H     H_    0.668767 0.712272 0.317213 0.226759
C39   C     C_3   0.198185 0.414680 0.893180 -0.906250
H34   H     H_    0.201694 0.406789 0.956708 0.235058
H35   H     H_    0.123667 0.489893 0.881347 0.234234
H36   H     H_    0.157304 0.326841 0.870175 0.233879

loop_
_geom_bond_atom_site_label_1
_geom_bond_atom_site_label_2
_ccdc_geom_bond_type
C10   C27   S    
C23   O5    A    
C34   H22   S    
C30   H17   S    
Cu1   O5    S    
C38   H31   S    
C37   H28   S    
C23   O6    A    
C11   C19   S    
C29   C30   A    
C36   H27   S    
C12   C28   S    
C28   C29   A    
C18   H3    S    
C3    C7    A    
C27   O7    A    
C14   H2    S    
C30   C31   A    
C39   H36   S    
C22   H7    S    
C15   C16   A    
C3    H14   S    
C2    C32   A    
C18   C19   S    
C33   H19   S    
C27   O8    A    
C26   H11   S    
C20   C24   A    
C8    C9    D    
C36   C37   S    
Cu2   O4    S    
O9    C35   S    
Cu1   O3    S    
C37   H29   S    
C34   H21   S    
Cu2   O2    S    
C13   C14   A    
C25   H10   S    
C38   H32   S    
Cu1   Cu2   S    
C22   N2    A    
C39   H35   S    
Cu1   N2    S    
C36   H26   S    
C24   C25   S    
C24   N2    A    
C35   H25   S    
C16   C17   A    
C25   C26   S    
C39   H34   S    
C15   C34   S    
Cu2   O8    S    
C1    O1    A    
C33   H18   S    
C2    H15   S    
C5    C38   S    
C31   C32   A    
C17   C18   S    
C12   O3    A    
C19   H5    S    
C12   O4    A    
C9    H13   S    
C16   C23   S    
Cu2   O6    S    
C1    C13   S    
C4    C10   A    
C3    C4    A    
C8    H16   S    
C38   H33   S    
C37   H30   S    
Cu1   O1    S    
C7    C9    S    
C11   C17   A    
C33   H20   S    
C8    C31   S    
C25   H8    S    
C35   C36   S    
C6    C7    A    
C4    H9    S    
Cu1   O7    S    
C29   H1    S    
Cu2   N1    S    
C21   O9    S    
C6    C33   S    
C18   H4    S    
C35   H24   S    
C20   N1    A    
C11   C13   A    
C5    C6    A    
C20   C26   S    
C32   C39   S    
C1    O2    A    
C19   H6    S    
C26   H12   S    
C34   H23   S    
C5    C10   A    
C14   C15   A    
C2    C28   A    
C21   C22   A    
C21   N1    A    
