data_mof_unit_pretest_1972.cif
_audit_creation_date              2013-03-05T15:57:18-0500
_audit_creation_method            fapswitch 2.2
_symmetry_space_group_name_H-M    P1
_symmetry_Int_Tables_number       1
_space_group_crystal_system       triclinic
_cell_length_a                    6.953297
_cell_length_b                    17.31219
_cell_length_c                    18.670507
_cell_angle_alpha                 106.673116
_cell_angle_beta                  90.266704
_cell_angle_gamma                 90.644597
_cell_volume                      2152.79575027

loop_
_atom_site_label
_atom_site_type_symbol
_atom_site_description
_atom_site_fract_x
_atom_site_fract_y
_atom_site_fract_z
_atom_type_partial_charge
O1    O     O_R   0.505770 0.442340 0.559500 -0.577480
O2    O     O_R   0.168070 0.405470 0.411510 -0.539767
O3    O     O_R   0.005580 0.557660 0.440500 -0.568127
C1    C     C_R   0.339275 0.380262 0.384503 0.999425
O4    O     O_R   0.175550 0.432860 0.557160 -0.575341
O5    O     O_R   0.013110 0.585240 0.587190 -0.606890
C2    C     C_R   0.344446 0.415856 0.580560 0.926051
O6    O     O_R   0.498240 0.414760 0.412810 -0.527103
O7    O     O_3   0.341770 0.549960 0.509680 -0.277062
V1    V     V_3+5 0.063870 0.490730 0.498200 1.240320
O8    O     O_R   0.683850 0.594530 0.588490 -0.610120
C3    C     C_R   0.853999 0.616850 0.617421 0.856921
O9    O     O_R   0.676380 0.567140 0.442840 -0.547799
C4    C     C_R   0.845287 0.584051 0.419366 1.019761
V2    V     V_3+5 0.564820 0.509270 0.501800 1.236547
O10   O     O_3   0.836790 0.450040 0.490320 -0.203758
C5    C     C_1   0.856438 0.636020 0.367291 -0.259858
C6    C     C_1   0.867663 0.678582 0.323721 0.105478
C7    C     C_1   0.882067 0.728806 0.271866 0.023890
C8    C     C_1   0.894461 0.771114 0.228100 0.021868
C9    C     C_1   0.908925 0.821342 0.176248 0.092686
C10   C     C_1   0.920255 0.863909 0.132685 -0.272954
C11   C     C_3   0.701589 0.770552 0.806013 -0.326367
H1    H     H_    0.675043 0.748428 0.855549 0.133482
H2    H     H_    0.587633 0.815066 0.805989 0.242851
C12   C     C_3   0.681501 0.699141 0.733902 -0.350960
H3    H     H_    0.560477 0.710977 0.699441 0.202602
H4    H     H_    0.644684 0.643058 0.748943 0.137729
H5    H     H_    0.020775 0.720304 0.861697 0.154935
H6    H     H_    0.009290 0.615788 0.753819 0.137068
C13   C     C_3   0.050983 0.743753 0.813207 -0.448440
C14   C     C_3   0.936716 0.840509 0.740804 0.761325
C15   C     C_3   0.905594 0.811128 0.812375 -0.067382
C16   C     C_3   0.870698 0.687332 0.688379 0.067822
C17   C     C_3   0.035436 0.673379 0.739961 -0.324772
C18   C     C_3   0.916011 0.766648 0.668494 -0.543295
H7    H     H_    0.798518 0.777337 0.631880 0.168312
H8    H     H_    0.048350 0.758970 0.634085 0.182727
H9    H     H_    0.200882 0.767644 0.821181 0.206550
H10   H     H_    0.175366 0.667829 0.710318 0.181261
C19   C     C_3   0.550572 0.257400 0.319014 0.133576
H11   H     H_    0.514221 0.224722 0.360759 0.128015
C20   C     C_3   0.592861 0.193227 0.243305 0.122704
H12   H     H_    0.719073 0.214388 0.217057 0.108264
H13   H     H_    0.540889 0.275022 0.139671 0.209529
C21   C     C_3   0.368943 0.338963 0.240569 0.319364
C22   C     C_3   0.197930 0.247870 0.301540 -0.451697
C23   C     C_3   0.366564 0.309440 0.313253 -0.291060
H14   H     H_    0.063772 0.277495 0.294278 0.252354
H15   H     H_    0.180432 0.224942 0.351074 0.216518
C24   C     C_3   0.419049 0.185959 0.188938 -0.150629
C25   C     C_3   0.407279 0.266843 0.169076 -0.561418
C26   C     C_3   0.227739 0.176679 0.230194 -0.265446
H16   H     H_    0.223815 0.118840 0.244611 0.225824
H17   H     H_    0.102665 0.174634 0.192208 0.194506
H18   H     H_    0.220913 0.359830 0.233341 0.095209
H19   H     H_    0.288215 0.263158 0.128085 0.165982
C27   C     C_1   0.354804 0.363740 0.632556 -0.295196
C28   C     C_1   0.366430 0.321142 0.676084 0.070786
C29   C     C_1   0.381836 0.270949 0.727947 0.009926
C30   C     C_1   0.395170 0.228713 0.771739 0.014161
C31   C     C_1   0.410598 0.178579 0.823650 0.095511
C32   C     C_1   0.422249 0.136077 0.867259 -0.253749
O11   O     O_R   0.278700 0.085270 0.087180 -0.603851
O12   O     O_R   0.601470 0.067150 0.942830 -0.572300
O13   O     O_R   0.763830 0.914750 0.912810 -0.580973
C33   C     C_R   0.432588 0.084095 0.919367 1.001425
O14   O     O_R   0.608870 0.094540 0.088490 -0.581468
O15   O     O_R   0.771290 0.942340 0.059510 -0.561133
C34   C     C_R   0.439259 0.116414 0.117555 0.964778
O16   O     O_R   0.271240 0.057690 0.940480 -0.551572
O17   O     O_3   0.435150 0.950050 0.990310 -0.275096
V3    V     V_3+5 0.713080 0.009270 0.001800 1.213941
O18   O     O_R   0.100490 0.932820 0.057180 -0.582276
C35   C     C_R   0.931536 0.915894 0.080622 0.984802
O19   O     O_R   0.093090 0.905430 0.911530 -0.582216
C36   C     C_R   0.922469 0.881481 0.883788 0.939509
V4    V     V_3+5 0.212120 0.990690 0.998230 1.203324
O20   O     O_3   0.940180 0.049940 0.009690 -0.264312
N1    N     N_R   0.725562 0.304216 0.347133 0.228375
O21   O     O_R   0.790487 0.358325 0.317090 -0.383722
O22   O     O_R   0.818324 0.291300 0.403220 -0.404611
N2    N     N_R   0.643378 0.115396 0.254899 0.234489
O23   O     O_R   0.810290 0.084174 0.233629 -0.419233
O24   O     O_R   0.526802 0.078064 0.288474 -0.406622
N3    N     N_R   0.496041 0.409348 0.246795 0.259461
O25   O     O_R   0.444322 0.479709 0.288867 -0.407966
O26   O     O_R   0.639683 0.406315 0.201622 -0.372547
N4    N     N_R   0.127363 0.879935 0.743541 0.208326
O27   O     O_R   0.282905 0.837600 0.726593 -0.455637
O28   O     O_R   0.142630 0.958274 0.763133 -0.389669
O29   O     O_3   0.792523 0.896857 0.739384 -0.745566
H20   H     H_    0.814933 0.916222 0.694876 0.337171

loop_
_geom_bond_atom_site_label_1
_geom_bond_atom_site_label_2
_geom_bond_distance
_ccdc_geom_bond_type
C20   N2    1.470750 S    
C19   H11   1.114906 S    
C7    C8    1.246703 T    
C1    O6    1.286996 A    
C15   C36   1.529184 S    
C19   N1    1.463115 S    
C22   H14   1.095956 S    
C26   H16   1.109039 S    
C12   H3    1.112933 S    
H6    C17   1.112849 S    
N2    O23   1.300798 A    
C14   C18   1.575415 S    
C18   H7    1.113448 S    
O19   V4    2.018165 S    
C6    C7    1.478308 S    
O5    C3    1.297780 A    
N3    O26   1.302032 A    
V2    O10   2.143570 S    
C21   C25   1.570393 S    
O12   V3    1.860410 S    
C16   C17   1.558009 S    
C11   C12   1.549134 S    
O17   V4    1.699652 S    
O8    V2    2.018055 S    
C12   C16   1.552925 S    
C14   N4    1.478095 S    
O12   C33   1.316659 A    
C11   H1    1.113294 S    
C13   C15   1.555486 S    
O15   V3    1.841270 S    
O1    V2    1.838868 S    
C24   C34   1.526533 S    
O11   C34   1.289890 A    
N4    O28   1.302352 A    
O7    V1    2.157939 S    
C2    C27   1.504998 S    
C33   O16   1.311100 A    
C22   C26   1.550035 S    
O14   V3    1.996971 S    
C28   C29   1.479233 S    
O9    C4    1.314473 A    
C19   C20   1.558489 S    
C4    C5    1.503949 S    
C10   C35   1.504024 S    
C22   H15   1.112760 S    
C21   C23   1.581498 S    
C26   H17   1.113437 S    
C32   C33   1.504914 S    
O18   C35   1.314601 A    
C24   C25   1.550888 S    
O19   C36   1.306772 A    
N1    O22   1.301502 A    
O4    C2    1.316636 A    
N3    O25   1.301369 A    
N1    O21   1.300112 A    
H13   C25   1.109483 S    
C11   C15   1.564567 S    
C27   C28   1.247199 T    
O13   V3    2.005257 S    
C29   C30   1.247255 T    
C24   C26   1.569839 S    
O2    C1    1.323957 A    
C20   H12   1.115486 S    
C31   C32   1.247145 T    
C22   C23   1.547465 S    
C5    C6    1.246592 T    
V3    O20   1.710052 S    
O3    C4    1.310533 A    
N2    O24   1.301202 A    
O6    V2    2.016881 S    
O9    V2    1.854868 S    
C13   C17   1.551063 S    
C3    C16   1.524891 S    
O2    V1    1.996852 S    
C1    C23   1.542903 S    
O13   C36   1.297252 A    
O1    C2    1.311144 A    
O11   V4    2.017134 S    
O17   V3    2.158041 S    
O5    V1    2.005173 S    
O8    C3    1.305679 A    
C12   H4    1.112929 S    
C14   C15   1.575249 S    
C18   H8    1.111933 S    
C17   H10   1.113020 S    
O7    V2    1.700146 S    
O4    V1    1.860354 S    
H5    C13   1.113234 S    
O3    V1    1.841250 S    
V1    O10   1.710061 S    
V4    O20   2.143556 S    
C20   C24   1.555213 S    
C14   O29   1.412138 S    
O29   H20   0.993525 S    
C19   C23   1.593908 S    
C13   H9    1.110464 S    
O15   C35   1.310510 A    
C16   C18   1.551295 S    
C11   H2    1.111605 S    
C30   C31   1.479189 S    
C25   H19   1.113582 S    
C8    C9    1.478326 S    
O14   C34   1.314100 A    
O18   V4    1.854932 S    
C21   H18   1.114994 S    
N4    O27   1.301898 A    
C9    C10   1.246616 T    
O16   V4    1.840651 S    
C21   N3    1.474048 S    
