data_mof_unit_pretest_332.cif
_audit_creation_date              2012-12-10T16:44:18-0500
_audit_creation_method            fapswitch 2.2
_symmetry_space_group_name_H-M    P1
_symmetry_Int_Tables_number       1
_space_group_crystal_system       triclinic
_cell_length_a                    7.563935
_cell_length_b                    8.703826
_cell_length_c                    13.232834
_cell_angle_alpha                 95.484006
_cell_angle_beta                  77.372003
_cell_angle_gamma                 103.701381
_cell_volume                      825.039368597

loop_
_atom_site_label
_atom_site_type_symbol
_atom_type_description
_atom_site_fract_x
_atom_site_fract_y
_atom_site_fract_z
_atom_type_partial_charge
C1    C     C_R   0.545370 0.799915 0.503206 0.904845
C2    C     C_R   0.435937 0.538484 0.976398 -0.116293
C3    C     C_R   0.477747 0.579799 0.872115 -0.144938
C4    C     C_R   0.580029 0.562160 0.031539 0.075650
C5    C     C_R   0.741873 0.678943 0.999291 0.067589
C6    C     C_R   0.772425 0.745005 0.903207 -0.192780
C7    C     C_R   0.642551 0.696417 0.839403 0.456065
C8    C     C_R   0.552776 0.491343 0.126384 -0.194376
C9    C     C_R   0.812060 0.686658 0.169846 -0.158674
C10   C     C_R   0.342646 0.518040 0.810257 -0.161986
C11   C     C_2   0.568499 0.968477 0.506733 -0.323924
C12   C     C_R   0.400566 0.501275 0.695197 0.875744
C13   C     C_2   0.429910 0.031332 0.494756 -0.362001
C14   C     C_R   0.454375 0.200047 0.496947 0.830477
C15   C     C_R   0.601263 0.515126 0.306094 0.736396
C16   C     C_R   0.855391 0.743434 0.069997 -0.202318
C17   C     C_R   0.664798 0.556681 0.197340 -0.044846
C18   C     C_R   0.155265 0.462015 0.860896 0.385101
C19   C     C_R   0.109451 0.469640 0.970182 -0.315451
C20   C     C_R   0.248016 0.511540 0.028503 0.403881
Cu1   Cu    Cu3+1 0.321300 0.483160 0.488710 1.032735
Cu2   Cu    Cu3+1 0.678700 0.516840 0.511290 1.078686
H1    H     H_    0.885654 0.750174 0.227629 0.142882
H2    H     H_    0.297359 0.958629 0.482607 0.198226
H3    H     H_    0.891306 0.841458 0.880514 0.169553
H4    H     H_    0.968126 0.845567 0.050480 0.127176
H5    H     H_    0.433431 0.395403 0.149291 0.169441
H6    H     H_    0.965794 0.448683 0.010312 0.181755
H7    H     H_    0.700218 0.041137 0.519778 0.180001
N1    N     N_2   0.947230 0.542220 0.528320 0.135067
N2    N     N_2   0.052770 0.457780 0.471680 0.087496
O1    O     O_R   0.383920 0.714220 0.492660 -0.565972
O2    O     O_R   0.685730 0.742660 0.511730 -0.540171
O3    O     O_R   0.275440 0.478800 0.636790 -0.502179
O4    O     O_R   0.577250 0.507240 0.655860 -0.549744
O5    O     O_R   0.314270 0.257340 0.488270 -0.634196
O6    O     O_R   0.616080 0.285780 0.507340 -0.564930
O7    O     O_R   0.422750 0.492760 0.344140 -0.600147
O8    O     O_R   0.724560 0.521200 0.363210 -0.539525
Cl1   Cl    Cl    0.025530 0.664049 0.627414 -0.414848
O9    O     O_3   0.988057 0.389995 0.387101 -0.463600
C21   C     C_3   0.038263 0.243448 0.363141 0.235122
H8    H     H_    0.001549 0.171395 0.432886 0.126186
H9    H     H_    0.188100 0.259580 0.328768 0.164248
C22   C     C_3   0.932967 0.152659 0.282333 -0.890403
H10   H     H_    0.968791 0.220709 0.210987 0.269225
H11   H     H_    0.971291 0.036508 0.262325 0.188051
H12   H     H_    0.780877 0.132594 0.312853 0.249592
O10   O     O_3   0.016095 0.430536 0.804115 -0.524518
C23   C     C_3   0.905112 0.276601 0.820701 0.059284
H13   H     H_    0.836627 0.260403 0.903497 0.123290
H14   H     H_    0.989668 0.186190 0.793829 0.157789
C24   C     C_3   0.752247 0.250974 0.759037 -0.641080
H15   H     H_    0.812792 0.252225 0.674631 0.252041
H16   H     H_    0.652944 0.136684 0.777175 0.225281
H17   H     H_    0.674535 0.346128 0.780723 0.242132
O11   O     O_3   0.198318 0.545865 0.134509 -0.561574
C25   C     C_3   0.256886 0.711816 0.155647 0.094487
H18   H     H_    0.185639 0.778892 0.117267 0.127961
H19   H     H_    0.407154 0.759530 0.127227 0.140541
C26   C     C_3   0.218535 0.751274 0.271884 -0.731953
H20   H     H_    0.332991 0.732927 0.305522 0.253437
H21   H     H_    0.211761 0.877730 0.286621 0.156573
H22   H     H_    0.086047 0.676480 0.311066 0.292660
Cl2   Cl    Cl    0.663036 0.823351 0.739861 -0.654243

loop_
_geom_bond_atom_site_label_1
_geom_bond_atom_site_label_2
_ccdc_geom_bond_type
C26   H22   S    
C2    C4    A    
C15   O7    A    
C15   C17   S    
C6    C7    A    
C19   H6    S    
C2    C20   A    
C7    Cl2   S    
Cu1   N2    S    
O9    C21   S    
C23   H14   S    
C19   C20   A    
C1    C11   S    
N1    N2    D    
C4    C8    A    
C25   C26   S    
C24   H16   S    
C23   H13   S    
C20   O11   S    
C1    O2    A    
Cu1   O5    S    
N2    O9    S    
C24   H15   S    
C12   O4    A    
C14   O5    A    
Cu2   O4    S    
C11   C13   D    
C15   O8    A    
O11   C25   S    
C5    C6    A    
C21   H9    S    
C10   C18   A    
Cu2   O8    S    
C10   C12   S    
Cu1   Cu2   S    
C9    C16   A    
C2    C3    A    
C18   O10   S    
C3    C7    A    
C22   H11   S    
C16   H4    S    
C26   H20   S    
Cu1   O1    S    
C22   H12   S    
C23   C24   S    
C21   H8    S    
C25   H19   S    
C6    H3    S    
C22   H10   S    
N1    Cl1   S    
C11   H7    S    
C26   H21   S    
O10   C23   S    
C24   H17   S    
C9    C17   A    
C3    C10   A    
C8    H5    S    
C18   C19   A    
C5    C16   A    
Cu1   O3    S    
Cu2   N1    S    
C25   H18   S    
C13   C14   S    
Cu2   O6    S    
C12   O3    A    
C1    O1    A    
C9    H1    S    
Cu1   O7    S    
C8    C17   A    
C13   H2    S    
C4    C5    A    
C14   O6    A    
C21   C22   S    
Cu2   O2    S    
