data_mof_unit_pretest_1255.cif
_audit_creation_date              2012-12-10T20:34:56-0500
_audit_creation_method            fapswitch 2.2
_symmetry_space_group_name_H-M    P1
_symmetry_Int_Tables_number       1
_space_group_crystal_system       triclinic
_cell_length_a                    10.807207
_cell_length_b                    10.687715
_cell_length_c                    9.956291
_cell_angle_alpha                 90.858444
_cell_angle_beta                  90.860611
_cell_angle_gamma                 93.257398
_cell_volume                      1147.86294137

loop_
_atom_site_label
_atom_site_type_symbol
_atom_type_description
_atom_site_fract_x
_atom_site_fract_y
_atom_site_fract_z
_atom_type_partial_charge
C1    C     C_R   0.501593 0.260703 0.498498 0.932585
C2    C     C_3   0.878164 0.484346 0.497869 -0.146792
C3    C     C_3   0.934514 0.621496 0.511723 -0.412692
C4    C     C_3   0.918462 0.417531 0.359077 -0.275738
C5    C     C_R   0.605396 0.071094 0.548227 0.011840
C6    C     C_R   0.506739 0.129117 0.491169 -0.059969
C7    C     C_R   0.419405 0.058833 0.412256 -0.262693
C8    C     C_R   0.414943 0.928289 0.417204 0.456413
C9    C     C_R   0.502602 0.871677 0.498848 -0.094257
C10   C     C_R   0.603839 0.943284 0.552690 -0.039948
C11   C     C_3   0.669453 0.948657 0.687179 0.339062
C12   C     C_R   0.257925 0.495853 0.498028 0.996879
C13   C     C_3   0.673874 0.091157 0.677785 -0.502606
C14   C     C_R   0.422796 0.418348 0.067632 0.013624
C15   C     C_R   0.560203 0.594217 0.073921 -0.069785
C16   C     C_R   0.566551 0.589670 0.931335 0.427856
C17   C     C_R   0.420133 0.420538 0.925985 0.019052
C18   C     C_3   0.409298 0.281474 0.912567 -0.431015
C19   C     C_3   0.417561 0.277745 0.065138 0.789733
C20   C     C_R   0.502185 0.739509 0.500738 0.976014
C21   C     C_R   0.741443 0.491988 0.500424 0.837869
C22   C     C_3   0.071713 0.430061 0.626103 -0.427642
C23   C     C_3   0.930399 0.409612 0.620315 -0.240588
C24   C     C_3   0.075314 0.624989 0.487404 0.285673
C25   C     C_3   0.067610 0.405898 0.362289 -0.298700
C26   C     C_3   0.121129 0.488308 0.491485 -0.080483
H1    H     H_    0.100544 0.492999 0.712023 0.209701
H2    H     H_    0.091588 0.665148 0.387740 0.261825
H3    H     H_    0.888691 0.687060 0.444277 0.248257
H4    H     H_    0.351000 0.104424 0.353934 0.184183
H5    H     H_    0.619758 0.137048 0.755386 0.229612
H6    H     H_    0.768120 0.135071 0.663110 0.234989
H7    H     H_    0.112869 0.341674 0.654265 0.238967
H8    H     H_    0.317628 0.247571 0.869721 0.230802
H9    H     H_    0.489647 0.244031 0.862162 0.177113
H10   H     H_    0.910241 0.309065 0.603274 0.202710
H11   H     H_    0.915591 0.658625 0.613267 0.222668
N1    N     N_R   0.499150 0.499140 0.142800 -0.172854
N2    N     N_R   0.499150 0.499180 0.857150 -0.168701
O1    O     O_R   0.500020 0.316790 0.614690 -0.629899
O2    O     O_R   0.500000 0.316760 0.385350 -0.583013
O3    O     O_R   0.314800 0.500000 0.614670 -0.600145
O4    O     O_R   0.314790 0.499960 0.385330 -0.616947
O5    O     O_R   0.500000 0.683240 0.614650 -0.599210
O6    O     O_R   0.499980 0.683210 0.385310 -0.586061
O7    O     O_R   0.685210 0.500040 0.614670 -0.650803
O8    O     O_R   0.685200 0.500000 0.385330 -0.575016
Zn1   Zn    Zn3+2 0.500010 0.500020 0.653130 0.998242
Zn2   Zn    Zn3+2 0.499990 0.499980 0.346870 1.049618
C27   C     C_2   0.883814 0.500215 0.236286 1.047106
O9    O     O_2   0.924334 0.608977 0.229578 -0.590003
O10   O     O_R   0.814763 0.450525 0.126473 -0.753075
H12   H     H_    0.801837 0.515538 0.055484 0.358660
O11   O     O_3   0.323318 0.855402 0.349923 -0.692351
H13   H     H_    0.269529 0.910678 0.298947 0.372280
O12   O     O_3   0.592188 0.904071 0.790064 -0.669846
H14   H     H_    0.628486 0.939384 0.875602 0.397871
C28   C     C_2   0.796443 0.896061 0.687898 0.881916
O13   O     O_2   0.860223 0.902647 0.587489 -0.630030
O14   O     O_R   0.843625 0.846232 0.805802 -0.708747
H15   H     H_    0.931033 0.818139 0.795407 0.366283
C29   C     C_2   0.616231 0.706849 0.143568 1.083457
O15   O     O_2   0.696151 0.698281 0.229943 -0.599588
O16   O     O_R   0.578396 0.824809 0.107520 -0.743469
H16   H     H_    0.622551 0.895389 0.161852 0.354270
O17   O     O_3   0.646685 0.675144 0.871520 -0.679534
H17   H     H_    0.654530 0.650608 0.776979 0.394593
O18   O     O_3   0.309733 0.223961 0.121027 -0.670978
H18   H     H_    0.308522 0.257705 0.214079 0.332647
O19   O     O_3   0.524871 0.224657 0.115102 -0.687114
H19   H     H_    0.597532 0.264666 0.069278 0.346913
C30   C     C_2   0.875748 0.432835 0.757269 1.004348
O20   O     O_2   0.894516 0.533338 0.816451 -0.618081
O21   O     O_R   0.800055 0.337634 0.813545 -0.803741
H20   H     H_    0.755259 0.365619 0.896025 0.353007
O22   O     O_3   0.141427 0.708493 0.577481 -0.715306
H21   H     H_    0.114252 0.691780 0.670352 0.356336
C31   C     C_2   0.121388 0.448391 0.223552 0.877177
O23   O     O_2   0.103678 0.380032 0.124432 -0.544849
O24   O     O_R   0.176240 0.568558 0.204209 -0.745157
H22   H     H_    0.201814 0.583405 0.107910 0.363007
C32   C     C_2   0.106894 0.268856 0.373510 0.941359
O25   O     O_2   0.075558 0.191373 0.285689 -0.505921
O26   O     O_R   0.182721 0.231205 0.478401 -0.868323
H23   H     H_    0.184710 0.136768 0.483893 0.360314
C33   C     C_2   0.843795 0.287167 0.344862 0.946949
O27   O     O_2   0.753653 0.273287 0.269580 -0.536547
O28   O     O_R   0.872533 0.184383 0.422602 -0.803454
H24   H     H_    0.819819 0.105525 0.398536 0.377888

loop_
_geom_bond_atom_site_label_1
_geom_bond_atom_site_label_2
_ccdc_geom_bond_type
C13   H6    S    
C4    C25   S    
C7    C8    A    
O8    Zn2   S    
N1    Zn2   S    
C24   C26   S    
C12   O4    A    
C5    C6    A    
O24   H22   S    
C31   O24   S    
C4    C33   S    
C28   O14   S    
C15   C16   A    
O12   H14   S    
C18   C19   S    
C17   N2    A    
C3    H3    S    
C12   O3    A    
C1    O1    A    
O18   H18   S    
C8    C9    A    
C27   O10   S    
O19   H19   S    
C11   C28   S    
C18   H9    S    
C5    C13   S    
C20   O6    A    
O17   H17   S    
C7    H4    S    
C14   C17   A    
C3    C24   S    
C23   C30   S    
O2    Zn2   S    
C20   O5    A    
C27   O9    D    
O7    Zn1   S    
O21   H20   S    
C1    C6    S    
O22   H21   S    
C30   O21   S    
C8    O11   S    
C33   O27   D    
C24   O22   S    
C25   C26   S    
C25   C31   S    
C4    C27   S    
O14   H15   S    
C2    C4    S    
C15   N1    A    
C29   O15   D    
C14   N1    A    
C9    C20   S    
O6    Zn2   S    
C2    C21   S    
C17   C18   S    
C19   O18   S    
O3    Zn1   S    
O26   H23   S    
C18   H8    S    
C1    O2    A    
C23   H10   S    
C32   O26   S    
C22   H1    S    
C25   C32   S    
C16   O17   S    
O10   H12   S    
C21   O7    A    
C9    C10   A    
O1    Zn1   S    
C22   H7    S    
O11   H13   S    
C31   O23   D    
C14   C19   S    
C13   H5    S    
O4    Zn2   S    
C24   H2    S    
C30   O20   D    
C6    C7    A    
C29   O16   S    
O16   H16   S    
C2    C3    S    
C28   O13   D    
C5    C10   A    
C11   C13   S    
C15   C29   S    
C33   O28   S    
C10   C11   S    
C16   N2    A    
O28   H24   S    
C3    H11   S    
C32   O25   D    
C22   C26   S    
C12   C26   S    
C2    C23   S    
C22   C23   S    
C19   O19   S    
C11   O12   S    
O5    Zn1   S    
N2    Zn1   S    
C21   O8    A    
