data_mof_unit_pretest_546.cif
_audit_creation_date              2012-12-11T14:54:34-0500
_audit_creation_method            fapswitch 2.2
_symmetry_space_group_name_H-M    P1
_symmetry_Int_Tables_number       1
_space_group_crystal_system       triclinic
_cell_length_a                    18.962012
_cell_length_b                    10.865977
_cell_length_c                    18.817116
_cell_angle_alpha                 90.014071
_cell_angle_beta                  90.051545
_cell_angle_gamma                 89.794694
_cell_volume                      3877.06680259

loop_
_atom_site_label
_atom_site_type_symbol
_atom_type_description
_atom_site_fract_x
_atom_site_fract_y
_atom_site_fract_z
_atom_type_partial_charge
C1    C     C_R   0.730948 0.377639 0.646136 0.537208
C2    C     C_R   0.296706 0.855289 0.460019 -0.091220
C3    C     C_R   0.939667 0.554480 0.480372 -0.133697
C4    C     C_R   0.189991 0.385701 0.537148 -0.077538
C5    C     C_R   0.796732 0.355324 0.460027 -0.091220
C6    C     C_R   0.692628 0.880503 0.463350 0.214132
C7    C     C_R   0.299490 0.845371 0.533567 0.223655
C8    C     C_R   0.192603 0.380710 0.463332 0.214102
C9    C     C_R   0.799515 0.345422 0.533577 0.223675
C10   C     C_R   0.757333 0.905909 0.429162 0.014222
C11   C     C_R   0.252504 0.917508 0.575593 0.010389
C12   C     C_R   0.257357 0.405849 0.429173 0.014242
C13   C     C_R   0.270737 0.375618 0.355108 0.525090
C14   C     C_R   0.752502 0.417521 0.575595 0.010396
C15   C     C_R   0.816801 0.938337 0.469819 -0.145382
C16   C     C_R   0.211676 0.009151 0.543627 -0.185177
C17   C     C_R   0.316855 0.438004 0.469856 -0.145336
C18   C     C_R   0.711645 0.509114 0.543618 -0.185173
C19   C     C_R   0.813629 0.942037 0.542433 -0.118945
C20   C     C_R   0.210969 0.020437 0.470944 -0.149743
C21   C     C_R   0.313654 0.441746 0.542472 -0.118957
C22   C     C_R   0.710929 0.520372 0.470934 -0.149732
C23   C     C_R   0.749832 0.920546 0.576484 -0.023022
C24   C     C_R   0.230948 0.877635 0.646135 0.537231
C25   C     C_R   0.252499 0.942296 0.428554 -0.027815
C26   C     C_R   0.249811 0.420521 0.576489 -0.022980
C27   C     C_R   0.752493 0.442274 0.428552 -0.027832
C28   C     C_R   0.463599 0.059039 0.949994 -0.111680
C29   C     C_R   0.443957 0.056704 0.020897 -0.126808
C30   C     C_R   0.963601 0.559037 0.949995 -0.111677
C31   C     C_R   0.943960 0.556702 0.020898 -0.126808
C32   C     C_R   0.451591 0.161775 0.063125 0.021043
C33   C     C_R   0.492407 0.166271 0.920341 0.021841
C34   C     C_R   0.951590 0.661775 0.063125 0.021042
C35   C     C_R   0.770731 0.875629 0.355105 0.525155
C36   C     C_R   0.992407 0.666270 0.920341 0.021840
C37   C     C_R   0.474104 0.272496 0.031963 -0.131203
C38   C     C_R   0.494777 0.274564 0.960878 -0.138419
C39   C     C_R   0.974100 0.772496 0.031962 -0.131200
C40   C     C_R   0.994773 0.774565 0.960877 -0.138418
C41   C     C_R   0.531056 0.155303 0.646632 0.543129
C42   C     C_R   0.435339 0.150937 0.360938 0.560157
C43   C     C_R   0.031056 0.655302 0.646631 0.543123
C44   C     C_R   0.935334 0.650937 0.360938 0.560192
C45   C     C_R   0.812580 0.954264 0.960393 -0.165690
C46   C     C_3   0.523995 0.359452 0.449228 -0.255554
C47   C     C_R   0.204171 0.005947 0.030602 -0.174078
C48   C     C_R   0.312581 0.454256 0.960391 -0.165689
C49   C     C_R   0.704167 0.505938 0.030604 -0.174075
C50   C     C_R   0.814536 0.952008 0.032991 -0.175907
C51   C     C_R   0.204469 0.997215 0.958219 -0.204815
C52   C     C_R   0.314538 0.451999 0.032990 -0.175901
C53   C     C_R   0.704465 0.497208 0.958220 -0.204814
C54   C     C_R   0.757570 0.905781 0.072067 0.028853
C55   C     C_R   0.248917 0.913317 0.924702 0.019270
C56   C     C_R   0.257571 0.405779 0.072066 0.028855
C57   C     C_3   0.546072 0.362090 0.526714 -0.254209
C58   C     C_R   0.748916 0.413317 0.924703 0.019271
C59   C     C_R   0.696811 0.862595 0.036979 0.275587
C60   C     C_R   0.298016 0.842737 0.964648 0.276863
C61   C     C_R   0.196811 0.362598 0.036980 0.275581
C62   C     C_R   0.798018 0.342742 0.964648 0.276862
C63   C     C_R   0.695508 0.862013 0.962164 0.220187
C64   C     C_R   0.295505 0.847672 0.039319 0.206322
C65   C     C_R   0.195506 0.362016 0.962164 0.220184
C66   C     C_R   0.795508 0.347675 0.039318 0.206321
C67   C     C_R   0.752075 0.916778 0.924325 -0.015707
C68   C     C_3   0.023874 0.859567 0.449260 -0.255532
C69   C     C_R   0.249666 0.933183 0.071984 -0.013854
C70   C     C_R   0.252074 0.416776 0.924325 -0.015706
C71   C     C_R   0.749665 0.433180 0.071985 -0.013854
C72   C     C_R   0.741440 0.967776 0.647823 0.541732
C73   C     C_R   0.259213 0.972384 0.353975 0.534785
C74   C     C_R   0.241437 0.467776 0.647823 0.541746
C75   C     C_R   0.759211 0.472376 0.353973 0.534779
C76   C     C_R   0.730198 0.378369 0.852593 0.563599
C77   C     C_R   0.271040 0.376822 0.146395 0.568779
C78   C     C_R   0.230198 0.878369 0.852592 0.563597
C79   C     C_3   0.045958 0.862198 0.526745 -0.254252
C80   C     C_R   0.771040 0.876823 0.146395 0.568771
C81   C     C_R   0.530539 0.157329 0.852835 0.549980
C82   C     C_R   0.435684 0.153201 0.139116 0.559520
C83   C     C_R   0.030539 0.657329 0.852835 0.549987
C84   C     C_R   0.935684 0.653201 0.139116 0.559522
C85   C     C_R   0.741818 0.967884 0.853490 0.545574
C86   C     C_R   0.258568 0.971009 0.145393 0.531225
C87   C     C_R   0.241817 0.467884 0.853490 0.545574
C88   C     C_R   0.758567 0.471008 0.145394 0.531221
C89   C     C_R   0.449072 0.158530 0.437269 0.014748
C90   C     C_R   0.690042 0.885491 0.537169 -0.077575
C91   C     C_R   0.489250 0.164191 0.581490 0.013327
C92   C     C_R   0.949051 0.658531 0.437273 0.014759
C93   C     C_R   0.989239 0.664181 0.581493 0.013309
C94   C     C_R   0.468425 0.269146 0.469975 0.004192
C95   C     C_R   0.488521 0.271837 0.540757 0.000747
C96   C     C_R   0.968348 0.769166 0.469996 0.004314
C97   C     C_R   0.988455 0.771850 0.540777 0.000782
C98   C     C_R   0.458792 0.057502 0.552156 -0.138868
C99   C     C_R   0.439640 0.054510 0.480382 -0.133777
C100  C     C_R   0.958822 0.557467 0.552144 -0.138863
Cr1   Cr    Cr6+3 0.771950 0.169480 0.750100 1.067720
Cr2   Cr    Cr6+3 0.383410 0.010620 0.249390 1.042251
Cr3   Cr    Cr6+3 0.116590 0.510620 0.750610 1.037351
Cr4   Cr    Cr6+3 0.883410 0.510620 0.249390 1.042264
Cr5   Cr    Cr6+3 0.228050 0.169480 0.249900 1.063509
Cr6   Cr    Cr6+3 0.271950 0.669480 0.750100 1.067732
Cr7   Cr    Cr6+3 0.728050 0.669480 0.249900 1.063519
Cr8   Cr    Cr6+3 0.614930 0.323340 0.749170 1.017969
Cr9   Cr    Cr6+3 0.385070 0.323340 0.250830 1.020835
Cr10  Cr    Cr6+3 0.114930 0.823340 0.749170 1.017978
Cr11  Cr    Cr6+3 0.885070 0.823340 0.250830 1.020831
Cr12  Cr    Cr6+3 0.616590 0.010620 0.750610 1.037368
H1    H     H_    0.456180 0.972943 0.582444 0.141643
H2    H     H_    0.099361 0.822640 0.535898 0.164695
H3    H     H_    0.501194 0.448161 0.430657 0.147439
H4    H     H_    0.599454 0.322451 0.535880 0.164668
H5    H     H_    0.564759 0.318891 0.413684 0.161397
H6    H     H_    0.536074 0.452294 0.552763 0.148138
H7    H     H_    0.064654 0.819089 0.413706 0.161421
H8    H     H_    0.035917 0.952373 0.552811 0.148105
H9    H     H_    0.639708 0.871313 0.563082 0.162064
H10   H     H_    0.331515 0.799103 0.427735 0.148304
H11   H     H_    0.139625 0.371729 0.563043 0.162135
H12   H     H_    0.422495 0.968523 0.457446 0.151059
H13   H     H_    0.831566 0.299172 0.427750 0.148263
H14   H     H_    0.867364 0.958197 0.445896 0.154862
H15   H     H_    0.176690 0.067385 0.574486 0.143330
H16   H     H_    0.367451 0.457657 0.445948 0.154886
H17   H     H_    0.676637 0.567321 0.574469 0.143337
H18   H     H_    0.460162 0.974540 0.919634 0.168234
H19   H     H_    0.425275 0.971297 0.043493 0.171009
H20   H     H_    0.960167 0.474536 0.919635 0.168240
H21   H     H_    0.925280 0.471293 0.043495 0.171017
H22   H     H_    0.478968 0.355816 0.063120 0.137795
H23   H     H_    0.956250 0.472889 0.582418 0.141695
H24   H     H_    0.516542 0.358514 0.939115 0.136289
H25   H     H_    0.978962 0.855819 0.063118 0.137796
H26   H     H_    0.016535 0.858516 0.939113 0.136289
H27   H     H_    0.857417 0.993118 0.932778 0.168736
H28   H     H_    0.168902 0.073416 0.053796 0.196266
H29   H     H_    0.357419 0.493106 0.932776 0.168731
H30   H     H_    0.668894 0.573401 0.053799 0.196263
H31   H     H_    0.600851 0.797764 0.045503 0.366339
H32   H     H_    0.379095 0.730164 0.963942 0.357780
H33   H     H_    0.100848 0.297776 0.045504 0.366341
H34   H     H_    0.922562 0.468476 0.457426 0.151110
H35   H     H_    0.879101 0.230177 0.963940 0.357779
H36   H     H_    0.656158 0.771404 0.883351 0.325049
H37   H     H_    0.314499 0.752924 0.124732 0.339842
H38   H     H_    0.156153 0.271409 0.883352 0.325049
H39   H     H_    0.814505 0.252926 0.124730 0.339839
H40   H     H_    0.633957 0.890802 0.379124 0.344631
H41   H     H_    0.367347 0.801150 0.605213 0.328358
H42   H     H_    0.134019 0.391140 0.379048 0.344597
H43   H     H_    0.867368 0.301268 0.605245 0.328360
H44   H     H_    0.860372 0.969297 0.571597 0.164324
H45   H     H_    0.862421 0.984075 0.058256 0.171202
H46   H     H_    0.178295 0.092332 0.448199 0.188567
H47   H     H_    0.360416 0.468827 0.571666 0.164136
H48   H     H_    0.678221 0.592216 0.448186 0.188732
H49   H     H_    0.167003 0.052539 0.928588 0.166545
H50   H     H_    0.362425 0.484061 0.058254 0.171199
H51   H     H_    0.666996 0.552528 0.928591 0.166550
H52   H     H_    0.001031 0.948254 0.430706 0.147378
O1    O     O_R   0.787510 0.042610 0.670410 -0.496017
O2    O     O_R   0.454250 0.051070 0.169440 -0.478751
O3    O     O_R   0.045750 0.551070 0.830560 -0.495187
O4    O     O_R   0.954250 0.551070 0.169440 -0.478747
O5    O     O_R   0.681210 0.959150 0.825320 -0.482234
O6    O     O_R   0.318790 0.959150 0.174680 -0.506293
O7    O     O_R   0.181210 0.459150 0.825320 -0.482233
O8    O     O_R   0.818790 0.459150 0.174680 -0.506296
O9    O     O_3   0.667820 0.167810 0.749960 -0.251800
O10   O     O_3   0.332180 0.167810 0.250040 -0.304281
O11   O     O_3   0.167820 0.667810 0.749960 -0.251801
O12   O     O_R   0.212490 0.042610 0.329590 -0.507357
O13   O     O_3   0.832180 0.667810 0.250040 -0.304285
O14   O     O_R   0.765670 0.292090 0.675090 -0.488707
O15   O     O_R   0.234330 0.292090 0.324910 -0.491086
O16   O     O_R   0.265670 0.792090 0.675090 -0.488716
O17   O     O_R   0.734330 0.792090 0.324910 -0.491025
O18   O     O_R   0.670220 0.409020 0.668560 -0.531872
O19   O     O_R   0.329780 0.409020 0.331440 -0.532142
O20   O     O_R   0.170220 0.909020 0.668560 -0.531861
O21   O     O_R   0.829780 0.909020 0.331440 -0.532177
O22   O     O_R   0.556580 0.251590 0.674980 -0.499634
O23   O     O_R   0.287510 0.542610 0.670410 -0.495931
O24   O     O_R   0.443420 0.251590 0.325020 -0.492833
O25   O     O_R   0.056580 0.751590 0.674980 -0.499623
O26   O     O_R   0.943420 0.751590 0.325020 -0.492822
O27   O     O_R   0.545890 0.049670 0.670030 -0.526468
O28   O     O_R   0.454110 0.049670 0.329970 -0.495334
O29   O     O_R   0.045890 0.549670 0.670030 -0.526512
O30   O     O_R   0.954110 0.549670 0.329970 -0.495294
O31   O     O_R   0.681340 0.957860 0.676500 -0.518721
O32   O     O_R   0.318660 0.957860 0.323500 -0.525587
O33   O     O_R   0.181340 0.457860 0.676500 -0.518772
O34   O     O_R   0.712490 0.542610 0.329590 -0.507332
O35   O     O_R   0.818660 0.457860 0.323500 -0.525599
O36   O     O_R   0.787380 0.044010 0.830940 -0.496198
O37   O     O_R   0.212620 0.044010 0.169060 -0.504680
O38   O     O_R   0.287380 0.544010 0.830940 -0.496200
O39   O     O_R   0.712620 0.544010 0.169060 -0.504683
O40   O     O_R   0.765540 0.293390 0.823910 -0.436684
O41   O     O_R   0.234460 0.293390 0.176090 -0.440289
O42   O     O_R   0.265540 0.793390 0.823910 -0.436688
O43   O     O_R   0.734460 0.793390 0.176090 -0.440293
O44   O     O_R   0.670090 0.410410 0.829090 -0.538364
O45   O     O_R   0.556450 0.252890 0.823790 -0.505757
O46   O     O_R   0.329910 0.410410 0.170910 -0.542241
O47   O     O_R   0.170090 0.910410 0.829090 -0.538363
O48   O     O_R   0.829910 0.910410 0.170910 -0.542249
O49   O     O_3   0.640778 0.819645 0.076908 -0.676810
O50   O     O_3   0.345137 0.766203 0.929751 -0.679639
O51   O     O_3   0.140776 0.319654 0.076910 -0.676807
O52   O     O_3   0.845142 0.266214 0.929750 -0.679644
O53   O     O_3   0.638733 0.809293 0.927952 -0.712751
O54   O     O_3   0.337390 0.768093 0.078262 -0.723601
O55   O     O_3   0.138729 0.309301 0.927953 -0.712749
O56   O     O_R   0.443550 0.252890 0.176210 -0.497281
O57   O     O_3   0.837396 0.268101 0.078261 -0.723606
O58   O     O_3   0.631010 0.854770 0.427338 -0.698123
O59   O     O_3   0.347360 0.763223 0.561800 -0.693807
O60   O     O_3   0.130967 0.355216 0.427289 -0.698000
O61   O     O_3   0.847414 0.263333 0.561819 -0.693962
O62   O     O_R   0.056450 0.752890 0.823790 -0.505755
O63   O     O_R   0.943550 0.752890 0.176210 -0.497279
O64   O     O_R   0.545750 0.051070 0.830560 -0.495192

loop_
_geom_bond_atom_site_label_1
_geom_bond_atom_site_label_2
_ccdc_geom_bond_type
C58   C62   A    
C81   O45   A    
C21   C26   A    
C39   H25   S    
Cr2   O6    S    
C88   O8    A    
C81   O64   A    
H40   O58   S    
C24   O20   A    
C72   O1    A    
C14   C18   A    
Cr1   O9    S    
Cr10  O47   S    
C45   H27   S    
C31   H21   S    
C72   O31   A    
Cr8   O45   S    
Cr1   O36   S    
C58   C76   S    
Cr12  O5    S    
Cr10  O11   S    
C7    C11   A    
C50   C54   A    
C48   H29   S    
C46   H3    S    
Cr7   O17   S    
Cr12  O64   S    
Cr8   O22   S    
C28   C29   A    
C25   C73   S    
Cr6   O23   S    
H41   O59   S    
C29   C32   A    
C10   C15   A    
C68   H7    S    
C30   C31   A    
C30   H20   S    
Cr4   O4    S    
C20   C25   A    
C36   C83   S    
C65   C70   A    
Cr6   O42   S    
C11   C24   S    
C92   C96   A    
C76   O44   A    
Cr3   O33   S    
C4    C8    A    
C60   O50   S    
Cr11  O48   S    
C47   C69   A    
Cr1   O14   S    
C44   O26   A    
C5    C27   A    
C52   H50   S    
C3    C100  A    
C88   O39   A    
C2    C7    A    
C13   O19   A    
Cr5   O12   S    
C40   H26   S    
C47   H28   S    
Cr8   O44   S    
Cr2   O28   S    
Cr6   O11   S    
Cr3   O3    S    
C10   C35   S    
C38   H24   S    
H36   O53   S    
C87   O38   A    
Cr7   O43   S    
C8    O60   S    
C100  H23   S    
C16   C20   A    
C76   O40   A    
C80   O48   A    
Cr9   O19   S    
C68   C79   S    
C2    H10   S    
Cr12  O9    S    
Cr10  O20   S    
Cr9   O24   S    
C26   C74   S    
C20   H46   S    
C55   C60   A    
C96   C97   A    
Cr3   O7    S    
C19   H44   S    
C21   H47   S    
Cr7   O39   S    
C34   C84   S    
Cr5   O15   S    
C66   O57   S    
C27   C75   S    
C70   C87   S    
C43   C93   S    
Cr6   O16   S    
C57   H4    S    
C54   C80   S    
C54   C59   A    
C68   H52   S    
C50   H45   S    
C63   C67   A    
C67   C85   S    
Cr11  O21   S    
C62   C66   A    
H38   O55   S    
C34   C39   A    
C36   C40   A    
H35   O52   S    
Cr10  O62   S    
C39   C40   A    
C65   O55   S    
C55   C78   S    
C41   O27   A    
Cr9   O10   S    
C53   H51   S    
C98   H1    S    
C47   C51   A    
C64   C69   A    
C51   C55   A    
C13   O15   A    
C83   O3    A    
C15   H14   S    
C42   O28   A    
C85   O5    A    
C56   C77   S    
H39   O57   S    
C46   H5    S    
C3    C92   A    
C12   C17   A    
C15   C19   A    
C9    C14   A    
C78   O42   A    
Cr12  O31   S    
C5    C9    A    
C37   C38   A    
C84   O4    A    
Cr8   O18   S    
C77   O41   A    
Cr6   O38   S    
C7    O59   S    
C1    O14   A    
C85   O36   A    
Cr5   O37   S    
Cr4   O13   S    
C86   O37   A    
C74   O33   A    
C8    C12   A    
C87   O7    A    
C49   H30   S    
Cr3   O11   S    
C23   C90   A    
C56   C61   A    
C68   C96   S    
C32   C37   A    
Cr1   O1    S    
C93   C100  A    
C43   O25   A    
C66   C71   A    
C3    H34   S    
C53   C58   A    
C77   O46   A    
C41   C91   S    
C89   C99   A    
C28   C33   A    
Cr5   O10   S    
C46   C57   S    
C57   C95   S    
C22   C27   A    
C90   H9    S    
C73   O32   A    
C35   O17   A    
Cr9   O46   S    
Cr8   O9    S    
C93   C97   A    
C31   C34   A    
C19   C23   A    
C74   O23   A    
C82   O2    A    
C75   O34   A    
C42   O24   A    
C64   O54   S    
H43   O61   S    
Cr4   O30   S    
C46   C94   S    
C86   O6    A    
C44   O30   A    
C23   C72   S    
C79   C97   S    
H33   O51   S    
C48   C70   A    
Cr1   O40   S    
Cr2   O32   S    
C89   C94   A    
Cr7   O34   S    
C4    C26   A    
C1    O18   A    
C59   O49   S    
C17   H16   S    
Cr5   O41   S    
C45   C67   A    
C75   O35   A    
Cr2   O10   S    
C32   C82   S    
C43   O29   A    
Cr10  O25   S    
C59   C63   A    
C33   C38   A    
Cr4   O8    S    
C60   C64   A    
C42   C89   S    
Cr11  O63   S    
C63   O53   S    
C73   O12   A    
C18   C22   A    
C30   C36   A    
Cr9   O56   S    
C6    C90   A    
C35   O21   A    
Cr12  O27   S    
H32   O50   S    
C44   C92   S    
C29   H19   S    
C22   H48   S    
C45   C50   A    
C49   C53   A    
C24   O16   A    
C62   O52   S    
Cr4   O35   S    
C41   O22   A    
C51   H49   S    
C2    C25   A    
C28   H18   S    
H37   O54   S    
C91   C98   A    
H42   O60   S    
C94   C95   A    
C16   H15   S    
C17   C21   A    
C11   C16   A    
C6    C10   A    
C91   C95   A    
C71   C88   S    
C79   H8    S    
C61   C65   A    
C48   C52   A    
C80   O43   A    
C82   O56   A    
C12   C13   S    
C4    H11   S    
Cr11  O26   S    
Cr2   O2    S    
C98   C99   A    
C49   C71   A    
C79   H2    S    
C5    H13   S    
Cr11  O13   S    
H31   O49   S    
C37   H22   S    
C99   H12   S    
C18   H17   S    
C9    O61   S    
C1    C14   S    
C61   O51   S    
C84   O63   A    
C33   C81   S    
C78   O47   A    
Cr7   O13   S    
C69   C86   S    
C52   C56   A    
Cr3   O29   S    
C57   H6    S    
C6    O58   S    
C83   O62   A    
