data_mof_unit_pretest_1562.cif
_audit_creation_date              2012-12-10T19:05:43-0500
_audit_creation_method            fapswitch 2.2
_symmetry_space_group_name_H-M    P1
_symmetry_Int_Tables_number       1
_space_group_crystal_system       triclinic
_cell_length_a                    10.540554
_cell_length_b                    13.098934
_cell_length_c                    13.6432
_cell_angle_alpha                 85.716252
_cell_angle_beta                  90.073728
_cell_angle_gamma                 92.760791
_cell_volume                      1876.26917707

loop_
_atom_site_label
_atom_site_type_symbol
_atom_type_description
_atom_site_fract_x
_atom_site_fract_y
_atom_site_fract_z
_atom_type_partial_charge
Br1   Br    Br    0.101495 0.353284 0.685811 -0.486526
Br2   Br    Br    0.898315 0.646595 0.314165 -0.480239
C1    C     C_R   0.498650 0.481224 0.684933 0.925499
C2    C     C_3   0.046501 0.597483 0.506880 -0.267775
C3    C     C_3   0.040134 0.439887 0.576059 0.243875
C4    C     C_3   0.959822 0.560112 0.423962 0.246112
C5    C     C_3   0.123016 0.501501 0.498600 -0.105169
C6    C     C_3   0.876953 0.498498 0.501424 -0.106763
C7    C     C_3   0.037950 0.465233 0.416014 -0.081344
C8    C     C_3   0.962005 0.534768 0.584013 -0.092373
C9    C     C_1   0.514773 0.533366 0.212583 -0.029379
C10   C     C_1   0.506272 0.466132 0.787596 -0.027153
C11   C     C_2   0.542705 0.542802 0.022466 -0.025565
C12   C     C_R   0.502054 0.518752 0.315067 0.934542
C13   C     C_2   0.527422 0.453535 0.978240 -0.024833
C14   C     C_1   0.515711 0.457091 0.874542 -0.014266
C15   C     C_1   0.528099 0.541191 0.125858 -0.013431
C16   C     C_2   0.077120 0.426720 0.320398 0.472098
C17   C     C_2   0.922819 0.573273 0.679637 0.484308
C18   C     C_2   0.512434 0.349482 0.030499 0.448537
C19   C     C_2   0.566016 0.646179 0.970299 0.441411
C20   C     C_2   0.648295 0.001328 0.585983 0.426856
C21   C     C_2   0.351731 0.998671 0.414011 0.426956
C22   C     C_2   0.459680 0.033476 0.475910 -0.107974
C23   C     C_2   0.540346 0.966524 0.524084 -0.109381
C24   C     C_1   0.527693 0.854426 0.518530 0.176881
C25   C     C_1   0.472321 0.145574 0.481468 0.179872
C26   C     C_R   0.742662 0.499318 0.500842 0.969482
C27   C     C_R   0.257328 0.500680 0.499172 0.967113
C28   C     C_3   0.953459 0.402521 0.493141 -0.263817
H1    H     H_    0.913101 0.323247 0.487849 0.205061
H2    H     H_    0.086851 0.676760 0.512168 0.204044
H3    H     H_    0.004863 0.401191 0.269855 0.089215
H4    H     H_    0.995065 0.598780 0.730194 0.081713
H5    H     H_    0.479031 0.285199 0.989955 0.079895
H6    H     H_    0.555365 0.713943 0.010237 0.078214
H7    H     H_    0.707860 0.944641 0.622245 0.085595
H8    H     H_    0.292140 0.055356 0.377775 0.082412
N1    N     N_1   0.479750 0.234530 0.484780 -0.057966
N2    N     N_1   0.520250 0.765470 0.515220 -0.058803
O1    O     O_R   0.492590 0.402510 0.634760 -0.609977
O2    O     O_2   0.810892 0.575865 0.701430 -0.536060
O3    O     O_2   0.540441 0.333069 0.116898 -0.543184
O4    O     O_2   0.600947 0.657590 0.884737 -0.522289
O5    O     O_2   0.672882 0.091634 0.597625 -0.541560
O6    O     O_2   0.327174 0.908368 0.402340 -0.542319
O7    O     O_R   0.507410 0.597490 0.365240 -0.611300
O8    O     O_R   0.505590 0.572960 0.644530 -0.579585
O9    O     O_R   0.494410 0.427040 0.355470 -0.574419
O10   O     O_R   0.679550 0.414790 0.495140 -0.623595
O11   O     O_R   0.320450 0.585210 0.504860 -0.626808
O12   O     O_R   0.692550 0.585240 0.504910 -0.578953
O13   O     O_R   0.307450 0.414760 0.495090 -0.579912
O14   O     O_2   0.189050 0.424157 0.298595 -0.562659
Zn1   Zn    Zn3+2 0.491320 0.386190 0.493470 1.069799
Zn2   Zn    Zn3+2 0.508680 0.613810 0.506530 1.065889

loop_
_geom_bond_atom_site_label_1
_geom_bond_atom_site_label_2
_ccdc_geom_bond_type
C21   C22   S    
C22   C25   S    
C12   O7    A    
C5    C27   S    
O1    Zn1   S    
C19   O4    D    
C7    C16   S    
O10   Zn1   S    
C17   O2    D    
C11   C15   S    
C8    C17   S    
C6    C28   S    
C18   O3    D    
C4    C7    S    
C11   C13   D    
C11   C19   S    
C3    C8    S    
C19   H6    S    
C2    H2    S    
C26   O12   A    
C24   N2    T    
Br2   C4    S    
C27   O13   A    
C7    C28   S    
C2    C5    S    
Br1   C3    S    
C6    C8    S    
C16   H3    S    
O7    Zn2   S    
C3    C28   S    
C3    C5    S    
O13   Zn1   S    
C28   H1    S    
C6    C26   S    
C9    C12   S    
C12   O9    A    
C16   O14   D    
C2    C8    S    
C13   C14   S    
C21   H8    S    
C5    C7    S    
C1    O8    A    
C20   O5    D    
C22   C23   D    
O12   Zn2   S    
O8    Zn2   S    
O11   Zn2   S    
C27   O11   A    
C20   C23   S    
C21   O6    D    
C26   O10   A    
C1    O1    A    
C4    C6    S    
C1    C10   S    
C23   C24   S    
O9    Zn1   S    
C20   H7    S    
C2    C4    S    
C18   H5    S    
N1    Zn1   S    
C10   C14   T    
C25   N1    T    
C13   C18   S    
N2    Zn2   S    
C17   H4    S    
C9    C15   T    
