data_mof_unit_pretest_1803.cif
_audit_creation_date              2012-12-10T19:25:54-0500
_audit_creation_method            fapswitch 2.2
_symmetry_space_group_name_H-M    P1
_symmetry_Int_Tables_number       1
_space_group_crystal_system       triclinic
_cell_length_a                    9.775569
_cell_length_b                    10.496047
_cell_length_c                    16.847354
_cell_angle_alpha                 90.173253
_cell_angle_beta                  84.977794
_cell_angle_gamma                 90.536571
_cell_volume                      1721.90375568

loop_
_atom_site_label
_atom_site_type_symbol
_atom_type_description
_atom_site_fract_x
_atom_site_fract_y
_atom_site_fract_z
_atom_type_partial_charge
C1    C     C_R   0.500705 0.742321 0.499896 0.950290
C2    C     C_3   0.631505 0.961063 0.498732 -0.186381
C3    C     C_3   0.946724 0.590136 0.543586 0.477404
C4    C     C_3   0.053249 0.409858 0.456430 0.478379
C5    C     C_3   0.054101 0.606639 0.472689 -0.163125
C6    C     C_3   0.945885 0.393376 0.527324 -0.163302
C7    C     C_3   0.037795 0.484561 0.571485 -0.184643
C8    C     C_3   0.962198 0.515435 0.428518 -0.183622
C9    C     C_R   0.480724 0.504129 0.652633 0.886815
C10   C     C_R   0.519277 0.495131 0.347424 0.886415
C11   C     C_R   0.468844 0.522370 0.738158 -0.043329
C12   C     C_R   0.499296 0.257682 0.500096 0.948512
C13   C     C_R   0.531196 0.471387 0.262434 -0.042967
C14   C     C_R   0.579738 0.575962 0.774321 -0.125551
C15   C     C_R   0.422370 0.410559 0.228192 -0.127161
C16   C     C_R   0.572021 0.589735 0.856171 -0.079898
C17   C     C_R   0.430593 0.389547 0.146905 -0.078510
C18   C     C_R   0.454374 0.548114 0.902064 0.155710
C19   C     C_R   0.546567 0.431317 0.099592 0.154310
C20   C     C_R   0.340230 0.501652 0.866331 -0.087353
C21   C     C_R   0.659058 0.484835 0.133695 -0.089464
C22   C     C_R   0.347133 0.489303 0.784012 -0.164827
C23   C     C_3   0.444408 0.957518 0.435687 0.449826
C24   C     C_R   0.651791 0.504220 0.215513 -0.162151
C25   C     C_2   0.459847 0.534171 0.986936 0.215259
C26   C     C_2   0.538471 0.442438 0.014754 0.215607
C27   C     C_3   0.555592 0.042496 0.564299 0.450326
C28   C     C_3   0.573052 0.043388 0.433693 -0.269069
C29   C     C_3   0.426948 0.956626 0.566293 -0.268351
C30   C     C_3   0.498012 0.122746 0.500077 -0.149383
C31   C     C_3   0.501988 0.877264 0.499909 -0.149607
C32   C     C_3   0.368497 0.038950 0.501254 -0.186886
Cl1   Cl    Cl    0.870454 0.714349 0.603902 -0.591636
Cl2   Cl    Cl    0.129255 0.285265 0.396361 -0.595073
Cl3   Cl    Cl    0.634292 0.333976 0.952167 -0.542447
Cl4   Cl    Cl    0.363776 0.642415 0.049615 -0.545010
Cl5   Cl    Cl    0.370897 0.896341 0.350121 -0.538361
Cl6   Cl    Cl    0.629077 0.103724 0.649863 -0.536903
H1    H     H_    0.673193 0.605044 0.739591 0.205900
H2    H     H_    0.660316 0.625763 0.884179 0.166762
H3    H     H_    0.631081 0.082960 0.379576 0.196477
H4    H     H_    0.368909 0.917065 0.620410 0.196725
H5    H     H_    0.261580 0.073876 0.501720 0.223559
H6    H     H_    0.738421 0.926134 0.498270 0.223344
H7    H     H_    0.104094 0.696532 0.450278 0.199639
H8    H     H_    0.895884 0.303488 0.549737 0.199589
H9    H     H_    0.330071 0.381327 0.263934 0.208507
H10   H     H_    0.074058 0.472526 0.631619 0.171084
H11   H     H_    0.925929 0.527456 0.368384 0.171951
H12   H     H_    0.737451 0.549335 0.241539 0.164747
H13   H     H_    0.260041 0.449448 0.756631 0.164800
H14   H     H_    0.249414 0.468923 0.902256 0.167283
H15   H     H_    0.748350 0.518141 0.096642 0.166484
H16   H     H_    0.343324 0.348630 0.120175 0.168610
N1    N     N_3   0.136700 0.499970 0.500060 -0.121868
N2    N     N_3   0.863300 0.500030 0.499940 -0.122150
O1    O     O_R   0.383390 0.686040 0.500000 -0.603962
O2    O     O_R   0.616610 0.313960 0.500000 -0.604211
O3    O     O_R   0.616650 0.686050 0.499970 -0.587031
O4    O     O_R   0.383350 0.313950 0.500030 -0.587650
O5    O     O_R   0.369590 0.500020 0.615820 -0.633951
O6    O     O_R   0.630410 0.499980 0.384180 -0.633830
O7    O     O_R   0.602840 0.500020 0.615790 -0.578914
O8    O     O_R   0.397160 0.499980 0.384210 -0.578323
Zn1   Zn    Zn3+2 0.344250 0.499990 0.500020 1.021237
Zn2   Zn    Zn3+2 0.655750 0.500010 0.499980 1.021350

loop_
_geom_bond_atom_site_label_1
_geom_bond_atom_site_label_2
_ccdc_geom_bond_type
C5    C8    S    
C21   H15   S    
N2    Zn2   S    
C6    C7    S    
C15   H9    S    
C29   H4    S    
C27   C29   S    
C6    H8    S    
C3    N2    S    
C28   H3    S    
C11   C22   A    
C3    C7    S    
C7    N1    S    
C4    C8    S    
C12   O2    A    
C7    H10   S    
C8    N2    S    
C28   C30   S    
C14   H1    S    
O7    Zn2   S    
C20   H14   S    
C10   O6    A    
C1    O1    A    
C23   C32   S    
C27   C30   S    
C30   C32   S    
C9    C11   S    
O2    Zn2   S    
C1    O3    A    
C2    C27   S    
C18   C25   S    
C5    H7    S    
C16   H2    S    
C9    O5    A    
C17   H16   S    
O8    Zn1   S    
C16   C18   A    
C2    C31   S    
C19   C21   A    
C32   H5    S    
C20   C22   A    
O4    Zn1   S    
C29   C32   S    
C4    Cl2   S    
C13   C15   A    
C4    N1    S    
C24   H12   S    
C11   C14   A    
C14   C16   A    
C4    C6    S    
C23   C28   S    
N1    Zn1   S    
O6    Zn2   S    
C27   Cl6   S    
C12   O4    A    
O5    Zn1   S    
C26   Cl3   S    
C1    C31   S    
C18   C20   A    
C29   C31   S    
C3    C5    S    
C21   C24   A    
C2    H6    S    
C15   C17   A    
C19   C26   S    
C3    Cl1   S    
C22   H13   S    
C2    C28   S    
C25   Cl4   S    
C17   C19   A    
C25   C26   D    
C23   Cl5   S    
C9    O7    A    
C12   C30   S    
C8    H11   S    
C5    N1    S    
C10   O8    A    
C13   C24   A    
C6    N2    S    
O3    Zn2   S    
O1    Zn1   S    
C10   C13   S    
C23   C31   S    
