data_mof_unit_pretest_648.cif
_audit_creation_date              2012-12-10T17:18:59-0500
_audit_creation_method            fapswitch 2.2
_symmetry_space_group_name_H-M    P1
_symmetry_Int_Tables_number       1
_space_group_crystal_system       triclinic
_cell_length_a                    10.178313
_cell_length_b                    10.798917
_cell_length_c                    13.449431
_cell_angle_alpha                 91.70258
_cell_angle_beta                  98.879757
_cell_angle_gamma                 97.845393
_cell_volume                      1444.95313181

loop_
_atom_site_label
_atom_site_type_symbol
_atom_type_description
_atom_site_fract_x
_atom_site_fract_y
_atom_site_fract_z
_atom_type_partial_charge
C1    C     C_R   0.055953 0.733170 0.493553 0.883714
C2    C     C_R   0.944047 0.266830 0.506447 0.883715
C3    C     C_R   0.462524 0.564536 0.121335 -0.211883
C4    C     C_R   0.537476 0.435463 0.878665 -0.211882
C5    C     C_R   0.334864 0.595391 0.092897 -0.193566
C6    C     C_R   0.665136 0.404608 0.907103 -0.193567
C7    C     C_2   0.090434 0.866842 0.483936 -0.188710
C8    C     C_2   0.909566 0.133158 0.516064 -0.188710
C9    C     C_2   0.007070 0.938303 0.517683 -0.196619
C10   C     C_2   0.992930 0.061697 0.482317 -0.196619
C11   C     C_2   0.431212 0.512275 0.507972 -0.144867
C12   C     C_2   0.568788 0.487725 0.492028 -0.144867
C13   C     C_R   0.092459 0.514887 0.686470 0.888872
C14   C     C_R   0.907541 0.485113 0.313530 0.888872
C15   C     C_R   0.140780 0.527675 0.795052 -0.129548
C16   C     C_R   0.859220 0.472325 0.204948 -0.129548
C17   C     C_R   0.143993 0.609229 0.965074 -0.211636
C18   C     C_R   0.856006 0.390771 0.034926 -0.211636
C19   C     C_R   0.080540 0.591887 0.865022 0.156760
C20   C     C_R   0.919459 0.408112 0.134978 0.156760
C21   C     C_R   0.260217 0.480943 0.827261 -0.290812
C22   C     C_R   0.739783 0.519057 0.172739 -0.290813
C23   C     C_R   0.333171 0.511932 0.923212 0.102501
C24   C     C_R   0.666829 0.488068 0.076788 0.102501
C25   C     C_R   0.270558 0.572297 0.994038 0.143146
C26   C     C_R   0.729442 0.427702 0.005962 0.143146
C27   C     C_R   0.466776 0.485754 0.949795 0.078207
C28   C     C_R   0.533223 0.514246 0.050205 0.078207
H1    H     H_    0.285704 0.636656 0.148991 0.148709
H2    H     H_    0.714295 0.363343 0.851009 0.148709
H3    H     H_    0.704193 0.578167 0.225433 0.165487
H4    H     H_    0.295807 0.421833 0.774567 0.165487
H5    H     H_    0.097065 0.656599 0.019375 0.165021
H6    H     H_    0.902934 0.343400 0.980625 0.165021
H7    H     H_    0.501830 0.580676 0.200337 0.148669
H8    H     H_    0.498170 0.419324 0.799663 0.148669
H9    H     H_    0.060750 0.100180 0.432500 0.203000
H10   H     H_    0.939250 0.899820 0.567500 0.203000
H11   H     H_    0.577343 0.412316 0.439291 0.165782
H12   H     H_    0.422657 0.587684 0.560709 0.165782
H13   H     H_    0.665633 0.624831 0.588374 0.184889
H14   H     H_    0.334367 0.375169 0.411626 0.184889
N1    N     N_2   0.322180 0.446120 0.460900 -0.181013
N2    N     N_2   0.677820 0.553880 0.539100 -0.181013
O1    O     O_R   0.935190 0.693030 0.507870 -0.600003
O2    O     O_R   0.064810 0.306970 0.492130 -0.600003
O3    O     O_R   0.142080 0.658430 0.482770 -0.607495
O4    O     O_R   0.857920 0.341570 0.517230 -0.607495
O5    O     O_R   0.969700 0.527180 0.651960 -0.576523
O6    O     O_R   0.030300 0.472820 0.348040 -0.576523
O7    O     O_R   0.176600 0.492580 0.626860 -0.613829
O8    O     O_R   0.823400 0.507420 0.373140 -0.613830
Zn1   Zn    Zn3+2 0.861850 0.523100 0.516760 0.954503
Zn2   Zn    Zn3+2 0.138150 0.476900 0.483240 0.954503
I1    I     I_    0.098873 0.326982 0.171303 -0.401883
I2    I     I_    0.901127 0.673018 0.828697 -0.401882
C29   C     C_R   0.797773 0.083763 0.570397 0.123754
C30   C     C_R   0.783721 0.140800 0.662824 -0.118685
C31   C     C_R   0.679504 0.093211 0.713844 -0.135971
C32   C     C_R   0.588652 0.988537 0.673274 -0.101011
C33   C     C_R   0.601354 0.931528 0.581337 -0.131667
C34   C     C_R   0.704342 0.979614 0.529454 -0.153785
H15   H     H_    0.854255 0.221008 0.696040 0.125732
H16   H     H_    0.669581 0.137013 0.785191 0.132071
H17   H     H_    0.508260 0.951723 0.712979 0.134234
H18   H     H_    0.530532 0.850805 0.549700 0.137896
H19   H     H_    0.711770 0.935291 0.457612 0.146562
C35   C     C_R   0.202227 0.916237 0.429602 0.123754
C36   C     C_R   0.295658 0.020386 0.470546 -0.153785
C37   C     C_R   0.398646 0.068472 0.418663 -0.131667
C38   C     C_R   0.411347 0.011463 0.326726 -0.101011
C39   C     C_R   0.320495 0.906789 0.286156 -0.135971
C40   C     C_R   0.216279 0.859200 0.337176 -0.118684
H20   H     H_    0.288230 0.064708 0.542387 0.146562
H21   H     H_    0.469468 0.149195 0.450300 0.137895
H22   H     H_    0.491740 0.048277 0.287021 0.134233
H23   H     H_    0.330419 0.862987 0.214808 0.132071
H24   H     H_    0.145745 0.778992 0.303960 0.125732

loop_
_geom_bond_atom_site_label_1
_geom_bond_atom_site_label_2
_ccdc_geom_bond_type
C19   I2    S    
C4    H8    S    
C18   C26   A    
C29   C34   A    
C14   O6    A    
C2    O2    A    
C15   C19   A    
C31   H16   S    
O6    Zn2   S    
C34   H19   S    
C10   H9    S    
C22   C24   A    
C3    C28   A    
C24   C26   A    
C38   H22   S    
C7    C35   S    
C13   O7    A    
C33   H18   S    
C14   O8    A    
C35   C36   A    
C40   H24   S    
C11   N1    D    
C37   C38   A    
C23   C27   A    
C9    C10   S    
O1    Zn1   S    
C31   C32   A    
C36   C37   A    
C17   H5    S    
C20   I1    S    
N2    Zn1   S    
C5    H1    S    
O4    Zn1   S    
C21   H4    S    
C22   H3    S    
C11   H12   S    
C4    C6    A    
C1    O3    A    
C2    O4    A    
C30   C31   A    
C32   C33   A    
C39   H23   S    
C8    C29   S    
N1    Zn2   S    
C3    H7    S    
C16   C20   A    
O2    Zn2   S    
C36   H20   S    
C18   H6    S    
C13   O5    A    
O3    Zn2   S    
C5    C25   A    
C6    H2    S    
C32   H17   S    
C13   C15   S    
H13   N2    S    
C14   C16   S    
H14   N1    S    
C37   H21   S    
C4    C27   A    
O8    Zn1   S    
C30   H15   S    
C7    C9    D    
C16   C22   A    
C1    C7    S    
C2    C8    S    
C24   C28   A    
C39   C40   A    
C3    C5    A    
C11   C12   S    
O7    Zn2   S    
C17   C25   A    
C12   H11   S    
C21   C23   A    
C35   C40   A    
C38   C39   A    
C12   N2    D    
C1    O1    A    
C29   C30   A    
C6    C26   A    
O5    Zn1   S    
C9    H10   S    
C17   C19   A    
C18   C20   A    
C23   C25   A    
C33   C34   A    
C15   C21   A    
C8    C10   D    
C27   C28   A    
