data_mof_unit_pretest_1130.cif
_audit_creation_date              2012-12-10T17:22:08-0500
_audit_creation_method            fapswitch 2.2
_symmetry_space_group_name_H-M    P1
_symmetry_Int_Tables_number       1
_space_group_crystal_system       triclinic
_cell_length_a                    10.314539
_cell_length_b                    10.775846
_cell_length_c                    15.727617
_cell_angle_alpha                 91.870434
_cell_angle_beta                  81.119411
_cell_angle_gamma                 95.800597
_cell_volume                      1718.03396353

loop_
_atom_site_label
_atom_site_type_symbol
_atom_type_description
_atom_site_fract_x
_atom_site_fract_y
_atom_site_fract_z
_atom_type_partial_charge
C1    C     C_R   0.556226 0.731774 0.496359 0.925408
C2    C     C_3   0.443510 0.634645 0.058254 0.107994
C3    C     C_3   0.519631 0.520417 0.081257 0.243855
C4    C     C_3   0.449429 0.389475 0.055489 -0.192611
C5    C     C_3   0.433536 0.384928 0.957516 -0.177936
C6    C     C_1   0.520671 0.522829 0.173386 -0.089960
C7    C     C_1   0.499991 0.508346 0.825482 -0.101402
C8    C     C_1   0.500100 0.504873 0.750101 -0.194170
C9    C     C_2   0.589969 0.863656 0.493338 -0.384956
C10   C     C_2   0.501090 0.935645 0.531779 -0.153213
C11   C     C_2   0.410370 0.135503 0.526426 -0.175502
C12   C     C_R   0.499849 0.500904 0.661240 0.887466
C13   C     C_2   0.508349 0.062628 0.505032 -0.210421
C14   C     C_2   0.932995 0.505208 0.506065 -0.198325
C15   C     C_2   0.076513 0.484870 0.491479 -0.011903
C16   C     C_R   0.443662 0.267524 0.508459 0.877868
C17   C     C_R   0.502307 0.504263 0.338643 0.910890
C18   C     C_3   0.429474 0.622478 0.960274 -0.472398
C19   C     C_3   0.647983 0.527853 0.931408 -0.432219
C20   C     C_3   0.661814 0.535291 0.028559 -0.072342
C21   C     C_1   0.511416 0.516828 0.249408 -0.202140
C22   C     C_3   0.500024 0.510772 0.917178 0.235476
H1    H     H_    0.325892 0.617419 0.949914 0.161580
H2    H     H_    0.599571 0.098299 0.465860 0.190482
H3    H     H_    0.417290 0.896697 0.576724 0.192904
H4    H     H_    0.678536 0.900618 0.451980 0.138512
H5    H     H_    0.901584 0.574392 0.554567 0.152702
H6    H     H_    0.118638 0.615387 0.578773 0.149635
H7    H     H_    0.473501 0.708617 0.925380 0.168473
H8    H     H_    0.700450 0.449704 0.899016 0.175669
H9    H     H_    0.697700 0.615005 0.900238 0.155750
H10   H     H_    0.714043 0.626754 0.043187 0.139446
H11   H     H_    0.489700 0.312668 0.922096 0.133631
H12   H     H_    0.348719 0.385135 0.092591 0.118267
N1    N     N_2   0.842720 0.448890 0.465540 -0.147378
N2    N     N_2   0.157250 0.551040 0.534500 -0.222261
O1    O     O_R   0.431050 0.692470 0.506940 -0.608204
O2    O     O_R   0.651130 0.659650 0.484820 -0.620339
O3    O     O_R   0.389910 0.516410 0.633920 -0.615571
O4    O     O_R   0.609990 0.483590 0.611800 -0.609672
O5    O     O_R   0.348870 0.340350 0.515180 -0.609335
O6    O     O_R   0.568950 0.307530 0.493060 -0.611776
O7    O     O_R   0.390010 0.516410 0.388200 -0.605241
O8    O     O_R   0.610090 0.483590 0.366080 -0.614630
Zn1   Zn    Zn3+2 0.353060 0.521920 0.514770 0.933215
Zn2   Zn    Zn3+2 0.646940 0.478080 0.485230 0.934513
N3    N     N_3   0.523463 0.754868 0.070355 -0.493045
H13   H     H_    0.466923 0.828662 0.064297 0.190426
H14   H     H_    0.603176 0.771258 0.021078 0.167243
C23   C     C_R   0.308007 0.640990 0.117677 0.138631
C24   C     C_R   0.189929 0.574631 0.099557 -0.209279
C25   C     C_R   0.068260 0.594833 0.148061 -0.144242
C26   C     C_R   0.061293 0.680269 0.216649 -0.140719
C27   C     C_R   0.176703 0.741755 0.239256 -0.166279
C28   C     C_R   0.298686 0.720698 0.191632 -0.131307
H15   H     H_    0.189513 0.508109 0.047566 0.152583
H16   H     H_    0.979039 0.544542 0.131938 0.119359
H17   H     H_    0.966806 0.696794 0.253490 0.123018
H18   H     H_    0.171871 0.805487 0.294069 0.125600
H19   H     H_    0.385768 0.769521 0.212198 0.143042
C29   C     C_R   0.510558 0.274085 0.083823 0.161682
C30   C     C_R   0.473267 0.232083 0.168712 -0.185098
C31   C     C_R   0.521187 0.126770 0.197353 -0.121720
C32   C     C_R   0.609101 0.060891 0.141675 -0.129706
C33   C     C_R   0.651027 0.101809 0.057910 -0.174158
C34   C     C_R   0.603230 0.207303 0.029083 -0.100704
H20   H     H_    0.408960 0.282767 0.213858 0.142885
H21   H     H_    0.490593 0.096821 0.263070 0.133447
H22   H     H_    0.646391 0.979341 0.163852 0.128511
H23   H     H_    0.721978 0.052405 0.015311 0.118014
H24   H     H_    0.644921 0.237770 0.965166 0.115510
C35   C     C_R   0.278666 0.090245 0.574670 0.127743
C36   C     C_R   0.226147 0.153287 0.649912 -0.126570
C37   C     C_R   0.101056 0.113371 0.693596 -0.153087
C38   C     C_R   0.027451 0.010226 0.662944 -0.123840
C39   C     C_R   0.078843 0.946544 0.588553 -0.158187
C40   C     C_R   0.203710 0.986206 0.544546 -0.180122
H25   H     H_    0.281900 0.233260 0.674774 0.135391
H26   H     H_    0.060947 0.162580 0.751121 0.145767
H27   H     H_    0.930570 0.979688 0.696833 0.124460
H28   H     H_    0.021720 0.866722 0.564735 0.126149
H29   H     H_    0.241456 0.936586 0.486423 0.139280
C41   C     C_R   0.127249 0.392790 0.426282 0.229945
C42   C     C_R   0.125226 0.267079 0.447784 -0.112333
C43   C     C_R   0.151829 0.176680 0.383215 -0.151630
C44   C     C_R   0.174576 0.210295 0.296977 -0.138274
C45   C     C_R   0.174995 0.334910 0.275175 -0.167323
C46   C     C_R   0.153741 0.425975 0.339471 -0.118124
H30   H     H_    0.097274 0.238853 0.513986 0.144395
H31   H     H_    0.147299 0.079591 0.399247 0.131931
H32   H     H_    0.189679 0.139541 0.246947 0.132953
H33   H     H_    0.188350 0.360461 0.208436 0.141506
H34   H     H_    0.151178 0.521423 0.321944 0.152273
C47   C     C_R   0.860995 0.355281 0.400401 0.290908
C48   C     C_R   0.843507 0.229018 0.422669 -0.147916
C49   C     C_R   0.843603 0.135860 0.358537 -0.187914
C50   C     C_R   0.854441 0.167958 0.272267 -0.090830
C51   C     C_R   0.864207 0.293228 0.249987 -0.139017
C52   C     C_R   0.865608 0.386516 0.313911 -0.125383
H35   H     H_    0.831628 0.203148 0.489585 0.126389
H36   H     H_    0.836187 0.038858 0.375577 0.123546
H37   H     H_    0.855323 0.095821 0.222752 0.123124
H38   H     H_    0.871605 0.317744 0.183207 0.135222
H39   H     H_    0.870243 0.483179 0.296366 0.121126
N4    N     N_3   0.745565 0.442353 0.049641 -0.451753
H40   H     H_    0.759379 0.456066 0.113807 0.184226
H41   H     H_    0.838918 0.459508 0.012870 0.178277
C53   C     C_R   0.291009 0.338395 0.944434 0.104256
C54   C     C_R   0.214649 0.398870 0.893903 -0.150799
C55   C     C_R   0.084270 0.353079 0.888656 -0.175947
C56   C     C_R   0.028179 0.244936 0.931530 -0.130055
C57   C     C_R   0.103252 0.180608 0.978343 -0.128954
C58   C     C_R   0.233578 0.225783 0.983856 -0.170641
H42   H     H_    0.251874 0.482036 0.858671 0.141031
H43   H     H_    0.026505 0.401717 0.851032 0.128245
H44   H     H_    0.927093 0.210129 0.927481 0.119924
H45   H     H_    0.060446 0.095519 0.010556 0.123508
H46   H     H_    0.289169 0.173072 0.020365 0.133601

loop_
_geom_bond_atom_site_label_1
_geom_bond_atom_site_label_2
_ccdc_geom_bond_type
C45   C46   A    
C26   H17   S    
C2    C18   S    
C48   C49   A    
C36   C37   A    
C19   C20   S    
C3    C6    S    
C19   H9    S    
C50   C51   A    
C7    C8    T    
N3    H14   S    
C26   C27   A    
O4    Zn2   S    
N4    H41   S    
C30   C31   A    
C30   H20   S    
C47   C52   A    
C44   H32   S    
C20   H10   S    
C57   H45   S    
C33   H23   S    
C53   C54   A    
C24   H15   S    
O6    Zn2   S    
C55   C56   A    
C2    C23   S    
C27   C28   A    
C29   C34   A    
C5    C22   S    
C34   H24   S    
C5    H11   S    
C36   H25   S    
C56   H44   S    
C14   H5    S    
C9    C10   D    
C50   H37   S    
C1    O1    A    
O3    Zn1   S    
C41   C46   A    
C18   C22   S    
C28   H19   S    
C47   C48   A    
C57   C58   A    
O8    Zn2   S    
C9    H4    S    
C27   H18   S    
C4    H12   S    
C37   C38   A    
C31   C32   A    
C24   C25   A    
N3    H13   S    
C3    C20   S    
C19   C22   S    
C1    C9    S    
C39   C40   A    
C14   N1    D    
C46   H34   S    
C11   C35   S    
C35   C36   A    
C15   C41   S    
C43   C44   A    
C6    C21   T    
C4    C29   S    
C17   C21   S    
C18   H1    S    
C13   H2    S    
C53   C58   A    
C12   O4    A    
C38   C39   A    
C17   O7    A    
C35   C40   A    
C11   C16   S    
C41   C42   A    
C8    C12   S    
C49   C50   A    
C23   C24   A    
N2    Zn1   S    
C18   H7    S    
C32   H22   S    
C42   C43   A    
O7    Zn1   S    
C1    O2    A    
C54   H42   S    
C10   H3    S    
C33   C34   A    
C37   H26   S    
C42   H30   S    
O1    Zn1   S    
C3    C4    S    
C16   O6    A    
C15   N2    D    
C45   H33   S    
C25   C26   A    
C44   C45   A    
C20   N4    S    
C38   H27   S    
N1    C47   S    
C31   H21   S    
C56   C57   A    
C48   H35   S    
C4    C5    S    
C10   C13   S    
C39   H28   S    
C43   H31   S    
C2    N3    S    
C7    C22   S    
N4    H40   S    
N1    Zn2   S    
C23   C28   A    
C32   C33   A    
C12   O3    A    
C2    C3    S    
C17   O8    A    
C54   C55   A    
C11   C13   D    
C40   H29   S    
C16   O5    A    
C52   H39   S    
C29   C30   A    
O2    Zn2   S    
C25   H16   S    
C58   H46   S    
H6    N2    S    
C51   C52   A    
O5    Zn1   S    
C14   C15   S    
C49   H36   S    
C19   H8    S    
C55   H43   S    
C51   H38   S    
C5    C53   S    
