data_mof_unit_pretest_319.cif
_audit_creation_date              2012-12-10T17:03:56-0500
_audit_creation_method            fapswitch 2.2
_symmetry_space_group_name_H-M    P1
_symmetry_Int_Tables_number       1
_space_group_crystal_system       triclinic
_cell_length_a                    9.90479
_cell_length_b                    10.96683
_cell_length_c                    15.817014
_cell_angle_alpha                 96.992396
_cell_angle_beta                  78.142731
_cell_angle_gamma                 112.411897
_cell_volume                      1552.65508037

loop_
_atom_site_label
_atom_site_type_symbol
_atom_type_description
_atom_site_fract_x
_atom_site_fract_y
_atom_site_fract_z
_atom_type_partial_charge
C1    C     C_R   0.559044 0.746600 0.505263 0.880431
C2    C     C_R   0.440956 0.253400 0.494737 0.880411
C3    C     C_R   0.324888 0.463047 0.079829 -0.244767
C4    C     C_R   0.675110 0.536946 0.920171 -0.244772
C5    C     C_R   0.216883 0.424533 0.027412 -0.001189
C6    C     C_R   0.783115 0.575460 0.972587 -0.001188
C7    C     C_2   0.595412 0.889444 0.511724 0.036027
C8    C     C_2   0.404599 0.110557 0.488272 0.036121
C9    C     C_2   0.518306 0.942696 0.477011 -0.099013
C10   C     C_2   0.481710 0.057306 0.522983 -0.099055
C11   C     C_2   0.924256 0.488918 0.491633 0.339403
C12   C     C_2   0.075744 0.511082 0.508367 0.339411
C13   C     C_R   0.409433 0.483243 0.662841 0.855633
C14   C     C_R   0.590567 0.516756 0.337159 0.855635
C15   C     C_R   0.351944 0.465981 0.756547 -0.091743
C16   C     C_R   0.648056 0.534017 0.243453 -0.091750
C17   C     C_R   0.156305 0.400334 0.881248 -0.176852
C18   C     C_R   0.843693 0.599662 0.118751 -0.176854
C19   C     C_R   0.199896 0.410898 0.792011 0.262070
C20   C     C_R   0.800103 0.589099 0.207988 0.262070
C21   C     C_R   0.455931 0.502699 0.811902 -0.229809
C22   C     C_R   0.544068 0.497298 0.188098 -0.229801
C23   C     C_R   0.414600 0.479133 0.900793 0.080244
C24   C     C_R   0.585399 0.520862 0.099207 0.080243
C25   C     C_R   0.260981 0.432479 0.936775 0.087023
C26   C     C_R   0.739018 0.567516 0.063225 0.087022
C27   C     C_R   0.522784 0.504474 0.954650 0.080719
C28   C     C_R   0.477214 0.495520 0.045350 0.080719
Cu1   Cu    Cu3+1 0.362980 0.479380 0.485080 1.084672
Cu2   Cu    Cu3+1 0.637020 0.520620 0.514920 1.084658
H1    H     H_    0.430019 0.446764 0.215995 0.171436
H2    H     H_    0.569980 0.553233 0.784005 0.171434
H3    H     H_    0.038827 0.366013 0.905675 0.205072
H4    H     H_    0.961172 0.633982 0.094324 0.205073
H5    H     H_    0.285136 0.465721 0.148483 0.152206
H6    H     H_    0.714861 0.534270 0.851516 0.152205
H7    H     H_    0.117509 0.381856 0.413749 0.230166
H8    H     H_    0.882491 0.618144 0.586251 0.230161
N1    N     N_2   0.842890 0.551600 0.537350 -0.276120
N2    N     N_2   0.157110 0.448400 0.462650 -0.276117
O1    O     O_R   0.426810 0.668300 0.492040 -0.533009
O2    O     O_R   0.573190 0.331700 0.507960 -0.533029
O3    O     O_R   0.658240 0.703130 0.517240 -0.540240
O4    O     O_R   0.341760 0.296870 0.482760 -0.540233
O5    O     O_R   0.319390 0.472820 0.610170 -0.515041
O6    O     O_R   0.680610 0.527180 0.389830 -0.515038
O7    O     O_R   0.550820 0.507640 0.635370 -0.579271
O8    O     O_R   0.449180 0.492360 0.364630 -0.579266
C29   C     C_2   0.059948 0.379280 0.072316 0.363930
H9    H     H_    0.031204 0.425895 0.134332 0.111186
O9    O     O_2   0.963818 0.284376 0.044453 -0.506950
C30   C     C_2   0.940050 0.620713 0.927683 0.363928
H10   H     H_    0.968794 0.574096 0.865668 0.111186
O10   O     O_2   0.036180 0.715618 0.955545 -0.506946
Br1   Br    Br    0.956523 0.657394 0.275445 -0.402763
Br2   Br    Br    0.043477 0.342604 0.724554 -0.402812
C31   C     C_2   0.499963 0.094393 0.615755 0.504234
H11   H     H_    0.530391 0.034078 0.651914 0.115141
O11   O     O_2   0.472484 0.187671 0.654877 -0.536383
C32   C     C_2   0.500127 0.905656 0.384227 0.504315
H12   H     H_    0.469812 0.966038 0.348056 0.115103
O12   O     O_2   0.527533 0.812338 0.345115 -0.536371
Br3   Br    Br    0.225313 0.999997 0.445240 -0.375713
Br4   Br    Br    0.774780 0.000018 0.554668 -0.375729
Br5   Br    Br    0.147459 0.636770 0.600905 -0.450719
Br6   Br    Br    0.852541 0.363229 0.399095 -0.450744

loop_
_geom_bond_atom_site_label_1
_geom_bond_atom_site_label_2
_ccdc_geom_bond_type
C19   Br2   S    
C12   N2    D    
C11   N1    D    
C11   C12   S    
C4    H6    S    
Cu1   Cu2   S    
C23   C27   A    
C9    C10   S    
Cu2   O6    S    
C18   C26   A    
C11   Br6   S    
C3    H5    S    
C16   C20   A    
C9    C32   S    
C17   C25   A    
C4    C27   A    
C22   C24   A    
C13   C15   S    
C2    O4    A    
Cu1   O1    S    
C14   O6    A    
C15   C19   A    
C18   H4    S    
C5    C29   S    
C31   H11   S    
C6    C26   A    
C17   H3    S    
C2    O2    A    
C20   Br1   S    
C5    C25   A    
Cu1   N2    S    
C1    O1    A    
C3    C28   A    
C17   C19   A    
C30   O10   D    
Cu2   N1    S    
H7    N2    S    
C18   C20   A    
C23   C25   A    
Cu1   O4    S    
H8    N1    S    
Cu2   O3    S    
C21   H2    S    
C14   C16   S    
C7    Br4   S    
C31   O11   D    
C4    C6    A    
C22   H1    S    
C16   C22   A    
Cu1   O8    S    
C3    C5    A    
Cu2   O7    S    
C15   C21   A    
C10   C31   S    
C30   H10   S    
C13   O5    A    
C32   O12   D    
C29   H9    S    
C12   Br5   S    
Cu1   O5    S    
C27   C28   A    
C7    C9    D    
Cu2   O2    S    
C14   O8    A    
C8    Br3   S    
C6    C30   S    
C1    C7    S    
C13   O7    A    
C21   C23   A    
C1    O3    A    
C8    C10   D    
C2    C8    S    
C24   C28   A    
C24   C26   A    
C32   H12   S    
C29   O9    D    
