data_mof_unit_pretest_858.cif
_audit_creation_date              2012-12-11T15:48:37-0500
_audit_creation_method            fapswitch 2.2
_symmetry_space_group_name_H-M    P1
_symmetry_Int_Tables_number       1
_space_group_crystal_system       triclinic
_cell_length_a                    10.96414
_cell_length_b                    10.960317
_cell_length_c                    18.797328
_cell_angle_alpha                 90.346588
_cell_angle_beta                  90.241708
_cell_angle_gamma                 60.049096
_cell_volume                      1957.17978249

loop_
_atom_site_label
_atom_site_type_symbol
_atom_type_description
_atom_site_fract_x
_atom_site_fract_y
_atom_site_fract_z
_atom_type_partial_charge
C1    C     C_R   0.239738 0.645512 0.610427 0.541253
C2    C     C_3   0.674664 0.548372 0.799998 -0.252701
C3    C     C_3   0.698009 0.673777 0.812404 0.050276
C4    C     C_3   0.669785 0.647782 0.676434 0.057121
C5    C     C_3   0.812931 0.637875 0.690221 -0.249061
C6    C     C_3   0.661466 0.531186 0.719757 -0.212635
C7    C     C_R   0.682104 0.151901 0.822186 0.016641
C8    C     C_R   0.778042 0.175790 0.785002 -0.007201
C9    C     C_R   0.772535 0.184590 0.710922 0.012937
C10   C     C_R   0.580063 0.138625 0.709369 -0.180545
C11   C     C_R   0.575898 0.145342 0.782488 -0.170493
C12   C     C_R   0.653700 0.622069 0.601030 0.540289
C13   C     C_3   0.933935 0.095996 0.786657 -0.272490
C14   C     C_3   0.929372 0.103298 0.706078 -0.281557
C15   C     C_R   0.675075 0.163400 0.672034 0.015595
C16   C     C_R   0.180662 0.667312 0.835105 0.013561
C17   C     C_R   0.154311 0.575937 0.794169 0.019271
C18   C     C_R   0.163042 0.573573 0.720387 -0.004489
C19   C     C_R   0.212973 0.763459 0.725840 -0.171657
C20   C     C_R   0.212813 0.759828 0.799744 -0.179014
C21   C     C_3   0.228295 0.419299 0.797825 -0.283402
C22   C     C_3   0.235552 0.417336 0.717329 -0.271411
C23   C     C_R   0.630411 0.225467 0.601819 0.537024
C24   C     C_R   0.195029 0.665451 0.684798 0.012788
C25   C     C_R   0.711355 0.708355 0.181627 0.010738
C26   C     C_R   0.810244 0.589203 0.218023 0.018516
C27   C     C_R   0.795264 0.571410 0.288849 0.024722
C28   C     C_R   0.585608 0.799126 0.293862 -0.152146
C29   C     C_R   0.603552 0.818252 0.221324 -0.133760
C30   C     C_3   0.866939 0.436468 0.201226 -0.269778
C31   C     C_3   0.852357 0.416526 0.279372 -0.269360
C32   C     C_R   0.676897 0.669923 0.326696 0.011107
C33   C     C_R   0.653315 0.175873 0.171994 0.015355
C34   C     C_R   0.218341 0.651830 0.402780 0.546518
C35   C     C_R   0.521932 0.244051 0.204400 -0.003800
C36   C     C_R   0.514160 0.249687 0.277205 0.038178
C37   C     C_R   0.764576 0.150458 0.287583 -0.180225
C38   C     C_R   0.773715 0.143144 0.213798 -0.165271
C39   C     C_3   0.393944 0.229664 0.197270 -0.277978
C40   C     C_3   0.391508 0.225909 0.277917 -0.262741
C41   C     C_R   0.634719 0.194958 0.320033 0.024273
C42   C     C_R   0.114281 0.691990 0.189564 0.020668
C43   C     C_R   0.121591 0.798479 0.226008 0.050068
C44   C     C_R   0.129367 0.800381 0.298019 -0.010188
C45   C     C_R   0.644550 0.624806 0.393467 0.539125
C46   C     C_R   0.108851 0.591361 0.303283 -0.157990
C47   C     C_R   0.097720 0.592876 0.228920 -0.171007
C48   C     C_3   0.210698 0.864480 0.214521 0.008308
C49   C     C_3   0.218515 0.870082 0.294844 -0.215690
C50   C     C_R   0.141006 0.686477 0.336982 0.015018
C51   C     C_R   0.701902 0.100012 0.895287 0.543238
C52   C     C_R   0.722757 0.687847 0.888371 0.550195
C53   C     C_R   0.119070 0.705489 0.906038 0.540460
C54   C     C_R   0.675278 0.109120 0.103201 0.545623
C55   C     C_R   0.732029 0.717076 0.105510 0.567430
C56   C     C_R   0.615315 0.231310 0.394313 0.544359
C57   C     C_R   0.086688 0.712844 0.114546 0.540403
C58   C     C_3   0.568418 0.808561 0.782920 -0.234011
C59   C     C_3   0.552335 0.793730 0.702663 -0.237674
C60   C     C_3   0.830648 0.649720 0.770546 -0.216904
Cr1   Cr    Cr6+3 0.392960 0.397920 0.502240 1.003454
Cr2   Cr    Cr6+3 0.398340 0.708480 0.501250 0.996920
Cr3   Cr    Cr6+3 0.708670 0.393570 0.496460 1.004174
Cr4   Cr    Cr6+3 0.937650 0.938540 0.007610 0.996486
Cr5   Cr    Cr6+3 0.625330 0.937370 0.994520 0.995811
Cr6   Cr    Cr6+3 0.937940 0.625230 0.001190 0.999407
H1    H     H_    0.583066 0.899997 0.792115 0.143527
H2    H     H_    0.749712 0.427353 0.703299 0.148362
H3    H     H_    0.923099 0.550131 0.788566 0.143384
H4    H     H_    0.900599 0.535938 0.670247 0.131643
H5    H     H_    0.499682 0.126024 0.682159 0.128401
H6    H     H_    0.493645 0.133484 0.807399 0.137110
H7    H     H_    0.973008 0.988907 0.807791 0.175345
H8    H     H_    0.978677 0.157195 0.811721 0.127030
H9    H     H_    0.972784 0.167911 0.684402 0.131982
H10   H     H_    0.967962 0.999637 0.679497 0.146127
H11   H     H_    0.232042 0.841000 0.701091 0.132543
H12   H     H_    0.227822 0.836849 0.828973 0.128937
H13   H     H_    0.160059 0.379634 0.818849 0.132072
H14   H     H_    0.331971 0.376358 0.824615 0.143288
H15   H     H_    0.343495 0.372928 0.696401 0.179482
H16   H     H_    0.170017 0.378456 0.691445 0.123712
H17   H     H_    0.495594 0.879820 0.322281 0.114528
H18   H     H_    0.527757 0.912879 0.195204 0.136879
H19   H     H_    0.978066 0.381766 0.183054 0.129324
H20   H     H_    0.794752 0.417129 0.167417 0.149347
H21   H     H_    0.771622 0.386482 0.290302 0.164593
H22   H     H_    0.447450 0.806123 0.692315 0.138334
H23   H     H_    0.955029 0.352547 0.306812 0.131541
H24   H     H_    0.858527 0.119900 0.318987 0.125675
H25   H     H_    0.877624 0.098302 0.190600 0.142657
H26   H     H_    0.410840 0.131945 0.171453 0.154922
H27   H     H_    0.304762 0.326017 0.174284 0.130130
H28   H     H_    0.296929 0.314457 0.301751 0.145114
H29   H     H_    0.419310 0.121015 0.299350 0.129742
H30   H     H_    0.103972 0.510194 0.333448 0.122283
H31   H     H_    0.081998 0.514597 0.202299 0.127278
H32   H     H_    0.152233 0.970759 0.190051 0.120516
H33   H     H_    0.557826 0.878709 0.673383 0.112646
H34   H     H_    0.326274 0.805826 0.316413 0.183894
H35   H     H_    0.161324 0.979467 0.316150 0.093418
H36   H     H_    0.851843 0.737539 0.781163 0.126574
H37   H     H_    0.818699 0.723695 0.661829 0.116323
H38   H     H_    0.764298 0.450111 0.821842 0.131346
H39   H     H_    0.577296 0.566446 0.827556 0.120161
H40   H     H_    0.561058 0.532330 0.708449 0.127780
O1    O     O_R   0.507380 0.255700 0.581440 -0.535337
O2    O     O_R   0.524480 0.695810 0.424040 -0.514131
O3    O     O_R   0.736390 0.504290 0.414790 -0.519670
O4    O     O_R   0.691300 0.277290 0.422170 -0.510488
O5    O     O_3   0.499990 0.499990 0.499980 -0.246654
O6    O     O_R   0.089400 0.825690 0.930570 -0.530182
O7    O     O_R   0.818460 0.054440 0.929850 -0.498401
O8    O     O_R   0.606060 0.077150 0.915510 -0.535286
O9    O     O_R   0.646550 0.806680 0.917570 -0.506670
O10   O     O_R   0.837170 0.593410 0.915250 -0.525077
O11   O     O_R   0.065200 0.635530 0.931570 -0.498605
O12   O     O_R   0.280320 0.527350 0.578930 -0.503290
O13   O     O_R   0.068260 0.828890 0.091840 -0.523888
O14   O     O_R   0.798870 0.057410 0.079340 -0.514692
O15   O     O_R   0.584930 0.080350 0.076780 -0.531304
O16   O     O_R   0.626960 0.809650 0.067060 -0.506391
O17   O     O_R   0.816040 0.596610 0.076510 -0.521919
O18   O     O_R   0.045610 0.638500 0.081060 -0.525592
O19   O     O_3   0.833640 0.833710 0.001100 -0.267198
O20   O     O_R   0.260510 0.739590 0.584590 -0.533121
O21   O     O_R   0.532300 0.695080 0.573820 -0.509861
O22   O     O_R   0.744840 0.503500 0.576370 -0.529204
O23   O     O_R   0.699120 0.276560 0.571960 -0.500131
O24   O     O_R   0.498940 0.256500 0.419860 -0.518852
O25   O     O_R   0.272500 0.528080 0.429150 -0.504726
O26   O     O_R   0.252060 0.740380 0.423010 -0.529420
H41   H     H_    0.470884 0.828829 0.811064 0.115687
N1    N     N_2   0.346446 0.773521 0.180260 -0.513973
H42   H     H_    0.347416 0.794455 0.126930 0.268325
C61   C     C_3   0.427765 0.624095 0.196545 -0.273011
H43   H     H_    0.538826 0.583398 0.181045 0.149210
H44   H     H_    0.388400 0.564582 0.165370 0.138949
H45   H     H_    0.425651 0.603316 0.254037 0.154823

loop_
_geom_bond_atom_site_label_1
_geom_bond_atom_site_label_2
_ccdc_geom_bond_type
C44   C49   S    
C5    H37   S    
C8    C13   S    
C54   O14   A    
C59   H33   S    
C32   C45   S    
C35   C36   A    
C9    C14   S    
C7    C8    A    
C12   O21   A    
C7    C11   A    
C26   C27   A    
C51   O7    A    
Cr4   O13   S    
Cr6   O10   S    
C37   H24   S    
C18   C24   A    
C22   H16   S    
C48   N1    S    
C28   C29   A    
C10   C15   A    
C49   H35   S    
Cr2   O21   S    
C53   O11   A    
Cr4   O6    S    
Cr2   O2    S    
C23   O23   A    
Cr5   O8    S    
C19   H11   S    
C16   C53   S    
C39   H27   S    
C59   H22   S    
Cr2   O5    S    
C19   C20   A    
C8    C9    A    
C31   H23   S    
Cr6   O11   S    
Cr5   O15   S    
C30   H20   S    
C43   C48   S    
Cr3   O22   S    
C45   O2    A    
C57   O13   A    
C3    C60   S    
C15   C23   S    
Cr1   O12   S    
C55   O16   A    
C34   O26   A    
C21   C22   S    
C28   H17   S    
C37   C41   A    
Cr5   O9    S    
C36   C41   A    
C2    C6    S    
C61   H45   S    
C60   H36   S    
C42   C57   S    
C56   O4    A    
C42   C47   A    
C52   O10   A    
C58   H41   S    
C25   C29   A    
C55   O17   A    
C34   C50   S    
C51   O8    A    
C31   H21   S    
C27   C31   S    
C22   H15   S    
Cr2   O26   S    
C28   C32   A    
C1    O20   A    
C29   H18   S    
C61   H44   S    
C39   C40   S    
Cr2   O20   S    
C11   H6    S    
C16   C17   A    
N1    C61   S    
C25   C26   A    
C38   H25   S    
C17   C21   S    
Cr5   O19   S    
Cr3   O3    S    
C35   C39   S    
C43   C44   A    
C41   C56   S    
C37   C38   A    
C4    C59   S    
C36   C40   S    
C16   C20   A    
C23   O1    A    
C21   H13   S    
C17   C18   A    
C6    H40   S    
Cr5   O16   S    
C30   H19   S    
Cr1   O24   S    
C53   O6    A    
C4    C6    S    
C48   C49   S    
C54   O15   A    
C13   H7    S    
C2    H38   S    
C26   C30   S    
Cr6   O18   S    
C4    C12   S    
C42   C43   A    
C40   H29   S    
Cr1   O5    S    
C39   H26   S    
C52   O9    A    
C44   C50   A    
C33   C54   S    
C46   C47   A    
Cr4   O7    S    
C5    C60   S    
C27   C32   A    
C18   C22   S    
C25   C55   S    
C40   H28   S    
C4    C5    S    
C5    H4    S    
C47   H31   S    
C34   O25   A    
C3    C52   S    
N1    H42   S    
C12   O22   A    
C48   H32   S    
C46   C50   A    
C2    H39   S    
C33   C38   A    
Cr4   O14   S    
Cr6   O19   S    
C20   H12   S    
C14   H9    S    
Cr3   O4    S    
C19   C24   A    
C58   C59   S    
C7    C51   S    
C10   H5    S    
C57   O18   A    
C30   C31   S    
C60   H3    S    
C21   H14   S    
C6    H2    S    
C33   C35   A    
C2    C3    S    
C45   O3    A    
C1    O12   A    
Cr3   O23   S    
Cr3   O5    S    
Cr1   O1    S    
C10   C11   A    
Cr1   O25   S    
C3    C58   S    
C58   H1    S    
C46   H30   S    
C13   H8    S    
C1    C24   S    
Cr4   O19   S    
Cr6   O17   S    
C61   H43   S    
C13   C14   S    
C56   O24   A    
C9    C15   A    
C14   H10   S    
C49   H34   S    
