data_mof_unit_pretest_310.cif
_audit_creation_date              2013-03-05T16:12:52-0500
_audit_creation_method            fapswitch 2.2
_symmetry_space_group_name_H-M    P1
_symmetry_Int_Tables_number       1
_space_group_crystal_system       triclinic
_cell_length_a                    10.812101
_cell_length_b                    9.852067
_cell_length_c                    27.51616
_cell_angle_alpha                 90.009877
_cell_angle_beta                  89.72665
_cell_angle_gamma                 90.209923
_cell_volume                      2931.01076844

loop_
_atom_site_label
_atom_site_type_symbol
_atom_site_description
_atom_site_fract_x
_atom_site_fract_y
_atom_site_fract_z
_atom_type_partial_charge
O1    O     O_R   0.316770 0.614620 0.500000 -0.560095
O2    O     O_R   0.683230 0.385380 0.500000 -0.559454
O3    O     O_R   0.683230 0.614620 0.500000 -0.555920
O4    O     O_R   0.316770 0.385380 0.500000 -0.559933
C1    C     C_R   0.259957 0.499531 0.498683 0.964033
C2    C     C_R   0.740111 0.500084 0.501471 0.978457
O5    O     O_R   0.500030 0.614650 0.428760 -0.583874
O6    O     O_R   0.499970 0.385350 0.571240 -0.599606
O7    O     O_R   0.499970 0.614650 0.571240 -0.551852
O8    O     O_R   0.500030 0.385350 0.428760 -0.569332
C3    C     C_R   0.500878 0.500246 0.406133 0.932781
C4    C     C_R   0.499500 0.500175 0.593834 0.950257
Zn1   Zn    Zn3+2 0.500000 0.653120 0.500000 1.056437
Zn2   Zn    Zn3+2 0.500000 0.346880 0.500000 1.043877
C5    C     C_R   0.511969 0.630817 0.179245 0.610304
C6    C     C_R   0.554817 0.405070 0.823362 0.605164
O9    O     O_2   0.448933 0.724613 0.205059 -0.537375
O10   O     O_2   0.573869 0.288217 0.798856 -0.538321
N1    N     N_R   0.567507 0.525127 0.202540 -0.311176
N2    N     N_R   0.521631 0.519654 0.798870 -0.313933
C7    C     C_R   0.634358 0.429561 0.178048 0.630138
C8    C     C_R   0.501246 0.639916 0.822212 0.609913
C9    C     C_R   0.636082 0.580055 0.284418 0.557911
C10   C     C_R   0.409498 0.464043 0.724432 0.555848
C11   C     C_R   0.615110 0.576826 0.334574 -0.383805
C12   C     C_R   0.406448 0.455493 0.673782 -0.421182
C13   C     C_R   0.432580 0.434677 0.323120 0.415634
C14   C     C_R   0.613644 0.552841 0.668963 0.460330
C15   C     C_R   0.452630 0.438195 0.272892 0.180437
C16   C     C_R   0.617205 0.561358 0.719588 0.187228
C17   C     C_R   0.552573 0.513110 0.253830 0.077084
C18   C     C_R   0.515779 0.515444 0.747152 0.069570
C19   C     C_R   0.583345 0.540659 0.102325 -0.057704
C20   C     C_R   0.551454 0.532516 0.898611 -0.057209
C21   C     C_R   0.519051 0.640868 0.128643 -0.020038
C22   C     C_R   0.570823 0.409325 0.873714 -0.020713
C23   C     C_R   0.459154 0.745241 0.103894 -0.149504
C24   C     C_R   0.605506 0.293573 0.899479 -0.177672
C25   C     C_R   0.642912 0.434970 0.127332 -0.123217
C26   C     C_R   0.516296 0.648781 0.872618 -0.102375
C27   C     C_R   0.515773 0.502733 0.353812 -0.239921
C28   C     C_R   0.506950 0.501745 0.646293 -0.246796
H1    H     H_    0.405914 0.821066 0.123276 0.198933
H2    H     H_    0.617135 0.196761 0.881372 0.200603
C29   C     C_R   0.537232 0.660255 0.974720 -0.067122
C30   C     C_R   0.637661 0.434421 0.024935 -0.093503
C31   C     C_R   0.612966 0.424152 0.974619 0.070308
C32   C     C_R   0.530510 0.654863 0.026173 0.095397
C33   C     C_R   0.567652 0.539266 0.949408 0.013775
C34   C     C_R   0.585062 0.544087 0.051003 0.016712
C35   C     C_R   0.512348 0.780435 0.947738 0.507290
C36   C     C_R   0.710794 0.338614 0.050690 0.495042
C37   C     C_R   0.502383 0.772323 0.896896 -0.231693
C38   C     C_R   0.709543 0.337659 0.101325 -0.190912
O11   O     O_2   0.467593 0.750438 0.796544 -0.547248
O12   O     O_2   0.690518 0.328915 0.202732 -0.546281
C39   C     C_R   0.463899 0.751548 0.053547 -0.139629
C40   C     C_R   0.625442 0.300544 0.949167 -0.164012
H3    H     H_    0.325519 0.414176 0.655903 0.196308
H4    H     H_    0.675952 0.631905 0.358774 0.200909
H5    H     H_    0.487069 0.863642 0.876008 0.204056
H6    H     H_    0.761805 0.260175 0.120075 0.216251
H7    H     H_    0.407750 0.828260 0.036743 0.185882
H8    H     H_    0.644696 0.206019 0.967333 0.232277
C41   C     C_R   0.063278 0.374032 0.503108 0.366920
C42   C     C_R   0.937551 0.623485 0.498842 0.356638
C43   C     C_R   0.935934 0.375542 0.508341 0.371564
C44   C     C_R   0.063813 0.621436 0.492124 0.374194
C45   C     C_R   0.872832 0.499793 0.503276 -0.428971
C46   C     C_R   0.127373 0.498095 0.497487 -0.432262
C47   C     C_R   0.447905 0.071504 0.537760 0.352878
C48   C     C_R   0.561044 0.926805 0.464248 0.359642
C49   C     C_R   0.551452 0.071902 0.462090 0.335610
C50   C     C_R   0.438487 0.926562 0.535488 0.353603
N3    N     N_R   0.500000 0.857200 0.500000 -0.183337
N4    N     N_R   0.500000 0.142800 0.500000 -0.184856
O13   O     O_3   0.333307 0.362538 0.341896 -0.595053
C51   C     C_3   0.234485 0.453141 0.349736 -0.289392
H9    H     H_    0.211182 0.511027 0.316252 0.190649
H10   H     H_    0.255444 0.523938 0.380036 0.129362
H11   H     H_    0.151156 0.393841 0.360184 0.176393
O14   O     O_3   0.713222 0.598138 0.641673 -0.586205
C52   C     C_3   0.791572 0.486811 0.632476 -0.331747
H12   H     H_    0.823796 0.438678 0.666735 0.196474
H13   H     H_    0.874820 0.523507 0.612723 0.173143
H14   H     H_    0.745095 0.410049 0.609169 0.153734
O15   O     O_3   0.400573 0.141364 0.577113 -0.559245
C53   C     C_3   0.477736 0.118528 0.617622 -0.208021
H15   H     H_    0.444242 0.181332 0.648337 0.199662
H16   H     H_    0.575186 0.148969 0.609871 0.140267
H17   H     H_    0.474270 0.011282 0.629977 0.191155
O16   O     O_3   0.620698 0.851939 0.428449 -0.572832
C54   C     C_3   0.741326 0.901243 0.418911 -0.143763
H18   H     H_    0.800797 0.813662 0.409388 0.165738
H19   H     H_    0.784337 0.954473 0.450372 0.182670
H20   H     H_    0.741083 0.968818 0.386691 0.176588
O17   O     O_3   0.595711 0.142232 0.422259 -0.576353
C55   C     C_3   0.515048 0.119303 0.382781 -0.173807
H21   H     H_    0.418064 0.147288 0.392098 0.179747
H22   H     H_    0.517970 0.012479 0.369970 0.173417
H23   H     H_    0.545557 0.183714 0.351915 0.203659
O18   O     O_3   0.375314 0.852320 0.570489 -0.569312
C56   C     C_3   0.250395 0.893240 0.573585 -0.143582
H24   H     H_    0.193518 0.803192 0.583236 0.166463
H25   H     H_    0.213284 0.935083 0.538974 0.175655
H26   H     H_    0.238498 0.968527 0.603212 0.180213
Br1   Br    Br    0.341294 0.343539 0.230357 -0.437566
Br2   Br    Br    0.762109 0.633209 0.750885 -0.459174
O19   O     O_3   0.312462 0.414850 0.752274 -0.588623
C57   C     C_3   0.213270 0.507044 0.749634 -0.243583
H27   H     H_    0.173427 0.510181 0.712458 0.159309
H28   H     H_    0.241757 0.610708 0.761375 0.184548
H29   H     H_    0.139100 0.472296 0.774745 0.207811
O20   O     O_3   0.730857 0.656479 0.263820 -0.577340
C58   C     C_3   0.845921 0.620383 0.284059 -0.266239
H30   H     H_    0.856411 0.508368 0.287913 0.169342
H31   H     H_    0.860001 0.671836 0.319538 0.139758
H32   H     H_    0.920413 0.656004 0.259257 0.207372
O21   O     O_3   0.520128 0.906419 0.970453 -0.601313
C59   C     C_3   0.422092 0.992472 0.956535 -0.361573
H33   H     H_    0.332492 0.937114 0.953008 0.162159
H34   H     H_    0.445321 0.046853 0.922363 0.187799
H35   H     H_    0.409614 0.070639 0.985151 0.204815
O22   O     O_3   0.787347 0.246986 0.027435 -0.612464
C60   C     C_3   0.897964 0.314297 0.014427 -0.274693
H36   H     H_    0.946481 0.354503 0.047039 0.168651
H37   H     H_    0.880736 0.397471 0.987970 0.169578
H38   H     H_    0.960434 0.240215 0.996582 0.201156
O23   O     O_3   0.124658 0.251239 0.506843 -0.559997
C61   C     C_3   0.125576 0.187680 0.460890 -0.231805
H39   H     H_    0.178662 0.091925 0.463726 0.161589
H40   H     H_    0.172585 0.251985 0.433139 0.160838
H41   H     H_    0.030440 0.161067 0.448876 0.177617
O24   O     O_3   0.877526 0.747073 0.497120 -0.587804
C62   C     C_3   0.878405 0.805620 0.543864 -0.225011
H42   H     H_    0.832842 0.738479 0.571041 0.203276
H43   H     H_    0.824730 0.901223 0.542682 0.163409
H44   H     H_    0.973954 0.831311 0.555472 0.152228
O25   O     O_3   0.872143 0.254165 0.514931 -0.566819
C63   C     C_3   0.898347 0.197603 0.560980 -0.230262
H45   H     H_    0.932923 0.272271 0.588211 0.128933
H46   H     H_    0.966780 0.114644 0.556894 0.197957
H47   H     H_    0.812035 0.152347 0.575858 0.145345
O26   O     O_3   0.125807 0.742466 0.483471 -0.580025
C64   C     C_3   0.111706 0.779811 0.434290 -0.259129
H48   H     H_    0.115693 0.691749 0.408953 0.119120
H49   H     H_    0.188544 0.849423 0.424234 0.166322
H50   H     H_    0.023857 0.835782 0.429219 0.179452

loop_
_geom_bond_atom_site_label_1
_geom_bond_atom_site_label_2
_geom_bond_distance
_ccdc_geom_bond_type
C62   H44   1.111113 S    
C42   C44   1.376966 A    
O15   C53   1.414026 S    
C54   H18   1.108601 S    
C13   C15   1.398349 A    
C63   H47   1.109354 S    
O3    C2    1.287838 A    
N1    C17   1.424647 S    
O17   C55   1.413933 S    
C32   C39   1.411745 A    
C31   C33   1.419530 A    
O13   C51   1.410558 S    
C5    N1    1.365333 A    
C19   C25   1.407785 A    
C20   C26   1.405053 A    
N1    C7    1.364989 A    
C63   H46   1.109816 S    
C64   H48   1.113732 S    
C47   N4    1.371833 A    
C48   O16   1.388363 S    
C51   H10   1.110593 S    
C25   C38   1.396483 A    
C29   C35   1.424792 A    
C58   H30   1.114928 S    
C55   H21   1.113932 S    
C30   C36   1.424581 A    
C5    O9    1.350088 S    
C14   C28   1.405637 A    
O7    Zn1   1.996615 S    
C57   H27   1.112313 S    
C4    C28   1.446177 S    
C24   C40   1.386768 A    
C37   H5    1.081379 S    
Zn1   N3    2.010610 S    
C59   H34   1.109592 S    
C41   C43   1.383810 A    
C60   H38   1.109207 S    
C35   O21   1.392037 S    
C39   H7    1.076893 S    
C11   H4    1.082613 S    
C43   O25   1.389749 S    
C12   H3    1.083878 S    
C2    C45   1.436106 S    
O3    Zn1   2.018450 S    
C59   H35   1.109415 S    
O6    C4    1.290756 A    
C50   O18   1.385416 S    
C16   Br2   1.924011 S    
C32   C34   1.419381 A    
C54   H19   1.114726 S    
C42   O24   1.382776 S    
O2    C2    1.285323 A    
C48   N3    1.365422 A    
C5    C21   1.397619 A    
C64   H49   1.109416 S    
C36   C38   1.393307 A    
O20   C58   1.412194 S    
C40   H8    1.078431 S    
C50   N3    1.363733 A    
C44   O26   1.385812 S    
C14   O14   1.382428 S    
C62   H42   1.110731 S    
C63   H45   1.114826 S    
O8    Zn2   1.996620 S    
C11   C27   1.398423 A    
C51   H9    1.114021 S    
C48   C49   1.434898 A    
C38   H6    1.083659 S    
C58   H31   1.110788 S    
C19   C34   1.412631 A    
C43   C45   1.410849 A    
C9    C17   1.400489 A    
C23   H1    1.083461 S    
C61   H40   1.112153 S    
C10   C18   1.403648 A    
C24   H2    1.083470 S    
C1    C46   1.434068 S    
C47   C50   1.432607 A    
C13   C27   1.405178 A    
O5    C3    1.287595 A    
C52   H12   1.113290 S    
C7    C25   1.399126 A    
C53   H17   1.110442 S    
C29   C33   1.419344 A    
C6    N2    1.364865 A    
C58   H32   1.109217 S    
C8    C26   1.399938 A    
C56   H25   1.114854 S    
O21   C59   1.414052 S    
C57   H29   1.109277 S    
C8    O11   1.350001 S    
C47   O15   1.380300 S    
C6    O10   1.350058 S    
C52   H13   1.108729 S    
C53   H16   1.114065 S    
C49   O17   1.379540 S    
C54   H20   1.108804 S    
C55   H22   1.110361 S    
C60   H36   1.113636 S    
C49   N4    1.372060 A    
O1    C1    1.288168 A    
C61   H41   1.112349 S    
O1    Zn1   2.015720 S    
C64   H50   1.109439 S    
C59   H33   1.114619 S    
C12   C28   1.396146 A    
O23   C61   1.410928 S    
N2    C18   1.425389 S    
C29   C32   1.418296 A    
C62   H43   1.108685 S    
C30   C31   1.414817 A    
C20   C33   1.411023 A    
O6    Zn2   1.996487 S    
C21   C23   1.396374 A    
C10   O19   1.382492 S    
C10   C12   1.396769 A    
N2    C8    1.365725 A    
O26   C64   1.411578 S    
C13   O13   1.383248 S    
C7    O12   1.349759 S    
C41   O23   1.386038 S    
O25   C63   1.414604 S    
C26   C37   1.396579 A    
O24   C62   1.409589 S    
C55   H23   1.108519 S    
C30   C34   1.416196 A    
C22   C24   1.396317 A    
C61   H39   1.109019 S    
C15   C17   1.405864 A    
O19   C57   1.410105 S    
C6    C22   1.397679 A    
C31   C40   1.411276 A    
C16   C18   1.403925 A    
C36   O22   1.381903 S    
C51   H11   1.108796 S    
O4    C1    1.284019 A    
C14   C16   1.396211 A    
O16   C54   1.413514 S    
C19   C21   1.407956 A    
C3    C27   1.448085 S    
C56   H26   1.109413 S    
C20   C22   1.409391 A    
C9    C11   1.397882 A    
O4    Zn2   2.018450 S    
O18   C56   1.413113 S    
O2    Zn2   2.015720 S    
O7    C4    1.287889 A    
C57   H28   1.113928 S    
O8    C3    1.291968 A    
C42   C45   1.408033 A    
O5    Zn1   1.996493 S    
C52   H14   1.111696 S    
C53   H15   1.107614 S    
C44   C46   1.406352 A    
O14   C52   1.410426 S    
C56   H24   1.109181 S    
C60   H37   1.112999 S    
C15   Br1   1.921833 S    
C35   C37   1.405877 A    
C23   C39   1.387464 A    
C41   C46   1.411021 A    
Zn2   N4    2.010610 S    
O22   C60   1.410141 S    
C9    O20   1.388214 S    
