data_mof_unit_pretest_814.cif
_audit_creation_date              2012-12-10T18:23:55-0500
_audit_creation_method            fapswitch 2.2
_symmetry_space_group_name_H-M    P1
_symmetry_Int_Tables_number       1
_space_group_crystal_system       triclinic
_cell_length_a                    15.754175
_cell_length_b                    15.01953
_cell_length_c                    14.172234
_cell_angle_alpha                 89.843759
_cell_angle_beta                  89.807048
_cell_angle_gamma                 87.828561
_cell_volume                      3350.99996866

loop_
_atom_site_label
_atom_site_type_symbol
_atom_type_description
_atom_site_fract_x
_atom_site_fract_y
_atom_site_fract_z
_atom_type_partial_charge
C1    C     C_R   0.499422 0.326767 0.500231 0.879684
C2    C     C_R   0.499726 0.673222 0.499881 0.905128
C3    C     C_R   0.498180 0.769179 0.499535 -0.042334
C4    C     C_R   0.497804 0.230839 0.500918 -0.059208
C5    C     C_R   0.513068 0.814528 0.415409 -0.227346
C6    C     C_R   0.482817 0.185789 0.585322 -0.205967
C7    C     C_R   0.509796 0.907307 0.412854 0.025884
C8    C     C_R   0.482709 0.092903 0.587504 0.025216
C9    C     C_R   0.495340 0.953698 0.499101 0.074043
C10   C     C_R   0.496024 0.046415 0.501089 0.073163
C11   C     C_R   0.480878 0.907129 0.583765 0.084322
C12   C     C_R   0.510183 0.092849 0.416292 0.067298
C13   C     C_R   0.522510 0.954970 0.327695 -0.043750
C14   C     C_R   0.468538 0.045177 0.672412 -0.045817
C15   C     C_R   0.523170 0.047727 0.331245 -0.145735
C16   C     C_R   0.466926 0.952362 0.668604 -0.168184
C17   C     C_R   0.443198 0.555136 0.797366 0.000119
C18   C     C_R   0.553531 0.443029 0.200172 0.015211
C19   C     C_R   0.556097 0.445640 0.799082 0.025508
C20   C     C_R   0.448553 0.560686 0.202075 0.073308
C21   C     C_R   0.564789 0.454113 0.899177 -0.063509
C22   C     C_R   0.442486 0.558718 0.101045 -0.076533
C23   C     C_R   0.338204 0.500250 0.500139 0.920260
C24   C     C_R   0.661765 0.499764 0.499866 0.886905
C25   C     C_R   0.503913 0.507184 0.949259 0.068621
C26   C     C_R   0.503162 0.506205 0.050076 0.059987
C27   C     C_R   0.444856 0.562037 0.898442 -0.051744
C28   C     C_R   0.563806 0.453174 0.100200 -0.064564
C29   C     C_R   0.635296 0.415723 0.949669 -0.043737
C30   C     C_R   0.381662 0.611946 0.049378 -0.114650
C31   C     C_R   0.635216 0.416137 0.050012 -0.030301
C32   C     C_R   0.389199 0.621142 0.950270 -0.051152
C33   C     C_3   0.972485 0.466589 0.581442 -0.112659
C34   C     C_3   0.027289 0.534531 0.418236 -0.135516
C35   C     C_3   0.031187 0.416923 0.509926 -0.111487
C36   C     C_3   0.968560 0.584183 0.489723 -0.111940
C37   C     C_1   0.249604 0.500628 0.500481 -0.036351
C38   C     C_1   0.750295 0.499833 0.499498 -0.102352
C39   C     C_3   0.025584 0.550480 0.571749 -0.131913
C40   C     C_3   0.974156 0.450658 0.427899 -0.119392
C41   C     C_3   0.083801 0.500818 0.500271 0.125834
C42   C     C_3   0.915989 0.500309 0.499414 0.136499
C43   C     C_1   0.174535 0.500847 0.500557 0.172332
C44   C     C_1   0.825319 0.500012 0.499303 0.160714
C45   C     C_R   0.481574 0.815139 0.583148 -0.223284
C46   C     C_R   0.510740 0.184630 0.416962 -0.203689
H1    H     H_    0.529228 0.776356 0.353177 0.138190
H2    H     H_    0.469780 0.224428 0.648025 0.169970
N1    N     N_R   0.500040 0.500070 0.750030 -0.168211
N2    N     N_R   0.499960 0.499930 0.249970 -0.166516
O1    O     O_R   0.500020 0.367860 0.580280 -0.639025
O2    O     O_R   0.499980 0.632140 0.419720 -0.626162
O3    O     O_R   0.500020 0.367840 0.419730 -0.646195
O4    O     O_R   0.499980 0.632160 0.580270 -0.658699
O5    O     O_R   0.376770 0.500000 0.580260 -0.616841
O6    O     O_R   0.623230 0.500000 0.419740 -0.648307
O7    O     O_R   0.376780 0.499980 0.419710 -0.546453
O8    O     O_R   0.623220 0.500020 0.580290 -0.641964
Zn1   Zn    Zn3+2 0.499990 0.500020 0.607200 0.956692
Zn2   Zn    Zn3+2 0.500010 0.499980 0.392800 0.987902
C47   C     C_2   0.063736 0.322423 0.521349 0.407471
H3    H     H_    0.019045 0.269521 0.527355 0.094397
O9    O     O_2   0.139863 0.304484 0.523957 -0.546304
C48   C     C_2   0.935938 0.678654 0.478251 0.393789
H4    H     H_    0.980584 0.731596 0.472222 0.095105
O10   O     O_2   0.859798 0.696521 0.475628 -0.552326
C49   C     C_2   0.714973 0.391619 0.897459 0.489726
H5    H     H_    0.739575 0.438032 0.846273 0.051069
O11   O     O_2   0.750305 0.318397 0.906502 -0.423180
C50   C     C_2   0.305644 0.653367 0.096085 0.537972
H6    H     H_    0.293161 0.724823 0.092273 0.076479
O12   O     O_2   0.255395 0.606929 0.137267 -0.453166
C51   C     C_2   0.715407 0.395295 0.102479 0.491470
H7    H     H_    0.735643 0.440751 0.156677 0.034374
O13   O     O_2   0.756413 0.325758 0.090031 -0.426286
C52   C     C_2   0.345835 0.699132 0.903192 0.416399
H8    H     H_    0.381573 0.739861 0.855014 0.032176
O14   O     O_2   0.270110 0.716345 0.914443 -0.499465
C53   C     C_2   0.944250 0.428207 0.673646 0.399501
H9    H     H_    0.991340 0.407163 0.725544 0.106598
O15   O     O_2   0.868962 0.420417 0.690827 -0.568118
C54   C     C_2   0.055577 0.572976 0.326118 0.424275
H10   H     H_    0.008550 0.593877 0.274091 0.085119
O16   O     O_2   0.130867 0.581002 0.309175 -0.477359
C55   C     C_2   0.947721 0.394483 0.346572 0.402266
H11   H     H_    0.995842 0.362856 0.301701 0.104003
O17   O     O_2   0.872746 0.384091 0.330352 -0.553892
C56   C     C_2   0.051679 0.607063 0.652846 0.426245
H12   H     H_    0.003455 0.637320 0.698578 0.086129
O18   O     O_2   0.126492 0.619518 0.667765 -0.494253
H13   H     H_    0.469932 0.779359 0.648219 0.141732
H14   H     H_    0.521106 0.220069 0.351689 0.203933
C57   C     C_2   0.532715 0.911048 0.233944 0.451508
H15   H     H_    0.511981 0.844222 0.221914 0.031266
O19   O     O_2   0.563497 0.950382 0.167287 -0.514362
C58   C     C_2   0.457429 0.088925 0.766194 0.473884
H16   H     H_    0.477442 0.155912 0.778708 0.117372
O20   O     O_2   0.426468 0.049232 0.832500 -0.525795
H17   H     H_    0.532665 0.085496 0.266939 0.220392
H18   H     H_    0.456652 0.914561 0.732719 0.185676
C59   C     C_2   0.372168 0.594978 0.742587 0.507676
H19   H     H_    0.382843 0.645722 0.690148 0.056200
O21   O     O_2   0.300041 0.570628 0.756068 -0.475670
C60   C     C_2   0.595612 0.366899 0.249892 0.435396
H20   H     H_    0.624766 0.374902 0.317830 0.116102
O22   O     O_2   0.598110 0.292960 0.214103 -0.537524
C61   C     C_2   0.597013 0.369053 0.749010 0.450266
H21   H     H_    0.629748 0.377412 0.682939 0.116591
O23   O     O_2   0.593556 0.294044 0.781902 -0.552800
C62   C     C_2   0.411212 0.637607 0.254014 0.523228
H22   H     H_    0.434799 0.703283 0.240451 -0.047815
O24   O     O_2   0.350386 0.630042 0.306350 -0.488773

loop_
_geom_bond_atom_site_label_1
_geom_bond_atom_site_label_2
_ccdc_geom_bond_type
C30   C32   A    
C59   H19   S    
O5    Zn1   S    
C51   O13   D    
C51   H7    S    
C36   C42   S    
C60   O22   D    
C39   C41   S    
C4    C46   A    
C55   H11   S    
C5    H1    S    
C57   H15   S    
C36   C39   S    
C6    H2    S    
C34   C40   S    
C33   C42   S    
C19   C21   A    
C52   O14   D    
C8    C10   A    
C31   C51   S    
C46   H14   S    
C7    C9    A    
C47   O9    D    
C17   C59   S    
C62   H22   S    
C20   N2    A    
O2    Zn2   S    
C29   C49   S    
C33   C39   S    
C58   O20   D    
C24   C38   S    
C61   H21   S    
C50   H6    S    
C9    C10   A    
C40   C42   S    
C59   O21   D    
C1    O3    A    
C41   C43   S    
C34   C41   S    
C42   C44   S    
C39   C56   S    
C45   H13   S    
C14   C58   S    
C60   H20   S    
C30   C50   S    
O3    Zn2   S    
O4    Zn1   S    
C55   O17   D    
C57   O19   D    
C49   H5    S    
C17   C27   A    
C18   C28   A    
C52   H8    S    
C4    C6    A    
C2    O4    A    
C17   N1    A    
C53   O15   D    
C33   C53   S    
O7    Zn2   S    
C6    C8    A    
O8    Zn1   S    
C23   C37   S    
C21   C29   A    
C3    C45   A    
O6    Zn2   S    
C13   C57   S    
C49   O11   D    
C48   O10   D    
C40   C55   S    
C37   C43   T    
C38   C44   T    
C2    O2    A    
C9    C11   A    
C11   C16   A    
C19   N1    A    
C12   C15   A    
C58   H16   S    
C35   C47   S    
C18   C60   S    
C1    O1    A    
C10   C12   A    
C20   C62   S    
C12   C46   A    
C56   O18   D    
C54   O16   D    
C13   C15   A    
C14   C16   A    
C11   C45   A    
C24   O6    A    
C18   N2    A    
C5    C7    A    
C23   O7    A    
C21   C25   A    
C8    C14   A    
C22   C30   A    
C27   C32   A    
C28   C31   A    
C16   H18   S    
C20   C22   A    
C3    C5    A    
C32   C52   S    
C23   O5    A    
C25   C27   A    
C26   C28   A    
N1    Zn1   S    
C1    C4    S    
N2    Zn2   S    
C48   H4    S    
C2    C3    S    
C25   C26   A    
C29   C31   A    
C15   H17   S    
C61   O23   D    
C33   C35   S    
C35   C40   S    
C34   C36   S    
C47   H3    S    
C35   C41   S    
C62   O24   D    
C53   H9    S    
C7    C13   A    
O1    Zn1   S    
C56   H12   S    
C24   O8    A    
C54   H10   S    
C22   C26   A    
C50   O12   D    
C34   C54   S    
C36   C48   S    
C19   C61   S    
