data_mof_unit_pretest_1986.cif
_audit_creation_date              2012-12-10T16:56:09-0500
_audit_creation_method            fapswitch 2.2
_symmetry_space_group_name_H-M    P1
_symmetry_Int_Tables_number       1
_space_group_crystal_system       triclinic
_cell_length_a                    9.694811
_cell_length_b                    10.933276
_cell_length_c                    13.885409
_cell_angle_alpha                 90.053018
_cell_angle_beta                  84.814025
_cell_angle_gamma                 89.460975
_cell_volume                      1465.70650763

loop_
_atom_site_label
_atom_site_type_symbol
_atom_type_description
_atom_site_fract_x
_atom_site_fract_y
_atom_site_fract_z
_atom_type_partial_charge
C1    C     C_R   0.499039 0.734702 0.502227 0.879038
C2    C     C_1   0.464008 0.499907 0.786169 -0.169671
C3    C     C_2   0.611193 0.065061 0.522647 0.529763
C4    C     C_2   0.503369 0.132406 0.496513 -0.408286
C5    C     C_2   0.611569 0.931222 0.508707 -0.263084
C6    C     C_2   0.494784 0.866452 0.512428 -0.396791
C7    C     C_2   0.070042 0.571485 0.555005 -0.060994
C8    C     C_2   0.914580 0.573802 0.553082 -0.064068
C9    C     C_R   0.477562 0.499943 0.682980 0.809097
C10   C     C_R   0.500880 0.265080 0.500350 0.877332
C11   C     C_R   0.522447 0.499999 0.317015 0.814965
C12   C     C_1   0.536032 0.500009 0.213813 -0.163497
C13   C     C_2   0.557257 0.500033 0.023273 -0.161271
C14   C     C_2   0.442839 0.499838 0.976699 -0.160749
C15   C     C_1   0.453403 0.499874 0.873034 0.003205
C16   C     C_1   0.546674 0.500019 0.126942 0.007465
Cu1   Cu    Cu3+1 0.361370 0.499980 0.499980 0.948142
Cu2   Cu    Cu3+1 0.638630 0.500020 0.500020 0.972353
H1    H     H_    0.413754 0.090382 0.469338 0.117078
H2    H     H_    0.393676 0.908949 0.527825 0.153083
H3    H     H_    0.112850 0.444483 0.452094 0.198398
H4    H     H_    0.856623 0.640228 0.599014 0.145750
N1    N     N_2   0.152970 0.501340 0.501040 -0.276867
N2    N     N_2   0.846830 0.501370 0.501060 -0.272377
O1    O     O_R   0.382960 0.678040 0.499980 -0.579877
O2    O     O_R   0.617100 0.678080 0.500020 -0.579886
O3    O     O_R   0.366380 0.499950 0.637830 -0.573217
O4    O     O_R   0.600520 0.499990 0.637860 -0.568576
O5    O     O_R   0.382900 0.321920 0.499980 -0.587306
O6    O     O_R   0.617040 0.321960 0.500020 -0.513959
O7    O     O_R   0.399480 0.500010 0.362140 -0.572017
O8    O     O_R   0.633620 0.500050 0.362170 -0.572636
H5    H     H_    0.340770 0.499658 0.016127 0.157949
H6    H     H_    0.899924 0.435974 0.459273 0.204058
H7    H     H_    0.659326 0.500215 0.983845 0.156826
O9    O     O_3   0.727633 0.123003 0.552183 -0.550121
C17   C     C_3   0.773804 0.064762 0.634239 -0.308103
H8    H     H_    0.833753 0.980304 0.613324 0.152949
H9    H     H_    0.686755 0.044228 0.689701 0.152686
H10   H     H_    0.844676 0.127526 0.668090 0.191092
H11   H     H_    0.711533 0.885297 0.497132 0.183579
H12   H     H_    0.114351 0.633583 0.604536 0.148544

loop_
_geom_bond_atom_site_label_1
_geom_bond_atom_site_label_2
_ccdc_geom_bond_type
C8    H4    S    
C11   C12   S    
C17   H8    S    
Cu2   O6    S    
C6    H2    S    
C10   O6    A    
Cu2   O2    S    
Cu1   O1    S    
C14   H5    S    
Cu1   Cu2   S    
C11   O7    A    
C7    C8    S    
C17   H9    S    
C13   C14   D    
C1    O1    A    
C2    C15   T    
C2    C9    S    
C10   O5    A    
Cu1   N1    S    
C3    O9    S    
Cu2   N2    S    
C5    C6    D    
O9    C17   S    
C8    N2    D    
C11   O8    A    
C13   H7    S    
C17   H10   S    
H3    N1    S    
C1    O2    A    
Cu1   O7    S    
C7    N1    D    
C7    H12   S    
Cu2   O8    S    
C4    C10   S    
C3    C4    D    
Cu1   O3    S    
C12   C16   T    
Cu1   O5    S    
Cu2   O4    S    
C9    O3    A    
C13   C16   S    
C5    H11   S    
C14   C15   S    
C4    H1    S    
N2    H6    S    
C1    C6    S    
C9    O4    A    
C3    C5    S    
