data_mof_unit_pretest_41.cif
_audit_creation_date              2012-12-10T16:53:29-0500
_audit_creation_method            fapswitch 2.2
_symmetry_space_group_name_H-M    P1
_symmetry_Int_Tables_number       1
_space_group_crystal_system       triclinic
_cell_length_a                    7.853567
_cell_length_b                    8.614841
_cell_length_c                    13.584397
_cell_angle_alpha                 93.105151
_cell_angle_beta                  78.732671
_cell_angle_gamma                 93.062702
_cell_volume                      899.183282009

loop_
_atom_site_label
_atom_site_type_symbol
_atom_type_description
_atom_site_fract_x
_atom_site_fract_y
_atom_site_fract_z
_atom_type_partial_charge
C1    C     C_R   0.544565 0.793925 0.497355 0.878591
C2    C     C_1   0.563899 0.547260 0.124040 -0.014135
C3    C     C_2   0.565535 0.953997 0.480319 -0.026597
C4    C     C_2   0.432111 0.047073 0.519060 -0.027743
C5    C     C_3   0.128873 0.381247 0.006708 -0.716945
C6    C     C_3   0.826527 0.744145 0.007741 -0.765002
C7    C     C_3   0.691887 0.005736 0.307330 -0.729749
C8    C     C_3   0.302492 0.976280 0.690574 -0.693808
C9    C     C_R   0.455195 0.206393 0.502634 0.931228
C10   C     C_R   0.470401 0.501889 0.686996 0.877347
C11   C     C_R   0.529716 0.499798 0.313051 0.883647
C12   C     C_1   0.552372 0.523085 0.210180 -0.183301
C13   C     C_1   0.449179 0.503081 0.791605 -0.169508
C14   C     C_2   0.562006 0.571813 0.021779 0.163262
C15   C     C_2   0.422337 0.512189 0.985843 0.149612
C16   C     C_1   0.432488 0.506067 0.880255 -0.024556
Cl1   Cl    Cl    0.057802 0.320246 0.389332 -0.513316
Cl2   Cl    Cl    0.940665 0.676426 0.612594 -0.545989
H1    H     H_    0.235061 0.504061 0.119157 0.243571
H2    H     H_    0.811045 0.055577 0.259419 0.258506
H3    H     H_    0.581407 0.077861 0.301567 0.233468
H4    H     H_    0.666882 0.884767 0.279074 0.214161
H5    H     H_    0.187237 0.931334 0.562318 0.298148
H6    H     H_    0.173247 0.960334 0.740289 0.251097
H7    H     H_    0.371875 0.078988 0.720020 0.220596
H8    H     H_    0.376937 0.870823 0.692165 0.231808
H9    H     H_    0.026134 0.331446 0.066185 0.243336
H10   H     H_    0.173248 0.286562 0.950191 0.246803
H11   H     H_    0.072872 0.473773 0.970629 0.252091
H12   H     H_    0.691057 0.686402 0.892865 0.248720
H13   H     H_    0.937149 0.788050 0.950579 0.244379
H14   H     H_    0.880444 0.679099 0.062200 0.251848
H15   H     H_    0.755765 0.844975 0.047150 0.239073
H16   H     H_    0.829121 0.954990 0.416296 0.269903
N1    N     N_2   0.954190 0.457600 0.473930 0.147400
N2    N     N_2   0.045810 0.542400 0.526070 0.137989
N3    N     N_2   0.272650 0.445225 0.050790 -0.301388
N4    N     N_2   0.711061 0.643648 0.958921 -0.295996
N5    N     N_2   0.716044 0.006212 0.410278 -0.261217
N6    N     N_2   0.279782 0.001056 0.589501 -0.293210
O1    O     O_R   0.388300 0.738660 0.506400 -0.621006
O2    O     O_R   0.611700 0.261340 0.493600 -0.584231
O3    O     O_R   0.679920 0.711490 0.489690 -0.592443
O4    O     O_R   0.320080 0.288510 0.510310 -0.572291
O5    O     O_R   0.333200 0.515510 0.649910 -0.595391
O6    O     O_R   0.666800 0.484490 0.350090 -0.599191
O7    O     O_R   0.624820 0.488340 0.633200 -0.569247
O8    O     O_R   0.375180 0.511660 0.366800 -0.578596
Zn1   Zn    Zn3+2 0.305280 0.518140 0.511160 1.074063
Zn2   Zn    Zn3+2 0.694720 0.481860 0.488840 1.084209

loop_
_geom_bond_atom_site_label_1
_geom_bond_atom_site_label_2
_ccdc_geom_bond_type
O4    Zn1   S    
C6    H14   S    
C11   C12   S    
C6    N4    S    
O3    Zn2   S    
C5    N3    S    
C14   N4    S    
C7    H4    S    
H1    N3    S    
O6    Zn2   S    
N1    N2    D    
C6    H15   S    
O5    Zn1   S    
C2    C12   T    
N1    Zn2   S    
C6    H13   S    
C9    O2    A    
C3    N5    S    
C5    H9    S    
C8    H7    S    
C11   O8    A    
C10   O5    A    
O1    Zn1   S    
O8    Zn1   S    
C8    H6    S    
O2    Zn2   S    
O7    Zn2   S    
C5    H11   S    
C2    C14   S    
C3    C4    D    
C5    H10   S    
C4    N6    S    
C8    H8    S    
H12   N4    S    
C7    H2    S    
C13   C16   T    
C1    O1    A    
C10   O7    A    
H5    N6    S    
C7    N5    S    
C14   C15   D    
C15   N3    S    
C9    O4    A    
Cl1   N1    S    
C8    N6    S    
C1    C3    S    
C4    C9    S    
C7    H3    S    
Cl2   N2    S    
H16   N5    S    
C1    O3    A    
N2    Zn1   S    
C15   C16   S    
C11   O6    A    
C10   C13   S    
