data_mof_unit_pretest_482.cif
_audit_creation_date              2013-03-05T15:47:35-0500
_audit_creation_method            fapswitch 2.2
_symmetry_space_group_name_H-M    P1
_symmetry_Int_Tables_number       1
_space_group_crystal_system       triclinic
_cell_length_a                    7.217942
_cell_length_b                    15.31497
_cell_length_c                    22.29348
_cell_angle_alpha                 89.987746
_cell_angle_beta                  89.998879
_cell_angle_gamma                 89.99842
_cell_volume                      2464.37840848

loop_
_atom_site_label
_atom_site_type_symbol
_atom_site_description
_atom_site_fract_x
_atom_site_fract_y
_atom_site_fract_z
_atom_type_partial_charge
O1    O     O_R   0.390810 0.844810 0.447340 -0.605715
O2    O     O_R   0.109190 0.155190 0.947340 -0.550901
O3    O     O_R   0.890810 0.655190 0.552660 -0.605738
O4    O     O_R   0.609190 0.344810 0.052660 -0.550887
O5    O     O_R   0.720550 0.655820 0.440420 -0.563390
O6    O     O_R   0.779450 0.344180 0.940420 -0.531577
O7    O     O_R   0.220550 0.844180 0.559580 -0.563582
O8    O     O_R   0.279450 0.155820 0.059580 -0.531560
C1    C     C_R   0.551170 0.627975 0.425441 1.001390
C2    C     C_R   0.948678 0.374353 0.927022 0.951846
C3    C     C_R   0.051164 0.872036 0.574549 1.001578
C4    C     C_R   0.448678 0.125644 0.072975 0.951834
O9    O     O_R   0.720530 0.844130 0.440420 -0.575867
O10   O     O_R   0.779470 0.155870 0.940420 -0.607896
O11   O     O_R   0.220530 0.655870 0.559580 -0.575920
O12   O     O_R   0.279470 0.344130 0.059580 -0.607887
O13   O     O_R   0.890830 0.844810 0.552660 -0.592079
O14   O     O_R   0.609170 0.155190 0.052660 -0.596743
O15   O     O_R   0.390830 0.655190 0.447340 -0.592073
O16   O     O_R   0.109170 0.344810 0.947340 -0.596748
C5    C     C_R   0.551209 0.874027 0.426897 0.958609
C6    C     C_R   0.947667 0.124653 0.927893 0.950487
C7    C     C_R   0.051213 0.625969 0.573100 0.959043
C8    C     C_R   0.447661 0.375347 0.072107 0.950427
O17   O     O_3   0.557310 0.749980 0.536820 -0.283666
O18   O     O_3   0.942690 0.250020 0.036820 -0.272826
O19   O     O_3   0.057310 0.750020 0.463180 -0.283538
O20   O     O_3   0.442690 0.249980 0.963180 -0.272855
V1    V     V_3+5 0.832160 0.749980 0.493170 1.232628
V2    V     V_3+5 0.667840 0.250020 0.993170 1.246534
V3    V     V_3+5 0.332160 0.750020 0.506830 1.232527
V4    V     V_3+5 0.167840 0.249980 0.006830 1.246544
C9    C     C_R   0.155937 0.576074 0.861814 -0.153332
C10   C     C_R   0.373286 0.418783 0.362214 -0.153422
C11   C     C_R   0.655849 0.923879 0.138163 -0.153377
C12   C     C_R   0.873297 0.081232 0.637789 -0.153425
H1    H     H_    0.114554 0.524979 0.949907 0.170214
H2    H     H_    0.400122 0.475166 0.449018 0.191985
H3    H     H_    0.614541 0.975011 0.050077 0.170187
H4    H     H_    0.900157 0.024867 0.550978 0.192007
H5    H     H_    0.318247 0.667004 0.775905 0.152334
H6    H     H_    0.256692 0.309819 0.279603 0.159135
H7    H     H_    0.817976 0.832853 0.224064 0.152394
H8    H     H_    0.756672 0.190178 0.720406 0.159145
H9    H     H_    0.250329 0.625834 0.877937 0.184429
H10   H     H_    0.301045 0.362260 0.379798 0.153735
H11   H     H_    0.750212 0.874107 0.122037 0.184467
H12   H     H_    0.801070 0.137762 0.620210 0.153706
C13   C     C_R   0.968724 0.448632 0.884175 -0.205820
C14   C     C_R   0.530545 0.555637 0.381698 -0.205813
C15   C     C_R   0.468719 0.051357 0.115815 -0.205813
C16   C     C_R   0.030517 0.944369 0.618295 -0.205931
C17   C     C_R   0.910140 0.480913 0.590016 -0.135338
C18   C     C_R   0.486793 0.537967 0.086365 -0.144368
C19   C     C_R   0.410139 0.019078 0.409964 -0.135272
C20   C     C_R   0.986841 0.962035 0.913640 -0.144358
C21   C     C_R   0.795046 0.434756 0.630278 -0.097683
C22   C     C_R   0.499892 0.611432 0.124856 -0.084917
C23   C     C_R   0.295003 0.065217 0.369707 -0.097699
C24   C     C_R   0.999967 0.888569 0.875150 -0.084917
C25   C     C_R   0.805146 0.453474 0.691495 -0.198651
C26   C     C_R   0.503675 0.600191 0.187169 -0.185421
C27   C     C_R   0.305095 0.046498 0.308490 -0.198647
C28   C     C_R   0.003720 0.899806 0.812836 -0.185606
C29   C     C_R   0.953416 0.501552 0.715919 0.119171
C30   C     C_R   0.485551 0.517252 0.213489 0.141102
C31   C     C_R   0.453353 0.998408 0.284064 0.119230
C32   C     C_R   0.985571 0.982743 0.786512 0.140934
C33   C     C_R   0.060484 0.552961 0.675320 0.089305
C34   C     C_R   0.439403 0.446343 0.175032 0.083522
C35   C     C_R   0.560394 0.946981 0.324659 0.089404
C36   C     C_R   0.939419 0.053653 0.824971 0.083576
C37   C     C_R   0.992839 0.503593 0.779445 0.027315
C38   C     C_R   0.488734 0.504587 0.277456 0.027089
C39   C     C_R   0.492774 0.996367 0.220538 0.027327
C40   C     C_R   0.988727 0.995407 0.722543 0.027013
C41   C     C_R   0.119441 0.567657 0.800450 0.155757
C42   C     C_R   0.398327 0.429501 0.300543 0.137939
C43   C     C_R   0.619324 0.932280 0.199527 0.155857
C44   C     C_R   0.898331 0.070502 0.699460 0.138033
C45   C     C_R   0.216781 0.620257 0.759943 -0.183831
C46   C     C_R   0.330824 0.365615 0.261832 -0.104723
C47   C     C_R   0.716576 0.879633 0.240030 -0.183931
C48   C     C_R   0.830818 0.134382 0.738175 -0.104692
C49   C     C_R   0.193387 0.610313 0.698443 -0.157620
C50   C     C_R   0.361312 0.371502 0.200397 -0.160759
C51   C     C_R   0.693191 0.889574 0.301531 -0.158250
C52   C     C_R   0.861307 0.128491 0.799608 -0.160780
C53   C     C_R   0.924140 0.441036 0.822441 -0.094201
C54   C     C_R   0.572932 0.563653 0.319460 -0.172202
C55   C     C_R   0.424123 0.058946 0.177549 -0.094222
C56   C     C_R   0.072857 0.936328 0.680531 -0.171850
C57   C     C_R   0.077867 0.518780 0.903041 -0.110232
C58   C     C_R   0.432391 0.482556 0.401836 -0.043475
C59   C     C_R   0.577838 0.981201 0.096943 -0.110205
C60   C     C_R   0.932401 0.017465 0.598160 -0.043540
C61   C     C_R   0.027367 0.547922 0.612459 -0.230700
C62   C     C_R   0.458356 0.453993 0.111737 -0.248292
C63   C     C_R   0.527344 0.952055 0.387524 -0.230518
C64   C     C_R   0.958379 0.046006 0.888266 -0.248319
H13   H     H_    0.695808 0.428612 0.719512 0.162530
H14   H     H_    0.509575 0.658045 0.214915 0.127421
H15   H     H_    0.195755 0.071360 0.280474 0.162522
H16   H     H_    0.009584 0.841945 0.785098 0.127570
H17   H     H_    0.282782 0.646863 0.668913 0.194851
H18   H     H_    0.311590 0.319697 0.172095 0.145208
H19   H     H_    0.782517 0.852985 0.331057 0.194995
H20   H     H_    0.811572 0.180294 0.827911 0.145205
C65   C     C_2   0.841400 0.358632 0.802917 0.894855
O21   O     O_2   0.929083 0.311516 0.769139 -0.649387
O22   O     O_R   0.660095 0.337973 0.819960 -0.777111
H21   H     H_    0.608594 0.285477 0.797972 0.318851
C66   C     C_2   0.724713 0.622748 0.300304 0.981297
O23   O     O_2   0.739339 0.695450 0.321990 -0.691345
O24   O     O_R   0.853148 0.594336 0.257553 -0.783746
H22   H     H_    0.950127 0.640203 0.248037 0.328605
C67   C     C_2   0.341399 0.141354 0.197080 0.894864
O25   O     O_2   0.429091 0.188460 0.230860 -0.649364
O26   O     O_R   0.160098 0.162027 0.180042 -0.777107
H23   H     H_    0.108606 0.214524 0.202034 0.318843
C68   C     C_2   0.224449 0.877131 0.699673 0.981294
O27   O     O_2   0.238526 0.804340 0.678085 -0.691569
O28   O     O_R   0.353249 0.905517 0.742313 -0.783683
H24   H     H_    0.450014 0.859552 0.751850 0.328551
C69   C     C_2   0.893351 0.468662 0.523888 1.073608
O29   O     O_2   0.742164 0.455838 0.500847 -0.657832
O30   O     O_R   0.050858 0.475479 0.487764 -0.815815
H25   H     H_    0.021723 0.467822 0.443580 0.319916
C70   C     C_2   0.483565 0.550155 0.020043 0.993822
O31   O     O_2   0.387966 0.607632 0.997875 -0.616098
O32   O     O_R   0.590175 0.496611 0.982942 -0.784151
H26   H     H_    0.575506 0.511517 0.938870 0.328892
C71   C     C_2   0.393408 0.031360 0.476089 1.073653
O33   O     O_2   0.242218 0.044120 0.499148 -0.657858
O34   O     O_R   0.550982 0.024655 0.512189 -0.815777
H27   H     H_    0.521896 0.032337 0.556374 0.319901
C72   C     C_2   0.983586 0.949847 0.979963 0.993742
O35   O     O_2   0.888053 0.892344 0.002126 -0.616102
O36   O     O_R   0.090085 0.003425 0.017071 -0.784147
H28   H     H_    0.075394 0.988519 0.061142 0.328902
C73   C     C_2   0.663230 0.365968 0.610421 1.057090
O37   O     O_2   0.511554 0.359370 0.634498 -0.627736
O38   O     O_R   0.715128 0.306410 0.565931 -0.774403
H29   H     H_    0.614258 0.262269 0.556844 0.342127
C74   C     C_2   0.502263 0.701876 0.101644 1.065036
O39   O     O_2   0.612640 0.723336 0.062720 -0.586196
O40   O     O_R   0.374173 0.762113 0.123953 -0.794349
H30   H     H_    0.374296 0.818906 0.100690 0.340877
C75   C     C_2   0.163133 0.133984 0.389569 1.057064
O41   O     O_2   0.011419 0.140534 0.365513 -0.627665
O42   O     O_R   0.215013 0.193566 0.434045 -0.774440
H31   H     H_    0.114104 0.237688 0.443137 0.342135
C76   C     C_2   0.002397 0.798127 0.898364 1.065116
O43   O     O_2   0.112830 0.776676 0.937274 -0.586191
O44   O     O_R   0.874302 0.737882 0.876075 -0.794305
H32   H     H_    0.874478 0.681090 0.899339 0.340874

loop_
_geom_bond_atom_site_label_1
_geom_bond_atom_site_label_2
_geom_bond_distance
_ccdc_geom_bond_type
O17   V3    1.757286 S    
C47   C51   1.389814 A    
C22   C26   1.400032 A    
C19   C23   1.412498 A    
O19   V1    1.757262 S    
C67   O25   1.220039 D    
C9    H9    1.083643 S    
O3    C7    1.322223 A    
O40   H30   1.012569 S    
H6    C46   1.083217 S    
C44   C48   1.392772 A    
C11   H11   1.083643 S    
C36   C64   1.422501 A    
C74   O39   1.222954 D    
C22   C74   1.478648 S    
C29   C37   1.444880 A    
O28   H24   1.014148 S    
C30   C34   1.423301 A    
O1    C5    1.322199 A    
C72   O36   1.396043 S    
C8    C62   1.495884 S    
C28   C32   1.405205 A    
O9    V1    2.027433 S    
O10   V2    2.027772 S    
C70   O31   1.222712 D    
C75   O42   1.398728 S    
C18   C22   1.418314 A    
O4    C8    1.328929 A    
C29   C33   1.426884 A    
C75   O41   1.223448 D    
O38   H29   1.014011 S    
C30   C38   1.439320 A    
C53   C65   1.462554 S    
H7    C47   1.084300 S    
O1    V3    2.011160 S    
O13   V1    2.012054 S    
O2    V4    2.011580 S    
C54   C66   1.483773 S    
C11   C43   1.399137 A    
O3    V1    2.011154 S    
C12   C60   1.384411 A    
C24   C76   1.478650 S    
C3    C16   1.483557 S    
C65   O22   1.398913 S    
C74   O40   1.397607 S    
C73   O37   1.223457 D    
C14   C54   1.426085 A    
O22   H21   1.012428 S    
C26   H14   1.081532 S    
C2    O16   1.323527 A    
O2    C6    1.328926 A    
O42   H31   1.014006 S    
C55   C67   1.462576 S    
C16   C60   1.398554 A    
C10   H10   1.083864 S    
C76   O44   1.397608 S    
C39   C55   1.442958 A    
C15   C55   1.418197 A    
O11   C7    1.339435 A    
O15   V3    2.012026 S    
O12   C8    1.334338 A    
C50   H18   1.075465 S    
H4    C60   1.083229 S    
C49   H17   1.078377 S    
C36   C52   1.396755 A    
C1    O15   1.323446 A    
O5    V1    2.027872 S    
C23   C75   1.487055 S    
O36   H28   1.014177 S    
C27   C31   1.408615 A    
O7    V3    2.027822 S    
C26   C30   1.405189 A    
H1    C57   1.082043 S    
O8    V4    2.027483 S    
C48   C52   1.390044 A    
O34   H27   1.014031 S    
C6    C64   1.495875 S    
C27   H15   1.076024 S    
C12   C44   1.396356 A    
C17   C21   1.412524 A    
O18   V4    1.757262 S    
C14   C58   1.398568 A    
C17   C61   1.421175 A    
C46   C50   1.390060 A    
C35   C63   1.423755 A    
C25   H13   1.076020 S    
C20   C24   1.418304 A    
C66   O24   1.398994 S    
C32   C36   1.423312 A    
C73   O38   1.398714 S    
O7    C3    1.337227 A    
O5    C1    1.337221 A    
C42   C46   1.392788 A    
C41   C45   1.399210 A    
O8    C4    1.339659 A    
H5    C45   1.084297 S    
H2    C58   1.083231 S    
C31   C39   1.444858 A    
O9    C5    1.339439 A    
O11   V3    2.027446 S    
H3    C59   1.082047 S    
C68   O27   1.218575 D    
C17   C69   1.491094 S    
C40   C56   1.436980 A    
C35   C51   1.399187 A    
O6    V2    2.027496 S    
C10   C58   1.384413 A    
C69   O29   1.222021 D    
C16   C56   1.426022 A    
C32   C40   1.439358 A    
C20   C64   1.419758 A    
C4    O14   1.323525 A    
O32   H26   1.014170 S    
C34   C50   1.396764 A    
C4    C15   1.492302 S    
C33   C49   1.399179 A    
C71   O34   1.397073 S    
C66   O23   1.218538 D    
O16   V4    2.011628 S    
C28   H16   1.081504 S    
C18   C70   1.490418 S    
C3    O13   1.323410 A    
C7    C61   1.492582 S    
C1    C14   1.483557 S    
C40   C44   1.418776 A    
C13   C53   1.418210 A    
H8    C48   1.083216 S    
C9    C57   1.389905 A    
O6    C2    1.339668 A    
O26   H23   1.012436 S    
C21   C25   1.396490 A    
O30   H25   1.014042 S    
C11   C59   1.389910 A    
O12   V4    2.027822 S    
C72   O35   1.222698 D    
C23   C27   1.396478 A    
C21   C73   1.487045 S    
C24   C28   1.400034 A    
O10   C6    1.334338 A    
C67   O26   1.398911 S    
C37   C53   1.442963 A    
C19   C71   1.491048 S    
C56   C68   1.483608 S    
C10   C42   1.396331 A    
C43   C47   1.399221 A    
C20   C72   1.490446 S    
C9    C41   1.399138 A    
O24   H22   1.014098 S    
C71   O33   1.222024 D    
C5    C63   1.492562 S    
C38   C54   1.436986 A    
O20   V2    1.757286 S    
C12   H12   1.083856 S    
C31   C35   1.426875 A    
O4    V2    2.011553 S    
C68   O28   1.398965 S    
O14   V2    2.011634 S    
C52   H20   1.075454 S    
C25   C29   1.408618 A    
C51   H19   1.078348 S    
C38   C42   1.418749 A    
C19   C63   1.421165 A    
O44   H32   1.012566 S    
C69   O30   1.397084 S    
C37   C41   1.420285 A    
C18   C62   1.419754 A    
C13   C57   1.397102 A    
C76   O43   1.222949 D    
C65   O21   1.220034 D    
C2    C13   1.492315 S    
C39   C43   1.420291 A    
C45   C49   1.389809 A    
C34   C62   1.422484 A    
C15   C59   1.397107 A    
C70   O32   1.396039 S    
C33   C61   1.423751 A    
