data_mof_unit_pretest_58.cif
_audit_creation_date              2012-10-26T21:32:59-0400
_audit_creation_method            fapswitch 2.2
_symmetry_space_group_name_H-M    P1
_symmetry_Int_Tables_number       1
_space_group_crystal_system       triclinic
_cell_length_a                    28.181868
_cell_length_b                    18.463471
_cell_length_c                    17.08959
_cell_angle_alpha                 90.000076
_cell_angle_beta                  60.76868
_cell_angle_gamma                 89.999983
_cell_volume                      7759.92424759

loop_
_atom_site_label
_atom_site_type_symbol
_atom_type_description
_atom_site_fract_x
_atom_site_fract_y
_atom_site_fract_z
_atom_type_partial_charge
C1    C     C_R   0.701777 0.268653 0.675809 0.891720
C2    C     C_R   0.976588 0.628868 0.421912 0.684141
C3    C     C_R   0.074092 0.900409 0.933939 0.911727
C4    C     C_R   0.574095 0.599589 0.933932 0.912414
C5    C     C_R   0.425908 0.400409 0.066061 0.911728
C6    C     C_R   0.425895 0.599571 0.066072 0.911427
C7    C     C_R   0.574106 0.400425 0.933923 0.912474
C8    C     C_R   0.529112 0.998320 0.561717 -0.128805
C9    C     C_R   0.440601 0.996801 0.528391 -0.124528
C10   C     C_R   0.059400 0.496802 0.471605 -0.124528
C11   C     C_R   0.970889 0.498321 0.438279 -0.128811
C12   C     C_R   0.500573 0.063314 0.569236 -0.033962
C13   C     C_R   0.971408 0.367633 0.433739 0.711791
C14   C     C_R   0.470895 0.932903 0.516787 -0.026287
C15   C     C_R   0.451588 0.059879 0.564223 -0.054847
C16   C     C_R   0.509768 0.931953 0.546727 -0.029823
C17   C     C_R   0.048414 0.559880 0.435771 -0.054851
C18   C     C_R   0.990233 0.431954 0.453269 -0.029824
C19   C     C_R   0.999429 0.563314 0.430757 -0.033955
C20   C     C_R   0.029106 0.432905 0.483208 -0.026287
C21   C     C_R   0.603247 0.933397 0.567597 0.005056
C22   C     C_R   0.366428 0.059616 0.520908 -0.016824
C23   C     C_R   0.387107 0.935374 0.469452 0.015753
C24   C     C_R   0.087926 0.615317 0.404318 0.731848
C25   C     C_R   0.602181 0.065439 0.569499 0.011250
C26   C     C_R   0.112893 0.435375 0.530545 0.015754
C27   C     C_R   0.897819 0.565438 0.430499 0.011243
C28   C     C_R   0.896753 0.433397 0.432403 0.005055
C29   C     C_R   0.133572 0.559617 0.479091 -0.016825
C30   C     C_R   0.656555 0.934773 0.557742 -0.083731
C31   C     C_R   0.329411 0.061999 0.486697 -0.069163
C32   C     C_R   0.340492 0.935692 0.456934 -0.090344
C33   C     C_R   0.656129 0.064957 0.558093 -0.084923
C34   C     C_R   0.159509 0.435692 0.543064 -0.090343
C35   C     C_R   0.528592 0.867633 0.566259 0.711787
C36   C     C_R   0.843871 0.564957 0.441907 -0.084923
C37   C     C_R   0.843445 0.434773 0.442258 -0.083730
C38   C     C_R   0.170589 0.561999 0.513302 -0.069162
C39   C     C_R   0.680874 0.999982 0.556282 -0.286493
C40   C     C_R   0.316707 0.000151 0.455935 -0.288695
C41   C     C_R   0.183294 0.500151 0.544063 -0.288695
C42   C     C_R   0.819126 0.499981 0.443719 -0.286491
C43   C     C_R   0.578020 0.999178 0.566958 0.062667
C44   C     C_R   0.398479 0.997437 0.505447 0.062199
C45   C     C_R   0.101522 0.497438 0.494550 0.062197
C46   C     C_R   0.412076 0.115316 0.595679 0.731845
C47   C     C_R   0.921981 0.499178 0.433040 0.062666
C48   C     C_R   0.077574 0.375781 0.552515 -0.271749
C49   C     C_R   0.928355 0.629134 0.418007 -0.285431
C50   C     C_R   0.926640 0.369040 0.420143 -0.284199
C51   C     C_R   0.129472 0.615160 0.426186 -0.264525
C52   C     C_R   0.573360 0.869040 0.579856 -0.284200
C53   C     C_R   0.370529 0.115159 0.573813 -0.264521
C54   C     C_R   0.422427 0.875780 0.447482 -0.271751
C55   C     C_R   0.571646 0.129135 0.581985 -0.285437
C56   C     C_R   0.463528 0.874224 0.470606 0.701012
C57   C     C_R   0.523415 0.128870 0.578074 0.684126
C58   C     C_R   0.721270 0.264826 0.952631 -0.125788
C59   C     C_R   0.278612 0.734865 0.047445 -0.137617
C60   C     C_R   0.278903 0.264531 0.047208 -0.134224
C61   C     C_R   0.298158 0.731216 0.324224 0.867877
C62   C     C_R   0.721156 0.735365 0.952734 -0.124788
C63   C     C_R   0.221096 0.764529 0.952792 -0.134218
C64   C     C_R   0.778845 0.235366 0.047267 -0.124780
C65   C     C_R   0.778731 0.764826 0.047369 -0.125797
C66   C     C_R   0.221388 0.234865 0.952555 -0.137617
C67   C     C_R   0.778308 0.271887 0.910043 0.666182
C68   C     C_R   0.221610 0.727475 0.089859 0.677068
C69   C     C_R   0.221891 0.271891 0.089635 0.665621
C70   C     C_R   0.778191 0.728284 0.910158 0.662002
C71   C     C_R   0.278107 0.771893 0.910368 0.665641
C72   C     C_R   0.298211 0.268675 0.324199 0.911861
C73   C     C_R   0.721808 0.228303 0.089849 0.661996
C74   C     C_R   0.721693 0.771906 0.089950 0.666189
C75   C     C_R   0.278392 0.227476 0.910138 0.677054
C76   C     C_R   0.806551 0.257086 0.956835 -0.345976
C77   C     C_R   0.193382 0.742393 0.043071 -0.337237
C78   C     C_R   0.193674 0.256992 0.042832 -0.342644
C79   C     C_R   0.806433 0.743086 0.956948 -0.348610
C80   C     C_R   0.306324 0.756993 0.957172 -0.342662
C81   C     C_R   0.693566 0.243105 0.043058 -0.348600
C82   C     C_R   0.693450 0.757104 0.043158 -0.345984
C83   C     C_R   0.701768 0.731363 0.675814 0.891065
C84   C     C_R   0.306620 0.242395 0.956926 -0.337221
C85   C     C_R   0.643902 0.326432 0.945550 -0.200376
C86   C     C_R   0.356030 0.673418 0.054487 -0.198710
C87   C     C_R   0.356221 0.326236 0.054322 -0.198344
C88   C     C_R   0.643820 0.673699 0.945620 -0.199706
C89   C     C_R   0.143779 0.826236 0.945678 -0.198344
C90   C     C_R   0.856179 0.173697 0.054381 -0.199710
C91   C     C_R   0.856100 0.826430 0.054448 -0.200372
C92   C     C_R   0.143970 0.173417 0.945513 -0.198708
C93   C     C_R   0.616609 0.347077 0.898285 -0.073305
C94   C     C_R   0.201789 0.768675 0.675801 0.911863
C95   C     C_R   0.383330 0.652814 0.101753 -0.075679
C96   C     C_R   0.383425 0.347036 0.101680 -0.074124
C97   C     C_R   0.616569 0.652978 0.898314 -0.073486
C98   C     C_R   0.116575 0.847035 0.898320 -0.074124
C99   C     C_R   0.883431 0.152977 0.101687 -0.073485
C100  C     C_R   0.883392 0.847076 0.101714 -0.073306
C101  C     C_R   0.116670 0.152814 0.898247 -0.075679
C102  C     C_R   0.633161 0.322108 0.813209 -0.256139
C103  C     C_R   0.366724 0.677709 0.186867 -0.256376
C104  C     C_R   0.366803 0.322187 0.186825 -0.255658
C105  C     C_R   0.798232 0.231365 0.324186 0.891064
C106  C     C_R   0.633139 0.677916 0.813216 -0.257077
C107  C     C_R   0.133196 0.822187 0.813175 -0.255660
C108  C     C_R   0.866861 0.177916 0.186784 -0.257075
C109  C     C_R   0.866838 0.822108 0.186791 -0.256141
C110  C     C_R   0.133277 0.177708 0.813132 -0.256376
C111  C     C_R   0.679515 0.281302 0.770750 -0.088339
C112  C     C_R   0.320315 0.718392 0.229363 -0.083239
C113  C     C_R   0.320472 0.281339 0.229258 -0.093958
C114  C     C_R   0.679477 0.718756 0.770775 -0.087841
C115  C     C_R   0.179528 0.781339 0.770742 -0.093959
C116  C     C_R   0.798222 0.768654 0.324191 0.891721
C117  C     C_R   0.820524 0.218758 0.229225 -0.087846
C118  C     C_R   0.820484 0.781304 0.229250 -0.088334
C119  C     C_R   0.179685 0.218392 0.770636 -0.083238
C120  C     C_R   0.707774 0.259603 0.816501 -0.102028
C121  C     C_R   0.291970 0.739917 0.183694 -0.112532
C122  C     C_R   0.292264 0.259556 0.183457 -0.102612
C123  C     C_R   0.707694 0.740527 0.816567 -0.103056
C124  C     C_R   0.207736 0.759555 0.816543 -0.102609
C125  C     C_R   0.792308 0.240531 0.183432 -0.103055
C126  C     C_R   0.792224 0.759607 0.183500 -0.102027
C127  C     C_R   0.201842 0.231216 0.675776 0.867878
C128  C     C_R   0.208030 0.239916 0.816306 -0.112536
C129  C     C_R   0.690194 0.282476 0.904773 0.148324
C130  C     C_R   0.309644 0.717188 0.095346 0.149257
C131  C     C_R   0.309926 0.282288 0.095108 0.149566
C132  C     C_R   0.690093 0.717689 0.904861 0.148827
C133  C     C_R   0.190073 0.782287 0.904892 0.149569
C134  C     C_R   0.809907 0.217690 0.095139 0.148820
C135  C     C_R   0.809806 0.782476 0.095226 0.148330
C136  C     C_R   0.190356 0.217187 0.904654 0.149257
C137  C     C_R   0.691098 0.129341 0.535207 0.886725
C138  C     C_R   0.036472 0.374225 0.529391 0.701012
C139  C     C_R   0.308618 0.870787 0.466310 0.887777
C140  C     C_R   0.303191 0.127836 0.482905 0.890504
C141  C     C_R   0.691294 0.870611 0.534964 0.889287
C142  C     C_R   0.196809 0.627836 0.517094 0.890505
C143  C     C_R   0.808706 0.370611 0.465036 0.889285
C144  C     C_R   0.808902 0.629341 0.464793 0.886725
C145  C     C_R   0.191382 0.370788 0.533690 0.887775
C146  C     C_R   0.074105 0.099571 0.933928 0.911428
C147  C     C_R   0.925895 0.900424 0.066076 0.912470
C148  C     C_R   0.925905 0.099588 0.066068 0.912417
F1    F     F_    0.000918 0.318060 0.560586 -0.605256
F2    F     F_    0.193219 0.703389 0.175645 -0.625006
F3    F     F_    0.193461 0.295934 0.175455 -0.650383
F4    F     F_    0.806632 0.704596 0.824189 -0.656029
F5    F     F_    0.306535 0.795939 0.824553 -0.650390
F6    F     F_    0.693364 0.204634 0.175825 -0.656034
F7    F     F_    0.693253 0.795580 0.175925 -0.646200
F8    F     F_    0.306783 0.203389 0.824352 -0.625010
F9    F     F_    0.996495 0.694430 0.427220 -0.609323
F10   F     F_    0.999124 0.304416 0.418856 -0.606153
F11   F     F_    0.090831 0.665267 0.343935 -0.567110
F12   F     F_    0.500877 0.804415 0.581140 -0.606155
F13   F     F_    0.409175 0.165268 0.656058 -0.567120
F14   F     F_    0.499082 0.818058 0.439411 -0.605258
F15   F     F_    0.503512 0.194436 0.572746 -0.609302
F16   F     F_    0.806751 0.295543 0.824060 -0.646207
H1    H     H_    0.721758 0.000127 0.547062 0.195283
H2    H     H_    0.340340 0.157499 0.602513 0.212226
H3    H     H_    0.420179 0.830929 0.408716 0.195139
H4    H     H_    0.583626 0.180832 0.595820 0.206772
H5    H     H_    0.649798 0.236623 0.077410 0.195946
H6    H     H_    0.350070 0.763718 0.922967 0.199682
H7    H     H_    0.350369 0.235687 0.922709 0.206196
H8    H     H_    0.649683 0.763591 0.077504 0.199244
H9    H     H_    0.149634 0.735684 0.077287 0.206201
H10   H     H_    0.850320 0.263559 0.922483 0.199241
H11   H     H_    0.850200 0.736591 0.922603 0.195949
H12   H     H_    0.285014 0.001053 0.437288 0.189363
H13   H     H_    0.149926 0.263714 0.077039 0.199678
H14   H     H_    0.630750 0.347287 0.012304 0.163050
H15   H     H_    0.369251 0.652673 0.987662 0.165058
H16   H     H_    0.369435 0.346967 0.987494 0.166003
H17   H     H_    0.630656 0.652869 0.012389 0.164254
H18   H     H_    0.130565 0.846967 0.012506 0.166004
H19   H     H_    0.869342 0.152864 0.987614 0.164252
H20   H     H_    0.869253 0.847282 0.987692 0.163051
H21   H     H_    0.130749 0.152673 0.012338 0.165057
H22   H     H_    0.744008 0.226525 0.782968 0.190502
H23   H     H_    0.214987 0.501053 0.562711 0.189363
H24   H     H_    0.255640 0.772813 0.217302 0.192058
H25   H     H_    0.256014 0.226502 0.216989 0.190502
H26   H     H_    0.743917 0.773628 0.783046 0.189130
H27   H     H_    0.243985 0.726501 0.783011 0.190497
H28   H     H_    0.756087 0.273636 0.216952 0.189148
H29   H     H_    0.755988 0.726532 0.217034 0.190486
H30   H     H_    0.244360 0.272813 0.782698 0.192056
H31   H     H_    0.611995 0.338774 0.777544 0.184972
H32   H     H_    0.387927 0.661121 0.222501 0.185014
H33   H     H_    0.387912 0.338959 0.222544 0.184383
H34   H     H_    0.778242 0.500127 0.452939 0.195284
H35   H     H_    0.612005 0.661192 0.777521 0.184639
H36   H     H_    0.112088 0.838958 0.777456 0.184382
H37   H     H_    0.887995 0.161192 0.222479 0.184639
H38   H     H_    0.888005 0.838774 0.222455 0.184972
H39   H     H_    0.112074 0.161120 0.777499 0.185014
H40   H     H_    0.079820 0.330930 0.591281 0.195139
H41   H     H_    0.916375 0.680828 0.404168 0.206770
H42   H     H_    0.916875 0.319131 0.398342 0.200062
H43   H     H_    0.159661 0.657499 0.397485 0.212227
H44   H     H_    0.583125 0.819132 0.601658 0.200062
O1    O     O_R   0.746490 0.236330 0.638080 -0.620220
O2    O     O_R   0.325830 0.813840 0.483730 -0.621672
O3    O     O_R   0.325830 0.186160 0.483730 -0.630564
O4    O     O_R   0.674170 0.813840 0.516270 -0.620292
O5    O     O_R   0.174170 0.686160 0.516270 -0.630567
O6    O     O_R   0.825830 0.313840 0.483730 -0.620292
O7    O     O_R   0.825830 0.686160 0.483730 -0.623912
O8    O     O_R   0.174170 0.313840 0.516270 -0.621672
O9    O     O_R   0.739960 0.127620 0.525000 -0.627977
O10   O     O_R   0.260040 0.872380 0.475000 -0.623148
O11   O     O_R   0.260040 0.127620 0.475000 -0.631123
O12   O     O_R   0.253510 0.763670 0.361920 -0.637957
O13   O     O_R   0.739960 0.872380 0.525000 -0.629676
O14   O     O_R   0.239960 0.627620 0.525000 -0.631123
O15   O     O_R   0.760040 0.372380 0.475000 -0.629678
O16   O     O_R   0.760040 0.627620 0.475000 -0.627975
O17   O     O_R   0.239960 0.372380 0.525000 -0.623148
O18   O     O_R   0.680700 0.294870 0.629350 -0.630358
O19   O     O_R   0.319300 0.705130 0.370650 -0.632251
O20   O     O_R   0.319300 0.294870 0.370650 -0.620633
O21   O     O_R   0.680700 0.705130 0.629350 -0.630335
O22   O     O_R   0.180700 0.794870 0.629350 -0.620633
O23   O     O_R   0.253510 0.236330 0.361920 -0.618947
O24   O     O_R   0.819300 0.205130 0.370650 -0.630337
O25   O     O_R   0.819300 0.794870 0.370650 -0.630357
O26   O     O_R   0.180700 0.205130 0.629350 -0.632251
O27   O     O_R   0.062020 0.072840 0.007170 -0.622407
O28   O     O_R   0.937980 0.927160 0.992830 -0.624045
O29   O     O_R   0.937980 0.072840 0.992830 -0.623132
O30   O     O_R   0.062020 0.927160 0.007170 -0.621714
O31   O     O_R   0.562020 0.572840 0.007170 -0.623131
O32   O     O_R   0.437980 0.427160 0.992830 -0.621714
O33   O     O_R   0.437980 0.572840 0.992830 -0.622407
O34   O     O_R   0.746490 0.763670 0.638080 -0.622164
O35   O     O_R   0.562020 0.427160 0.007170 -0.624046
O36   O     O_R   0.947860 0.073950 0.109290 -0.620639
O37   O     O_R   0.052140 0.926050 0.890710 -0.622215
O38   O     O_R   0.052140 0.073950 0.890710 -0.621589
O39   O     O_R   0.947860 0.926050 0.109290 -0.620102
O40   O     O_R   0.447860 0.573950 0.109290 -0.621589
O41   O     O_R   0.552140 0.426050 0.890710 -0.620103
O42   O     O_R   0.552140 0.573950 0.890710 -0.620639
O43   O     O_R   0.447860 0.426050 0.109290 -0.622214
O44   O     O_R   0.246490 0.736330 0.638080 -0.618947
O45   O     O_R   0.753510 0.263670 0.361920 -0.622157
O46   O     O_R   0.753510 0.736330 0.361920 -0.620226
O47   O     O_R   0.246490 0.263670 0.638080 -0.637957
O48   O     O_R   0.674170 0.186160 0.516270 -0.623913
Zn1   Zn    Zn3+2 0.792340 0.208750 0.507670 1.016603
Zn2   Zn    Zn3+2 0.494040 0.500000 0.919480 0.982363
Zn3   Zn    Zn3+2 0.005960 0.000000 0.080520 0.982365
Zn4   Zn    Zn3+2 0.994040 0.000000 0.919480 0.974508
Zn5   Zn    Zn3+2 0.207660 0.791250 0.492330 1.004442
Zn6   Zn    Zn3+2 0.207660 0.208750 0.492330 1.012131
Zn7   Zn    Zn3+2 0.792340 0.791250 0.507670 1.009400
Zn8   Zn    Zn3+2 0.292340 0.708750 0.507670 1.012129
Zn9   Zn    Zn3+2 0.707660 0.291250 0.492330 1.009409
Zn10  Zn    Zn3+2 0.707660 0.708750 0.492330 1.016597
Zn11  Zn    Zn3+2 0.292340 0.291250 0.507670 1.004447
Zn12  Zn    Zn3+2 0.505960 0.500000 0.080520 0.974511

loop_
_geom_bond_atom_site_label_1
_geom_bond_atom_site_label_2
_ccdc_geom_bond_type
C125  C134  A    
C1    O18   A    
C14   C56   A    
O48   Zn9   S    
C59   C130  S    
C65   C79   A    
C5    O32   A    
C137  O9    A    
C123  C132  A    
C78   H13   S    
C104  H33   S    
C5    O43   A    
C11   C47   A    
O12   Zn5   S    
C139  O10   A    
C8    C43   A    
C80   H6    S    
C121  C130  A    
C99   C148  S    
C84   H7    S    
C122  C131  A    
C102  H31   S    
C25   C43   A    
C102  C111  A    
C24   F11   S    
C28   C47   A    
O41   Zn2   S    
C116  O46   A    
C99   C108  A    
C34   C41   A    
C83   O34   A    
C11   C19   A    
C142  O14   A    
C33   C39   A    
C30   C141  S    
C124  C133  A    
C106  C114  A    
C127  O47   A    
C12   C57   A    
C63   C133  S    
C6    O40   A    
C109  H38   S    
C72   O23   A    
C128  H30   S    
C128  C136  A    
C16   C35   A    
C143  O15   A    
C107  H36   S    
C90   C134  A    
C34   C145  S    
C51   H43   S    
C75   C84   A    
C11   C18   A    
C138  F1    S    
C10   C17   A    
C87   C131  A    
C71   F5    S    
C56   F14   S    
O9    Zn1   S    
C31   C40   A    
C62   C70   A    
C20   C138  A    
C37   C42   A    
O37   Zn4   S    
C35   F12   S    
C3    C98   S    
C41   H23   S    
C85   C129  A    
C87   H16   S    
C21   C43   A    
C85   C93   A    
C67   F16   S    
C26   C34   A    
C22   C44   A    
C113  C122  A    
C10   C20   A    
C85   H14   S    
C9    C44   A    
C46   F13   S    
C141  O13   A    
C116  O25   A    
C30   C39   A    
C64   C73   A    
C61   O12   A    
O6    Zn1   S    
C147  O39   A    
C105  O45   A    
C91   C100  A    
C54   H3    S    
C88   C97   A    
C26   C45   A    
C26   C48   A    
O25   Zn7   S    
C119  C128  A    
C24   C51   A    
C29   C51   A    
C62   C82   A    
O22   Zn5   S    
O4    Zn10  S    
C100  C109  A    
C8    C16   A    
C4    C97   S    
C23   C32   A    
C38   C142  S    
C83   C114  S    
C105  C117  S    
C69   C78   A    
C92   C136  A    
O11   Zn6   S    
C28   C50   A    
C55   H4    S    
C74   C82   A    
C7    C93   S    
C75   F8    S    
C60   C131  S    
C73   C81   A    
C71   C80   A    
C3    O30   A    
C95   C103  A    
O19   Zn8   S    
C22   C53   A    
C82   H8    S    
C36   C42   A    
C139  O2    A    
O2    Zn8   S    
C13   F10   S    
C66   C78   A    
C94   O44   A    
C64   C134  S    
C101  C146  S    
O28   Zn4   S    
C17   C24   A    
C89   C133  A    
C22   C31   A    
C3    O37   A    
C1    O1    A    
C120  C129  A    
C69   F3    S    
C105  O24   A    
C79   H11   S    
C42   H34   S    
C29   C38   A    
C70   F4    S    
O35   Zn12  S    
C32   C139  S    
O33   Zn2   S    
C58   C81   A    
C33   C137  S    
C40   H12   S    
O44   Zn8   S    
C92   H21   S    
C86   C130  A    
C83   O21   A    
O45   Zn9   S    
C101  C110  A    
C111  C120  A    
C145  O17   A    
C72   C113  S    
C62   C132  S    
C65   C74   A    
C148  O29   A    
O21   Zn10  S    
O5    Zn5   S    
C110  H39   S    
C39   H1    S    
C9    C14   A    
C108  H37   S    
C2    C49   A    
O7    Zn7   S    
C59   C68   A    
C145  O8    A    
C53   H2    S    
C140  O11   A    
O1    Zn1   S    
C57   F15   S    
C12   C15   A    
O34   Zn7   S    
C106  H35   S    
C87   C96   A    
O29   Zn4   S    
O3    Zn11  S    
C64   C76   A    
O30   Zn3   S    
C6    O33   A    
C61   O19   A    
O38   Zn4   S    
C123  H26   S    
C141  O4    A    
C107  C115  A    
C65   C135  S    
C92   C101  A    
C38   C41   A    
C143  O6    A    
C66   C136  S    
C114  C123  A    
C13   C18   A    
C5    C96   S    
C60   C69   A    
O23   Zn6   S    
C49   H41   S    
C126  C135  A    
C81   H5    S    
O24   Zn1   S    
C55   C57   A    
C14   C16   A    
C103  H32   S    
C97   C106  A    
C7    O35   A    
C122  H25   S    
C50   H42   S    
C90   C99   A    
C35   C52   A    
O20   Zn11  S    
C21   C52   A    
C94   O22   A    
C23   C54   A    
C63   C77   A    
C27   C47   A    
C68   C77   A    
C68   F2    S    
C146  O38   A    
C146  O27   A    
O46   Zn10  S    
C127  O26   A    
C77   H9    S    
C115  C124  A    
C37   C143  S    
C2    C19   A    
C52   H44   S    
C93   C102  A    
C104  C113  A    
C108  C117  A    
C25   C55   A    
C142  O5    A    
C63   C71   A    
O13   Zn7   S    
C120  H22   S    
C110  C119  A    
C144  O7    A    
O39   Zn3   S    
C94   C115  S    
C54   C56   A    
C59   C80   A    
O40   Zn12  S    
C27   C36   A    
C118  C126  A    
C21   C30   A    
C48   H40   S    
C48   C138  A    
C89   C98   A    
C89   H18   S    
C7    O41   A    
C96   C104  A    
C36   C144  S    
C4    O42   A    
C112  C121  A    
C1    C111  S    
C121  H24   S    
O16   Zn10  S    
C60   C84   A    
C126  H29   S    
C88   H17   S    
C70   C79   A    
O47   Zn11  S    
C28   C37   A    
C2    F9    S    
C66   C75   A    
O43   Zn12  S    
C46   C53   A    
C76   H10   S    
C86   H15   S    
C17   C19   A    
C4    O31   A    
C116  C118  S    
O31   Zn12  S    
C125  H28   S    
C18   C20   A    
O15   Zn9   S    
C32   C40   A    
C9    C15   A    
C147  O28   A    
C144  O16   A    
C137  O48   A    
O36   Zn3   S    
C86   C95   A    
C98   C107  A    
O18   Zn9   S    
O8    Zn6   S    
C13   C50   A    
C27   C49   A    
C58   C67   A    
O26   Zn6   S    
C91   C135  A    
C90   H19   S    
C109  C118  A    
O27   Zn3   S    
C6    C95   S    
C72   O20   A    
C10   C45   A    
C29   C45   A    
C100  C147  S    
C148  O36   A    
O10   Zn5   S    
C88   C132  A    
C103  C112  A    
C73   F6    S    
C67   C76   A    
C58   C129  S    
C15   C46   A    
O32   Zn2   S    
C31   C140  S    
C91   H20   S    
C61   C112  S    
C117  C125  A    
C74   F7    S    
O17   Zn11  S    
C124  H27   S    
O42   Zn2   S    
C8    C12   A    
C140  O3    A    
C25   C33   A    
O14   Zn8   S    
C23   C44   A    
C119  C127  S    
