data_mof_unit_pretest_1941.cif
_audit_creation_date              2012-12-10T18:40:10-0500
_audit_creation_method            fapswitch 2.2
_symmetry_space_group_name_H-M    P1
_symmetry_Int_Tables_number       1
_space_group_crystal_system       triclinic
_cell_length_a                    15.799034
_cell_length_b                    11.574596
_cell_length_c                    10.785246
_cell_angle_alpha                 90.002198
_cell_angle_beta                  89.806639
_cell_angle_gamma                 89.997777
_cell_volume                      1972.25904564

loop_
_atom_site_label
_atom_site_type_symbol
_atom_type_description
_atom_site_fract_x
_atom_site_fract_y
_atom_site_fract_z
_atom_type_partial_charge
C1    C     C_1   0.499999 0.161049 0.499995 -0.143244
C2    C     C_1   0.500001 0.940841 0.500002 0.039536
C3    C     C_3   0.971660 0.397198 0.536614 0.255042
C4    C     C_3   0.028341 0.602685 0.463308 0.279322
C5    C     C_3   0.028651 0.418693 0.423323 0.262759
C6    C     C_3   0.971347 0.581203 0.576600 0.225729
C7    C     C_1   0.249084 0.499970 0.500837 -0.110579
C8    C     C_1   0.750914 0.499998 0.499154 -0.116390
C9    C     C_3   0.026610 0.478073 0.616200 0.209679
C10   C     C_3   0.973385 0.521807 0.383732 0.287798
C11   C     C_3   0.083847 0.499725 0.502082 -0.168639
C12   C     C_1   0.500002 0.838951 0.500004 -0.143842
C13   C     C_3   0.916149 0.500167 0.497847 -0.183441
C14   C     C_1   0.174206 0.499894 0.501519 0.235656
C15   C     C_1   0.825792 0.500038 0.498444 0.226585
C16   C     C_1   0.499996 0.500000 0.069778 0.097039
C17   C     C_1   0.500004 0.500000 0.930222 0.095057
C18   C     C_R   0.499999 0.281179 0.499998 0.910398
C19   C     C_R   0.500002 0.718821 0.500002 0.910040
C20   C     C_R   0.337510 0.500012 0.500201 0.893962
C21   C     C_R   0.662489 0.499988 0.499798 0.893508
C22   C     C_1   0.500000 0.059159 0.499998 0.039811
H1    H     H_    0.010207 0.293941 0.309878 0.385736
H2    H     H_    0.989766 0.705785 0.690276 0.379335
H3    H     H_    0.990608 0.241476 0.589805 0.383515
H4    H     H_    0.009408 0.758582 0.410677 0.381619
H5    H     H_    0.000054 0.597258 0.057772 0.402800
H6    H     H_    0.940875 0.490198 0.853644 0.370959
N1    N     N_1   0.499990 0.500000 0.180630 -0.067082
N2    N     N_1   0.500010 0.500000 0.819370 -0.067680
O1    O     O_R   0.499990 0.334450 0.602530 -0.604768
O2    O     O_3   0.939365 0.666870 0.655200 -0.701755
O3    O     O_3   0.940036 0.289687 0.573359 -0.672297
O4    O     O_3   0.059974 0.710191 0.426558 -0.671090
O5    O     O_2   0.887874 0.450211 0.183113 -0.257244
O6    O     O_2   0.884605 0.657747 0.230339 -0.286353
O7    O     O_3   0.023479 0.571298 0.138135 -0.440318
O8    O     O_2   0.118766 0.345155 0.768304 -0.225542
O9    O     O_2   0.109292 0.551044 0.819482 -0.270712
O10   O     O_3   0.977637 0.421294 0.861559 -0.438499
O11   O     O_R   0.500010 0.665550 0.397470 -0.604869
O12   O     O_R   0.500010 0.334450 0.397470 -0.605600
O13   O     O_R   0.499990 0.665550 0.602530 -0.606304
O14   O     O_R   0.376780 0.500000 0.602510 -0.596332
O15   O     O_R   0.623220 0.500000 0.397490 -0.596446
O16   O     O_R   0.376780 0.500000 0.397450 -0.598531
O17   O     O_R   0.623220 0.500000 0.602550 -0.603985
O18   O     O_3   0.060617 0.333112 0.344604 -0.658582
S1    S     S_3+6 0.938605 0.550864 0.229947 0.093187
S2    S     S_3+6 0.061539 0.448798 0.769969 0.103918
Zn1   Zn    Zn3+2 0.500000 0.500000 0.636920 1.037076
Zn2   Zn    Zn3+2 0.500000 0.500000 0.363080 1.040060

loop_
_geom_bond_atom_site_label_1
_geom_bond_atom_site_label_2
_ccdc_geom_bond_type
C2    C22   S    
C6    O2    S    
N2    Zn1   S    
H2    O2    S    
O5    S1    D    
C3    C9    S    
O7    S1    S    
O11   Zn2   S    
C3    C13   S    
C2    C12   T    
C6    C9    S    
C18   O12   A    
C8    C21   S    
C1    C22   T    
C21   O17   A    
O6    S1    D    
C4    C11   S    
C17   N2    T    
C9    C11   S    
O13   Zn1   S    
C1    C18   S    
H5    O7    S    
O10   S2    S    
C12   C19   S    
C20   O14   A    
C19   O13   A    
C5    C11   S    
C8    C15   T    
C21   O15   A    
C13   C15   S    
N1    Zn2   S    
C5    O18   S    
C4    O4    S    
O8    S2    D    
H6    O10   S    
C4    C10   S    
O16   Zn2   S    
C5    C10   S    
O9    S2    D    
O14   Zn1   S    
C4    C6    S    
C7    C20   S    
O1    Zn1   S    
C11   C14   S    
C3    O3    S    
O17   Zn1   S    
H1    O18   S    
O15   Zn2   S    
C3    C5    S    
C16   N1    T    
C10   S1    S    
H4    O4    S    
C7    C14   T    
C20   O16   A    
C9    S2    S    
C19   O11   A    
C18   O1    A    
H3    O3    S    
C16   C17   S    
C6    C13   S    
C10   C13   S    
O12   Zn2   S    
