data_mof_unit_pretest_259.cif
_audit_creation_date              2013-03-05T16:46:58-0500
_audit_creation_method            fapswitch 2.2
_symmetry_space_group_name_H-M    P1
_symmetry_Int_Tables_number       1
_space_group_crystal_system       triclinic
_cell_length_a                    15.011992
_cell_length_b                    8.916105
_cell_length_c                    8.112698
_cell_angle_alpha                 89.975484
_cell_angle_beta                  89.934618
_cell_angle_gamma                 90.162436
_cell_volume                      1085.86726162

loop_
_atom_site_label
_atom_site_type_symbol
_atom_site_description
_atom_site_fract_x
_atom_site_fract_y
_atom_site_fract_z
_atom_type_partial_charge
O1    O     O_R   0.500000 0.285350 0.636850 -0.626127
O2    O     O_R   0.500000 0.714650 0.363150 -0.621504
O3    O     O_R   0.500000 0.714650 0.636850 -0.597936
O4    O     O_R   0.500000 0.285350 0.363150 -0.592358
C1    C     C_R   0.499806 0.218053 0.500050 0.996452
C2    C     C_R   0.499791 0.781941 0.499980 0.980602
O5    O     O_R   0.367850 0.500000 0.636890 -0.595080
O6    O     O_R   0.632150 0.500000 0.363110 -0.590179
O7    O     O_R   0.632150 0.500000 0.636890 -0.603046
O8    O     O_R   0.367850 0.500000 0.363110 -0.597682
C3    C     C_R   0.326702 0.500406 0.500288 0.974000
C4    C     C_R   0.673353 0.500395 0.500063 0.988251
Zn1   Zn    Zn3+2 0.500000 0.500000 0.682780 1.117466
Zn2   Zn    Zn3+2 0.500000 0.500000 0.317220 1.121150
N1    N     N_1   0.500000 0.500000 0.073640 0.011934
N2    N     N_1   0.500000 0.500000 0.926360 0.013912
C5    C     C_R   0.812909 0.614490 0.587271 0.289951
C6    C     C_R   0.185957 0.380088 0.430206 0.288059
C7    C     C_R   0.814316 0.381590 0.428261 0.239028
C8    C     C_R   0.187558 0.614578 0.586383 0.293804
C9    C     C_R   0.768749 0.500040 0.502315 -0.306031
C10   C     C_R   0.231349 0.499427 0.503066 -0.330772
C11   C     C_R   0.906536 0.370017 0.451503 -0.104192
C12   C     C_R   0.094074 0.615058 0.592449 -0.042659
C13   C     C_R   0.906474 0.616459 0.590338 -0.038713
C14   C     C_R   0.093039 0.370956 0.446443 -0.074663
C15   C     C_R   0.953315 0.492653 0.522313 -0.086658
C16   C     C_R   0.046799 0.492835 0.520819 -0.119745
C17   C     C_R   0.953013 0.238473 0.406412 0.335197
C18   C     C_R   0.047116 0.734117 0.667662 0.353149
C19   C     C_R   0.953811 0.739932 0.655882 0.366663
C20   C     C_R   0.046068 0.240823 0.396705 0.460806
C21   C     C_1   0.499742 0.065218 0.500093 -0.037963
C22   C     C_1   0.499726 0.934758 0.499992 -0.040849
O9    O     O_3   0.909808 0.103609 0.380894 -0.709352
H1    H     H_    0.862336 0.094540 0.465344 0.388960
O10   O     O_3   0.092768 0.845034 0.751624 -0.671858
H2    H     H_    0.055507 0.880317 0.844762 0.363054
O11   O     O_3   0.908582 0.868179 0.702040 -0.686288
H3    H     H_    0.947972 0.956612 0.687806 0.356123
O12   O     O_3   0.092620 0.113315 0.351399 -0.657412
H4    H     H_    0.052009 0.036866 0.304514 0.391254
N3    N     N_R   0.761458 0.728785 0.667665 0.260328
O13   O     O_R   0.716315 0.824788 0.580678 -0.365912
O14   O     O_R   0.754685 0.729808 0.827628 -0.294727
N4    N     N_R   0.235282 0.270046 0.338879 0.263647
O15   O     O_R   0.228790 0.264732 0.179075 -0.305059
O16   O     O_R   0.289004 0.178988 0.414690 -0.341536
N5    N     N_R   0.767263 0.278320 0.323211 0.234468
O17   O     O_R   0.703030 0.195729 0.381843 -0.388615
O18   O     O_R   0.790942 0.263090 0.169797 -0.291707
N6    N     N_R   0.239419 0.734768 0.655106 0.260247
O19   O     O_R   0.263256 0.730110 0.809179 -0.302943
O20   O     O_R   0.271922 0.838273 0.559123 -0.326940

loop_
_geom_bond_atom_site_label_1
_geom_bond_atom_site_label_2
_geom_bond_distance
_ccdc_geom_bond_type
O3    Zn1   1.949621 S    
C13   C19   1.413025 A    
C7    C11   1.401490 A    
N3    O13   1.301467 A    
C5    N3    1.436779 S    
C14   C20   1.415158 A    
O10   H2    0.991474 S    
C11   C15   1.419807 A    
C13   C15   1.421816 A    
O12   H4    0.989628 S    
C17   O9    1.380420 S    
C3    C10   1.431596 S    
C14   C16   1.425019 A    
O9    H1    0.991107 S    
C6    C14   1.403082 A    
O6    C4    1.272251 A    
O3    C2    1.261897 A    
C5    C13   1.404906 A    
C21   C22   1.163198 T    
C8    N6    1.436007 S    
N4    O15   1.301082 A    
O5    C3    1.269364 A    
N3    O14   1.301632 A    
O2    C2    1.262054 A    
C2    C22   1.362536 S    
O1    C1    1.261864 A    
C11   C17   1.414441 A    
C7    C9    1.395687 A    
N6    O20   1.300795 A    
C17   C20   1.399165 A    
C12   C18   1.414194 A    
O4    Zn2   1.949622 S    
C18   C19   1.405153 A    
O2    Zn2   1.949934 S    
O7    C4    1.270123 A    
N4    O16   1.300862 A    
O1    Zn1   1.949935 S    
O8    C3    1.272220 A    
C20   O12   1.385726 S    
N1    N2    1.194837 T    
C6    N4    1.436441 S    
O5    Zn1   2.018883 S    
N6    O19   1.301240 A    
N5    O17   1.301143 A    
O8    Zn2   2.018048 S    
Zn1   N2    1.976091 S    
O11   H3    0.990867 S    
C19   O11   1.383096 S    
C7    N5    1.439236 S    
Zn2   N1    1.976091 S    
O7    Zn1   2.018046 S    
O6    Zn2   2.018881 S    
N5    O18   1.301240 A    
C6    C10   1.394004 A    
C4    C9    1.432231 S    
C8    C12   1.404208 A    
C5    C9    1.397719 A    
C12   C16   1.423376 A    
C18   O10   1.381826 S    
C8    C10   1.395185 A    
O4    C1    1.262123 A    
C15   C16   1.403428 A    
C1    C21   1.362686 S    
