data_mof_unit_pretest_1265.cif
_audit_creation_date              2012-12-10T19:25:06-0500
_audit_creation_method            fapswitch 2.2
_symmetry_space_group_name_H-M    P1
_symmetry_Int_Tables_number       1
_space_group_crystal_system       triclinic
_cell_length_a                    15.68888
_cell_length_b                    10.60891
_cell_length_c                    9.879114
_cell_angle_alpha                 90.719865
_cell_angle_beta                  89.167114
_cell_angle_gamma                 90.202855
_cell_volume                      1643.98589798

loop_
_atom_site_label
_atom_site_type_symbol
_atom_type_description
_atom_site_fract_x
_atom_site_fract_y
_atom_site_fract_z
_atom_type_partial_charge
C1    C     C_R   0.496773 0.258276 0.499850 0.962434
C2    C     C_R   0.503491 0.741696 0.500158 0.965681
C3    C     C_3   0.564674 0.963841 0.578973 -0.003053
C4    C     C_3   0.435939 0.036049 0.421059 -0.011188
C5    C     C_3   0.504690 0.876434 0.499247 -0.234765
C6    C     C_3   0.495880 0.123537 0.500845 -0.247550
C7    C     C_3   0.427034 0.952968 0.547332 0.386325
C8    C     C_3   0.573517 0.047042 0.452819 0.448714
C9    C     C_3   0.485515 0.388865 0.046234 0.193791
C10   C     C_3   0.514457 0.611156 0.953753 0.190675
C11   C     C_3   0.557822 0.425852 0.949169 0.134547
C12   C     C_3   0.442162 0.574159 0.050840 0.136451
C13   C     C_3   0.427690 0.463175 0.953477 0.172614
C14   C     C_3   0.572299 0.536848 0.046510 0.161717
C15   C     C_R   0.338534 0.499171 0.500802 0.919233
C16   C     C_R   0.661466 0.500584 0.499195 0.922601
C17   C     C_3   0.969967 0.417855 0.592164 0.355113
C18   C     C_3   0.030007 0.579792 0.408012 0.387487
C19   C     C_3   0.027691 0.382412 0.470101 0.359844
C20   C     C_3   0.972307 0.615230 0.530014 0.370991
C21   C     C_1   0.249807 0.498085 0.502478 -0.073247
C22   C     C_1   0.750190 0.500856 0.497516 -0.069695
C23   C     C_3   0.026523 0.533528 0.623662 -0.124998
C24   C     C_3   0.973450 0.464189 0.376475 -0.129691
C25   C     C_3   0.083806 0.497972 0.501305 -0.219368
C26   C     C_3   0.916185 0.499740 0.498817 -0.214854
C27   C     C_1   0.174589 0.497687 0.502566 0.189282
C28   C     C_1   0.825406 0.500554 0.497466 0.188094
C29   C     C_3   0.486610 0.040745 0.627564 0.068169
C30   C     C_3   0.514029 0.959195 0.372609 0.066194
N1    N     N_3   0.499940 0.500030 0.863290 -0.111085
N2    N     N_3   0.500060 0.499970 0.136710 -0.111547
O1    O     O_R   0.500000 0.313960 0.616610 -0.626607
O2    O     O_R   0.500000 0.686040 0.383390 -0.628333
O3    O     O_R   0.500040 0.313950 0.383350 -0.594801
O4    O     O_R   0.499960 0.686050 0.616650 -0.595469
O5    O     O_R   0.376760 0.499990 0.616610 -0.604975
O6    O     O_R   0.623240 0.500010 0.383390 -0.604522
O7    O     O_R   0.376790 0.499980 0.383350 -0.616997
O8    O     O_R   0.623210 0.500020 0.616650 -0.617786
Zn1   Zn    Zn3+2 0.499980 0.500010 0.655740 0.979782
Zn2   Zn    Zn3+2 0.500020 0.499990 0.344260 0.980731
S1    S     S_3+6 0.067365 0.229228 0.427921 0.071564
O9    O     O_2   0.122136 0.236965 0.302215 -0.285182
O10   O     O_2   0.119630 0.181599 0.542614 -0.260576
O11   O     O_3   0.985078 0.130796 0.400125 -0.500491
H1    H     H_    0.011617 0.049124 0.374682 0.421036
S2    S     S_3+6 0.932959 0.768820 0.571141 0.086156
O12   O     O_2   0.884201 0.818355 0.453484 -0.234495
O13   O     O_2   0.875014 0.761246 0.693258 -0.298646
O14   O     O_3   0.015322 0.865404 0.604958 -0.471212
H2    H     H_    0.988939 0.947728 0.628084 0.405301
S3    S     S_3+6 0.927129 0.313024 0.715858 0.087389
O15   O     O_2   0.868492 0.384600 0.810384 -0.279239
O16   O     O_2   0.877628 0.209713 0.646864 -0.223359
O17   O     O_3   0.006804 0.250913 0.805298 -0.510928
H3    H     H_    0.015926 0.165437 0.766480 0.396279
S4    S     S_3+6 0.072256 0.685567 0.284853 0.080437
O18   O     O_2   0.122633 0.787488 0.354434 -0.195221
O19   O     O_2   0.129283 0.614080 0.187699 -0.316924
O20   O     O_3   0.991604 0.750174 0.199995 -0.512024
H4    H     H_    0.019406 0.807415 0.134218 0.392935
C31   C     C_3   0.941280 0.425289 0.237394 -0.553476
H5    H     H_    0.996203 0.405715 0.168375 0.274895
H6    H     H_    0.901335 0.339158 0.246213 0.256900
H7    H     H_    0.902499 0.502384 0.195295 0.241685
C32   C     C_3   0.058626 0.572540 0.762750 -0.567162
H8    H     H_    0.003663 0.592416 0.831599 0.268811
H9    H     H_    0.097259 0.495395 0.805076 0.243148
H10   H     H_    0.098717 0.658512 0.753883 0.263227
C33   C     C_3   0.640429 0.927478 0.665114 -0.681221
H11   H     H_    0.692176 0.998222 0.655380 0.301889
H12   H     H_    0.621223 0.926598 0.773130 0.225115
H13   H     H_    0.665308 0.834008 0.632328 0.239906
C34   C     C_3   0.360280 0.071911 0.334508 -0.688810
H14   H     H_    0.308750 0.000769 0.343953 0.304917
H15   H     H_    0.335048 0.165216 0.367150 0.238832
H16   H     H_    0.379741 0.072828 0.226601 0.223594
C35   C     C_3   0.467958 0.081140 0.773053 -0.833937
H17   H     H_    0.450649 0.998074 0.834522 0.250851
H18   H     H_    0.525102 0.125190 0.817365 0.249864
H19   H     H_    0.414141 0.148313 0.775944 0.233805
C36   C     C_3   0.533776 0.918816 0.227480 -0.771648
H20   H     H_    0.547752 0.002491 0.164970 0.248313
H21   H     H_    0.590229 0.856396 0.225142 0.258444
H22   H     H_    0.478296 0.869602 0.184107 0.233022
S5    S     S_3+6 0.328063 0.887553 0.606910 0.044350
O21   O     O_2   0.294327 0.797844 0.501633 -0.262214
O22   O     O_2   0.340457 0.817435 0.736225 -0.334771
O23   O     O_3   0.256880 0.003627 0.633260 -0.450968
H23   H     H_    0.276716 0.049346 0.714965 0.354006
S6    S     S_3+6 0.672306 0.111930 0.392151 0.025119
O24   O     O_2   0.658535 0.184629 0.264938 -0.330507
O25   O     O_2   0.708191 0.198466 0.498686 -0.298522
O26   O     O_3   0.741059 0.993854 0.359873 -0.499832
H24   H     H_    0.795346 0.036083 0.334822 0.422779
C37   C     C_3   0.630234 0.346380 0.889871 -0.719079
H25   H     H_    0.653739 0.281035 0.967699 0.249833
H26   H     H_    0.608879 0.292062 0.800617 0.259123
H27   H     H_    0.683348 0.408830 0.857254 0.269364
C38   C     C_3   0.369606 0.653450 0.110064 -0.726218
H28   H     H_    0.346270 0.719051 0.032353 0.248338
H29   H     H_    0.316413 0.590895 0.142135 0.270392
H30   H     H_    0.390668 0.707484 0.199691 0.258492
C39   C     C_3   0.461906 0.261272 0.100688 -0.848105
H31   H     H_    0.408069 0.274624 0.173030 0.258629
H32   H     H_    0.441137 0.198062 0.017672 0.223372
H33   H     H_    0.517285 0.219273 0.150618 0.289843
C40   C     C_3   0.537987 0.738778 0.899227 -0.843736
H34   H     H_    0.558937 0.801955 0.982162 0.224376
H35   H     H_    0.591714 0.725385 0.826697 0.258859
H36   H     H_    0.482535 0.780842 0.849489 0.288376
C41   C     C_3   0.341729 0.420474 0.899596 -0.780347
H37   H     H_    0.301690 0.384109 0.984095 0.239610
H38   H     H_    0.308558 0.501491 0.854174 0.268323
H39   H     H_    0.350757 0.344677 0.822684 0.237568
C42   C     C_3   0.658196 0.579745 0.100413 -0.760793
H40   H     H_    0.698244 0.616058 0.015897 0.239858
H41   H     H_    0.649021 0.655655 0.177176 0.245822
H42   H     H_    0.691408 0.498850 0.146002 0.264954

loop_
_geom_bond_atom_site_label_1
_geom_bond_atom_site_label_2
_ccdc_geom_bond_type
S5    O21   D    
C31   H6    S    
C38   H28   S    
C7    C29   S    
O26   H24   S    
O2    Zn2   S    
S1    O9    D    
C37   H25   S    
C1    O1    A    
S3    O15   D    
C39   H32   S    
C17   C23   S    
C18   C24   S    
C17   C26   S    
C24   C26   S    
O6    Zn2   S    
C42   H41   S    
C11   C14   S    
C24   C31   S    
C9    C39   S    
O17   H3    S    
C10   C40   S    
C23   C32   S    
C30   C36   S    
C3    C29   S    
O3    Zn2   S    
C9    C13   S    
C15   O5    A    
C4    C34   S    
C9    N2    S    
C10   N1    S    
C18   S4    S    
S2    O14   S    
C7    S5    S    
C8    S6    S    
C41   H39   S    
C12   C38   S    
C2    O2    A    
S4    O20   S    
S2    O13   D    
C21   C27   T    
C31   H7    S    
C11   N1    S    
C38   H29   S    
C22   C28   T    
C12   N2    S    
O4    Zn1   S    
C18   C25   S    
C4    C7    S    
C34   H16   S    
C37   H26   S    
C19   S1    S    
O7    Zn2   S    
S3    O16   D    
C39   H33   S    
O14   H2    S    
C35   H17   S    
C4    C6    S    
C3    C8    S    
C10   C14   S    
C42   H42   S    
C5    C7    S    
C6    C8    S    
S4    O18   D    
S6    O26   S    
C1    C6    S    
C32   H9    S    
C3    C33   S    
C34   H14   S    
C33   H13   S    
C34   H15   S    
C36   H20   S    
C29   C35   S    
C20   C23   S    
C14   C42   S    
C6    C29   S    
S6    O25   D    
C32   H8    S    
S1    O10   D    
C15   O7    A    
C20   S2    S    
C10   C12   S    
C16   O8    A    
S2    O12   D    
C36   H21   S    
C38   H30   S    
C9    C11   S    
C40   H36   S    
C2    C5    S    
C17   S3    S    
C37   H27   S    
C1    O3    A    
C35   H18   S    
C41   H37   S    
S3    O17   S    
C2    O4    A    
O11   H1    S    
O8    Zn1   S    
C16   C22   S    
N1    Zn1   S    
C13   N1    S    
C14   N2    S    
C3    C5    S    
C35   H19   S    
C25   C27   S    
C39   H31   S    
C26   C28   S    
C11   C37   S    
C32   H10   S    
C8    C30   S    
C40   H35   S    
C19   C24   S    
O1    Zn1   S    
C33   H11   S    
C42   H40   S    
O23   H23   S    
C20   C26   S    
S6    O24   D    
C17   C19   S    
C18   C20   S    
C23   C25   S    
O5    Zn1   S    
O20   H4    S    
C19   C25   S    
S1    O11   S    
C4    C30   S    
C31   H5    S    
C15   C21   S    
C36   H22   S    
C12   C13   S    
C5    C30   S    
S5    O23   S    
C33   H12   S    
S5    O22   D    
N2    Zn2   S    
C40   H34   S    
S4    O19   D    
C13   C41   S    
C16   O6    A    
C41   H38   S    
