data_mof_unit_pretest_1595.cif
_audit_creation_date              2012-12-10T19:26:39-0500
_audit_creation_method            fapswitch 2.2
_symmetry_space_group_name_H-M    P1
_symmetry_Int_Tables_number       1
_space_group_crystal_system       triclinic
_cell_length_a                    19.161386
_cell_length_b                    10.50342
_cell_length_c                    9.813819
_cell_angle_alpha                 90.613192
_cell_angle_beta                  89.067412
_cell_angle_gamma                 90.15661
_cell_volume                      1974.74884743

loop_
_atom_site_label
_atom_site_type_symbol
_atom_type_description
_atom_site_fract_x
_atom_site_fract_y
_atom_site_fract_z
_atom_type_partial_charge
C1    C     C_R   0.500963 0.257972 0.499053 0.990108
C2    C     C_R   0.499037 0.742028 0.500946 0.990107
C3    C     C_3   0.550914 0.042421 0.579818 0.376753
C4    C     C_3   0.449085 0.957579 0.420182 0.376752
C5    C     C_3   0.562235 0.954659 0.454218 -0.357704
C6    C     C_3   0.437765 0.045341 0.545781 -0.357704
C7    C     C_3   0.498815 0.876768 0.502894 -0.292870
C8    C     C_3   0.501185 0.123232 0.497105 -0.292871
C9    C     C_3   0.488204 0.963022 0.628162 0.417880
C10   C     C_3   0.511796 0.036978 0.371837 0.417881
C11   C     C_3   0.453645 0.423720 0.048666 -0.122546
C12   C     C_3   0.546355 0.576279 0.951334 -0.122547
C13   C     C_3   0.512960 0.386892 0.949103 -0.165325
C14   C     C_3   0.487040 0.613108 0.050896 -0.165325
C15   C     C_3   0.440484 0.535336 0.955189 0.460146
C16   C     C_3   0.559516 0.464664 0.044811 0.460146
C17   C     C_R   0.366274 0.501061 0.500946 0.910088
C18   C     C_R   0.633726 0.498939 0.499053 0.910091
C19   C     C_R   0.254864 0.608892 0.554072 0.432719
C20   C     C_R   0.745136 0.391114 0.445917 0.432722
C21   C     C_R   0.182412 0.607651 0.553802 -0.172625
C22   C     C_R   0.817588 0.392366 0.446161 -0.172622
C23   C     C_R   0.146463 0.501476 0.501962 -0.001250
C24   C     C_R   0.853537 0.498548 0.497982 -0.001254
C25   C     C_R   0.183742 0.396448 0.449903 -0.105382
C26   C     C_R   0.816258 0.603573 0.550049 -0.105381
C27   C     C_R   0.255993 0.397455 0.450010 -0.234780
C28   C     C_R   0.744007 0.602556 0.549968 -0.234784
C29   C     C_R   0.291352 0.502795 0.502717 -0.098841
C30   C     C_R   0.708647 0.497208 0.497280 -0.098840
C31   C     C_R   0.929621 0.499352 0.498844 0.330299
C32   C     C_R   0.070379 0.500680 0.501080 0.330299
H1    H     H_    0.154514 0.690128 0.592999 0.192299
H2    H     H_    0.845486 0.309891 0.406959 0.192299
H3    H     H_    0.157288 0.313552 0.409060 0.180249
H4    H     H_    0.842712 0.686476 0.590879 0.180250
H5    H     H_    0.284401 0.315759 0.410057 0.174789
H6    H     H_    0.715598 0.684250 0.589924 0.174788
H7    H     H_    0.612762 0.914422 0.417553 0.220724
H8    H     H_    0.387238 0.085578 0.582447 0.220725
H9    H     H_    0.523908 0.292083 0.902496 0.231363
H10   H     H_    0.476092 0.707917 0.097504 0.231363
N1    N     N_R   0.035354 0.399400 0.449261 -0.155691
N2    N     N_R   0.964647 0.600633 0.550660 -0.155690
N3    N     N_R   0.966161 0.398736 0.448173 -0.152648
N4    N     N_R   0.033840 0.601297 0.551748 -0.152648
N5    N     N_3   0.499950 0.500030 0.863290 -0.152069
N6    N     N_3   0.500050 0.499970 0.136710 -0.152068
O1    O     O_R   0.500000 0.313960 0.616610 -0.608407
O2    O     O_R   0.500000 0.686040 0.383390 -0.608407
O3    O     O_R   0.500030 0.313950 0.383350 -0.576847
O4    O     O_R   0.499970 0.686050 0.616650 -0.576847
O5    O     O_R   0.398120 0.499990 0.616660 -0.557103
O6    O     O_R   0.601880 0.500010 0.383340 -0.557105
O7    O     O_R   0.398150 0.499980 0.383410 -0.619042
O8    O     O_R   0.601850 0.500020 0.616590 -0.619040
Zn1   Zn    Zn3+2 0.499980 0.500010 0.655740 1.055852
Zn2   Zn    Zn3+2 0.500020 0.499990 0.344260 1.055851
Cl1   Cl    Cl    0.298214 0.746704 0.612720 -0.473167
Cl2   Cl    Cl    0.701787 0.253296 0.387287 -0.473172
Cl3   Cl    Cl    0.357904 0.585932 0.896449 -0.460520
Cl4   Cl    Cl    0.642096 0.414068 0.103551 -0.460525
Cl5   Cl    Cl    0.618507 0.101612 0.686107 -0.466478
Cl6   Cl    Cl    0.381493 0.898387 0.313893 -0.466483
Cl7   Cl    Cl    0.471853 0.915571 0.799777 -0.437926
Cl8   Cl    Cl    0.528147 0.084429 0.200223 -0.437927
C33   C     C_1   0.401515 0.336804 0.107299 0.377303
N7    N     N_1   0.360471 0.268032 0.153552 -0.139344
C34   C     C_1   0.598486 0.663195 0.892701 0.377304
N8    N     N_1   0.639529 0.731967 0.846447 -0.139341

loop_
_geom_bond_atom_site_label_1
_geom_bond_atom_site_label_2
_ccdc_geom_bond_type
C12   C34   S    
C27   C29   A    
C1    C8    S    
C17   C29   S    
C2    C7    S    
C15   N5    S    
C16   N6    S    
C6    C9    S    
C13   H9    S    
C20   C30   A    
C19   C21   A    
C24   C26   A    
C12   N5    S    
C21   H1    S    
O1    Zn1   S    
O8    Zn1   S    
C2    O2    A    
C11   C15   S    
C12   C16   S    
N2    N4    A    
C18   C30   S    
C20   Cl2   S    
C17   O7    A    
C18   O8    A    
C14   H10   S    
C11   N6    S    
C16   Cl4   S    
C4    C7    S    
C11   C33   S    
C10   Cl8   S    
C22   H2    S    
C31   N2    A    
C33   N7    T    
O2    Zn2   S    
C4    C6    S    
C3    C8    S    
C5    C7    S    
O5    Zn1   S    
C14   N6    S    
C19   Cl1   S    
C3    C9    S    
N5    Zn1   S    
C1    O3    A    
C28   H6    S    
C15   Cl3   S    
O3    Zn2   S    
N1    N3    A    
C2    O4    A    
C25   H3    S    
C26   H4    S    
C20   C22   A    
C21   C23   A    
C22   C24   A    
O7    Zn2   S    
C4    C10   S    
C19   C29   A    
C17   O5    A    
C13   N5    S    
O6    Zn2   S    
C7    C9    S    
C5    H7    S    
C32   N4    A    
C12   C14   S    
C3    C5    S    
C6    C8    S    
N6    Zn2   S    
C3    Cl5   S    
C25   C27   A    
C4    Cl6   S    
C26   C28   A    
C23   C32   S    
C28   C30   A    
C24   C31   S    
C5    C10   S    
C11   C13   S    
C27   H5    S    
C32   N1    A    
C6    H8    S    
C23   C25   A    
C34   N8    T    
C9    Cl7   S    
O4    Zn1   S    
C18   O6    A    
C8    C10   S    
C31   N3    A    
C13   C16   S    
C14   C15   S    
C1    O1    A    
