data_mof_unit_pretest_135.cif
_audit_creation_date              2012-12-11T14:45:56-0500
_audit_creation_method            fapswitch 2.2
_symmetry_space_group_name_H-M    P1
_symmetry_Int_Tables_number       1
_space_group_crystal_system       triclinic
_cell_length_a                    10.945995
_cell_length_b                    10.921625
_cell_length_c                    18.800434
_cell_angle_alpha                 89.979611
_cell_angle_beta                  90.025867
_cell_angle_gamma                 119.957834
_cell_volume                      1947.2662435

loop_
_atom_site_label
_atom_site_type_symbol
_atom_type_description
_atom_site_fract_x
_atom_site_fract_y
_atom_site_fract_z
_atom_type_partial_charge
C1    C     C_R   0.865333 0.637685 0.603759 0.564153
C2    C     C_R   0.458366 0.640890 0.769341 -0.148740
C3    C     C_R   0.422819 0.626958 0.698136 -0.123449
C4    C     C_R   0.332710 0.673769 0.673645 0.017312
C5    C     C_R   0.838218 0.165321 0.822351 -0.026563
C6    C     C_R   0.090029 0.243672 0.828842 -0.077838
C7    C     C_R   0.216346 0.276853 0.795598 -0.107127
C8    C     C_R   0.219203 0.258506 0.722694 -0.069037
C9    C     C_R   0.096279 0.208799 0.682473 -0.043673
C10   C     C_R   0.968955 0.186461 0.713730 -0.010385
C11   C     C_R   0.965144 0.196504 0.788868 -0.015623
C12   C     C_R   0.271207 0.632606 0.603583 0.551895
C13   C     C_R   0.718362 0.114320 0.707824 -0.005346
C14   C     C_R   0.722300 0.148410 0.779748 0.016878
C15   C     C_R   0.589856 0.058938 0.670096 -0.100177
C16   C     C_R   0.477071 0.069583 0.697379 0.026001
C17   C     C_R   0.489286 0.126771 0.765228 -0.117838
C18   C     C_R   0.610065 0.165725 0.805907 -0.110138
C19   C     C_R   0.846206 0.155267 0.672676 -0.037834
C20   C     C_R   0.748799 0.541109 0.718722 -0.151467
C21   C     C_R   0.734360 0.562482 0.790287 -0.144686
C22   C     C_R   0.787588 0.700337 0.815866 0.017242
C23   C     C_R   0.861929 0.222938 0.602056 0.545672
C24   C     C_R   0.853226 0.815732 0.769742 -0.128280
C25   C     C_R   0.869177 0.794826 0.698534 -0.100994
C26   C     C_R   0.819689 0.657679 0.673045 0.021134
C27   C     C_R   0.449379 0.656963 0.305861 0.047796
C28   C     C_R   0.480086 0.668718 0.233412 -0.148927
C29   C     C_R   0.417477 0.720120 0.186096 0.033070
C30   C     C_R   0.325155 0.764863 0.211849 0.149926
C31   C     C_R   0.292723 0.750948 0.283727 -0.132930
C32   C     C_R   0.348400 0.690836 0.330304 0.025523
C33   C     C_R   0.724422 0.111156 0.292143 -0.155153
C34   C     C_R   0.867325 0.636866 0.396603 0.616352
C35   C     C_R   0.711360 0.092429 0.220183 -0.182995
C36   C     C_R   0.831178 0.143224 0.176718 0.007531
C37   C     C_R   0.966761 0.209017 0.205662 0.154643
C38   C     C_R   0.981528 0.225395 0.279883 -0.009474
C39   C     C_R   0.857550 0.181157 0.322667 -0.015754
C40   C     C_R   0.866592 0.781195 0.295980 0.001302
C41   C     C_R   0.859949 0.793346 0.223263 -0.139607
C42   C     C_R   0.809056 0.673881 0.179302 0.032165
C43   C     C_R   0.760726 0.540204 0.207988 -0.135398
C44   C     C_R   0.772381 0.527801 0.280737 -0.171883
C45   C     C_R   0.276014 0.637655 0.398005 0.597172
C46   C     C_R   0.827671 0.648608 0.324759 0.031607
C47   C     C_R   0.807317 0.106299 0.895491 0.520474
C48   C     C_R   0.454540 0.722785 0.889264 0.538000
C49   C     C_R   0.775274 0.728394 0.889987 0.532644
C50   C     C_R   0.805685 0.104199 0.102942 0.569431
C51   C     C_R   0.454763 0.727108 0.111268 0.569384
C52   C     C_R   0.797336 0.695393 0.104828 0.562716
C53   C     C_R   0.865141 0.231904 0.394971 0.571213
C54   C     C_R   0.279847 0.735385 0.720887 -0.127102
C55   C     C_R   0.323649 0.758102 0.791226 -0.101697
C56   C     C_R   0.412573 0.709554 0.815545 0.028256
Cr1   Cr    Cr6+3 0.791660 0.390250 0.499930 1.033136
Cr2   Cr    Cr6+3 0.098520 0.708290 0.500540 1.043614
Cr3   Cr    Cr6+3 0.109770 0.401430 0.499480 1.041073
Cr4   Cr    Cr6+3 0.874790 0.925890 0.000070 1.070331
Cr5   Cr    Cr6+3 0.574120 0.948670 0.999300 1.054378
Cr6   Cr    Cr6+3 0.551420 0.625320 0.000920 1.046163
H1    H     H_    0.200207 0.760340 0.704185 0.180039
H2    H     H_    0.581265 0.016501 0.617004 0.118749
H3    H     H_    0.405832 0.141388 0.786877 0.143246
H4    H     H_    0.712163 0.434408 0.700151 0.146656
H5    H     H_    0.683116 0.472306 0.825532 0.128169
H6    H     H_    0.894338 0.921989 0.789440 0.137297
H7    H     H_    0.925008 0.885730 0.664042 0.159546
H8    H     H_    0.551423 0.635413 0.213437 0.114190
H9    H     H_    0.282761 0.806716 0.827034 0.156657
H10   H     H_    0.213915 0.776173 0.301951 0.161512
H11   H     H_    0.629716 0.074781 0.323805 0.155360
H12   H     H_    0.605547 0.036200 0.198526 0.164723
H13   H     H_    0.891257 0.896485 0.200900 0.140451
H14   H     H_    0.718594 0.447511 0.174258 0.147653
H15   H     H_    0.743108 0.424651 0.302186 0.152295
H16   H     H_    0.517467 0.593944 0.789101 0.118563
H17   H     H_    0.458970 0.572633 0.663219 0.137255
H18   H     H_    0.312042 0.315686 0.826572 0.115011
H19   H     H_    0.317070 0.281489 0.697228 0.133179
H20   H     H_    0.092080 0.261045 0.885608 0.151623
H21   H     H_    0.102414 0.184928 0.627314 0.154459
H22   H     H_    0.616734 0.215304 0.856634 0.145496
O1    O     O_R   0.766500 0.250040 0.579790 -0.518682
O2    O     O_R   0.218690 0.701900 0.425960 -0.529423
O3    O     O_R   0.249490 0.516440 0.419420 -0.471473
O4    O     O_R   0.982880 0.281910 0.424890 -0.520427
O5    O     O_3   0.999980 0.499990 0.499980 -0.264840
O6    O     O_R   0.895110 0.806860 0.920430 -0.481608
O7    O     O_R   0.872260 0.046970 0.925000 -0.516528
O8    O     O_R   0.691430 0.085060 0.918550 -0.526527
O9    O     O_R   0.451490 0.822460 0.925250 -0.483355
O10   O     O_R   0.413330 0.603360 0.920440 -0.505122
O11   O     O_R   0.676110 0.626250 0.926750 -0.521496
O12   O     O_R   0.798570 0.516780 0.574780 -0.501148
O13   O     O_R   0.895350 0.809870 0.080950 -0.465322
O14   O     O_R   0.872490 0.049760 0.073800 -0.470321
O15   O     O_R   0.691680 0.088070 0.079070 -0.522922
O16   O     O_R   0.451720 0.825250 0.074050 -0.449636
O17   O     O_R   0.413580 0.606370 0.080960 -0.441175
O18   O     O_R   0.676340 0.629040 0.075550 -0.521178
O19   O     O_3   0.666780 0.833290 0.000090 -0.332323
O20   O     O_R   0.984000 0.732950 0.581090 -0.492899
O21   O     O_R   0.218600 0.700890 0.574760 -0.514466
O22   O     O_R   0.249390 0.515350 0.579940 -0.512173
O23   O     O_R   0.982790 0.280900 0.573700 -0.510669
O24   O     O_R   0.766600 0.251130 0.419260 -0.522846
O25   O     O_R   0.798660 0.517790 0.425980 -0.507211
O26   O     O_R   0.984100 0.734040 0.420570 -0.490925
C57   C     C_2   0.351276 0.027250 0.652537 0.196289
H23   H     H_    0.353585 0.004166 0.596529 0.116781
O27   O     O_2   0.242339 0.013259 0.677816 -0.548619
C58   C     C_2   0.515218 0.598286 0.353230 0.284552
H24   H     H_    0.539388 0.520139 0.332888 0.119058
O28   O     O_2   0.544018 0.637401 0.414889 -0.480918
Br1   Br    Br    0.225089 0.828742 0.152264 -0.444435
Br2   Br    Br    0.128272 0.273750 0.142747 -0.383877
C59   C     C_2   0.124024 0.279305 0.311703 0.285444
H25   H     H_    0.137297 0.234973 0.360715 0.126565
O29   O     O_2   0.229378 0.372511 0.283257 -0.480933
C60   C     C_2   0.920137 0.909647 0.339601 0.241495
H26   H     H_    0.007510 0.006004 0.319770 0.081804
O30   O     O_2   0.867362 0.908325 0.397027 -0.478715

loop_
_geom_bond_atom_site_label_1
_geom_bond_atom_site_label_2
_ccdc_geom_bond_type
C55   C56   A    
C35   H12   S    
C6    H20   S    
C41   C42   A    
C14   C18   A    
C57   H23   S    
C49   O6    A    
C3    H17   S    
C58   H24   S    
C7    C8    A    
C39   C53   S    
C40   C46   A    
C5    C47   S    
C52   O18   A    
C50   O15   A    
C33   C39   A    
Cr1   O5    S    
C20   H4    S    
C28   C29   A    
Cr5   O19   S    
C5    C11   A    
Cr4   O14   S    
Cr3   O5    S    
C30   C31   A    
Cr5   O9    S    
C54   H1    S    
C15   C16   A    
C52   O13   A    
C43   H14   S    
C32   C45   S    
Cr3   O4    S    
Cr1   O25   S    
C37   Br2   S    
C35   C36   A    
C8    C9    A    
Cr1   O12   S    
C18   H22   S    
C15   H2    S    
C34   C46   S    
C4    C12   S    
Cr4   O19   S    
C9    C10   A    
Cr5   O8    S    
Cr6   O17   S    
C4    C54   A    
C13   C14   A    
C21   H5    S    
Cr5   O15   S    
C47   O8    A    
Cr2   O2    S    
C44   C46   A    
C59   O29   D    
C38   C39   A    
C50   O14   A    
Cr3   O22   S    
C48   O9    A    
C13   C19   A    
C8    H19   S    
C24   C25   A    
Cr4   O13   S    
C6    C11   A    
C16   C17   A    
C25   C26   A    
Cr3   O23   S    
C19   C23   S    
C43   C44   A    
C37   C38   A    
C2    H16   S    
C41   H13   S    
C31   C32   A    
C10   C19   A    
C23   O23   A    
C17   C18   A    
C57   O27   D    
C49   O11   A    
C1    O20   A    
C5    C14   A    
C48   O10   A    
C9    H21   S    
C22   C49   S    
C38   C59   S    
C33   H11   S    
C31   H10   S    
C13   C15   A    
C1    C26   S    
C34   O26   A    
C22   C24   A    
Cr5   O16   S    
C25   H7    S    
C42   C43   A    
C60   O30   D    
C3    C4    A    
C36   C50   S    
Cr6   O19   S    
C29   C51   S    
Cr4   O7    S    
C51   O16   A    
C48   C56   S    
C54   C55   A    
C40   C41   A    
C45   O3    A    
C27   C32   A    
Cr2   O26   S    
C47   O7    A    
C28   H8    S    
C58   O28   D    
C59   H25   S    
C6    C7    A    
C30   Br1   S    
Cr4   O6    S    
C51   O17   A    
C44   H15   S    
C17   H3    S    
Cr2   O21   S    
C21   C22   A    
Cr6   O10   S    
C45   O2    A    
C2    C56   A    
C12   O22   A    
C53   O24   A    
C40   C60   S    
C12   O21   A    
C20   C26   A    
C1    O12   A    
C33   C35   A    
Cr1   O1    S    
C2    C3    A    
C53   O4    A    
Cr2   O5    S    
Cr3   O3    S    
C10   C11   A    
C24   H6    S    
C29   C30   A    
C27   C58   S    
Cr1   O24   S    
Cr2   O20   S    
C20   C21   A    
C36   C37   A    
C23   O1    A    
C27   C28   A    
C34   O25   A    
C60   H26   S    
Cr6   O11   S    
C55   H9    S    
C16   C57   S    
C42   C52   S    
C7    H18   S    
Cr6   O18   S    
