data_mof_unit_pretest_1700.cif
_audit_creation_date              2012-12-10T16:40:42-0500
_audit_creation_method            fapswitch 2.2
_symmetry_space_group_name_H-M    P1
_symmetry_Int_Tables_number       1
_space_group_crystal_system       triclinic
_cell_length_a                    10.886474
_cell_length_b                    10.818388
_cell_length_c                    19.417239
_cell_angle_alpha                 97.418353
_cell_angle_beta                  91.467287
_cell_angle_gamma                 98.255084
_cell_volume                      2241.938396

loop_
_atom_site_label
_atom_site_type_symbol
_atom_type_description
_atom_site_fract_x
_atom_site_fract_y
_atom_site_fract_z
_atom_type_partial_charge
C1    C     C_R   0.475324 0.161781 0.484166 0.495180
C2    C     C_2   0.515491 0.468081 0.015805 -0.073517
C3    C     C_2   0.455364 0.546485 0.983886 0.219703
C4    C     C_R   0.524586 0.838885 0.515474 0.504066
C5    C     C_R   0.477773 0.522383 0.763928 0.040700
C6    C     C_2   0.533698 0.975166 0.521677 -0.120497
C7    C     C_2   0.466746 0.027176 0.477976 -0.105313
C8    C     C_2   0.971067 0.532861 0.519066 -0.098012
C9    C     C_2   0.032812 0.457686 0.476028 -0.000520
C10   C     C_R   0.165053 0.474247 0.485226 0.512040
C11   C     C_R   0.836637 0.525667 0.514913 0.510686
C12   C     C_R   0.519971 0.470439 0.091802 0.074501
C13   C     C_R   0.486428 0.513749 0.688467 0.501449
C14   C     C_R   0.514618 0.487675 0.311896 0.501744
C15   C     C_R   0.522362 0.483849 0.236813 0.046878
C16   C     C_R   0.550059 0.595334 0.206319 -0.018210
C17   C     C_R   0.550729 0.586974 0.134022 -0.051709
C18   C     C_3   0.581786 0.722635 0.249761 -0.382507
C19   C     C_3   0.975652 0.356491 0.418361 -0.349297
C20   C     C_3   0.463196 0.229373 0.081197 -0.402457
C21   C     C_R   0.496545 0.358400 0.122618 0.000015
C22   C     C_R   0.499732 0.366657 0.195122 -0.120564
C23   C     C_R   0.413269 0.426378 0.865574 -0.131340
C24   C     C_R   0.421553 0.418277 0.793804 -0.122783
C25   C     C_R   0.523495 0.635398 0.806557 -0.125411
C26   C     C_R   0.512957 0.644127 0.878281 -0.132694
C27   C     C_R   0.459045 0.539297 0.907915 0.020809
H1    H     H_    0.549033 0.731544 0.910800 0.117968
H2    H     H_    0.574801 0.672048 0.110283 0.151468
H3    H     H_    0.610397 0.798235 0.217274 0.117172
H4    H     H_    0.499698 0.747018 0.278327 0.168256
H5    H     H_    0.659830 0.721188 0.287470 0.128350
H6    H     H_    0.048262 0.308787 0.391281 0.109895
H7    H     H_    0.911934 0.282918 0.439961 0.156578
H8    H     H_    0.925899 0.398630 0.378741 0.157653
H9    H     H_    0.351747 0.678404 0.988769 0.326508
H10   H     H_    0.451818 0.231354 0.024554 0.125476
H11   H     H_    0.536652 0.171236 0.090354 0.132004
H12   H     H_    0.595079 0.033512 0.562025 0.105094
H13   H     H_    0.373754 0.182740 0.098416 0.138088
H14   H     H_    0.405340 0.971129 0.436972 0.122089
H15   H     H_    0.022416 0.602515 0.558877 0.090873
H16   H     H_    0.385688 0.330268 0.761794 0.133261
H17   H     H_    0.566202 0.717122 0.784404 0.132276
H18   H     H_    0.371367 0.344853 0.888209 0.108987
H19   H     H_    0.479705 0.281388 0.219244 0.118557
H20   H     H_    0.562698 0.399693 0.984891 0.074860
O1    O     O_3   0.500000 0.500000 0.500000 -0.440216
O2    O     O_R   0.410860 0.431690 0.648970 -0.545235
O3    O     O_R   0.578570 0.421470 0.344370 -0.549636
O4    O     O_R   0.567340 0.590030 0.662290 -0.545643
O5    O     O_R   0.443230 0.556810 0.344370 -0.541110
O6    O     O_3   0.391964 0.632244 0.021797 -0.706743
O7    O     O_R   0.229880 0.548640 0.449830 -0.537027
O8    O     O_R   0.775840 0.445670 0.468570 -0.549857
O9    O     O_R   0.404020 0.217050 0.524780 -0.531783
O10   O     O_R   0.590260 0.788640 0.556820 -0.537193
O11   O     O_R   0.555650 0.222860 0.449830 -0.540092
O12   O     O_R   0.450070 0.771450 0.468560 -0.545395
O13   O     O_R   0.213590 0.407490 0.524780 -0.537881
O14   O     O_R   0.780700 0.598200 0.556830 -0.534100
Zn1   Zn    Zn3+2 0.407400 0.592620 0.441700 0.930868
Zn2   Zn    Zn3+2 0.384130 0.390950 0.548790 0.938973
Zn3   Zn    Zn3+2 0.607710 0.617180 0.567810 0.940828
Zn4   Zn    Zn3+2 0.600760 0.399250 0.441700 0.922889

loop_
_geom_bond_atom_site_label_1
_geom_bond_atom_site_label_2
_ccdc_geom_bond_type
C4    O10   A    
C12   C17   A    
O14   Zn3   S    
C10   O13   A    
C23   C24   A    
C11   O14   A    
C6    C7    D    
C23   H18   S    
H9    O6    S    
C23   C27   A    
C2    H20   S    
C20   H11   S    
C9    C10   S    
O11   Zn4   S    
O1    Zn1   S    
C14   C15   S    
C2    C12   S    
C3    C27   S    
C2    C3    D    
O9    Zn2   S    
C19   H8    S    
C21   C22   A    
C20   H10   S    
C3    O6    S    
C26   C27   A    
C14   O3    A    
C5    C24   A    
C1    O11   A    
C1    C7    S    
C8    C11   S    
C13   O2    A    
C5    C13   S    
C25   H17   S    
C4    C6    S    
O8    Zn4   S    
C1    O9    A    
C8    H15   S    
O2    Zn2   S    
C7    H14   S    
C18   H3    S    
C20   H13   S    
O3    Zn4   S    
C5    C25   A    
O1    Zn3   S    
C18   H5    S    
C10   O7    A    
C15   C16   A    
O13   Zn2   S    
C17   H2    S    
C11   O8    A    
C20   C21   S    
C4    O12   A    
O10   Zn3   S    
C16   C18   S    
C19   H6    S    
C24   H16   S    
C6    H12   S    
C16   C17   A    
O12   Zn1   S    
O5    Zn1   S    
C18   H4    S    
O7    Zn1   S    
C22   H19   S    
C25   C26   A    
C13   O4    A    
O1    Zn4   S    
C26   H1    S    
C12   C21   A    
C9    C19   S    
C15   C22   A    
C14   O5    A    
O4    Zn3   S    
C8    C9    D    
O1    Zn2   S    
C19   H7    S    
