data_mof_unit_pretest_1912.cif
_audit_creation_date              2013-03-05T16:07:29-0500
_audit_creation_method            fapswitch 2.2
_symmetry_space_group_name_H-M    P1
_symmetry_Int_Tables_number       1
_space_group_crystal_system       triclinic
_cell_length_a                    11.567369
_cell_length_b                    10.795144
_cell_length_c                    10.625911
_cell_angle_alpha                 89.575648
_cell_angle_beta                  89.976233
_cell_angle_gamma                 89.996123
_cell_volume                      1326.8360234

loop_
_atom_site_label
_atom_site_type_symbol
_atom_site_description
_atom_site_fract_x
_atom_site_fract_y
_atom_site_fract_z
_atom_type_partial_charge
O1    O     O_R   0.334450 0.602530 0.499980 -0.596953
O2    O     O_R   0.665550 0.397470 0.500020 -0.596953
O3    O     O_R   0.665550 0.602530 0.500020 -0.603904
O4    O     O_R   0.334450 0.397470 0.499980 -0.603904
N1    N     N_1   0.500000 0.180630 0.500000 -0.050736
N2    N     N_1   0.500000 0.819370 0.500000 -0.050736
C1    C     C_R   0.281226 0.500001 0.499821 0.950228
C2    C     C_R   0.718774 0.499999 0.500179 0.950228
O5    O     O_R   0.499970 0.602510 0.313950 -0.601095
O6    O     O_R   0.500030 0.397490 0.686050 -0.601096
O7    O     O_R   0.500030 0.602510 0.686050 -0.573575
O8    O     O_R   0.499970 0.397490 0.313950 -0.573575
C3    C     C_R   0.498878 0.500596 0.257328 1.052721
C4    C     C_R   0.501122 0.499404 0.742672 1.052721
Zn1   Zn    Zn3+2 0.500000 0.636920 0.500000 1.120006
Zn2   Zn    Zn3+2 0.500000 0.363080 0.500000 1.120005
C5    C     C_1   0.500000 0.069806 0.500003 0.165392
C6    C     C_1   0.499999 0.930194 0.499997 0.165392
C7    C     C_3   0.494620 0.617399 0.038798 0.154360
C8    C     C_3   0.505380 0.382601 0.961202 0.154361
C9    C     C_3   0.592285 0.562508 0.958457 0.143337
C10   C     C_3   0.407715 0.437492 0.041543 0.143337
C11   C     C_3   0.403755 0.553095 0.956787 0.132780
C12   C     C_3   0.596245 0.446905 0.043213 0.132782
C13   C     C_3   0.501350 0.498331 0.875661 -0.390373
C14   C     C_3   0.498650 0.501669 0.124339 -0.390372
C15   C     C_1   0.161088 0.500001 0.499847 -0.043046
C16   C     C_1   0.838912 0.499998 0.500152 -0.043046
C17   C     C_1   0.059170 0.500000 0.499935 0.090937
C18   C     C_1   0.940830 0.499999 0.500065 0.090938
N3    N     N_R   0.296605 0.610412 0.913219 0.271258
O9    O     O_R   0.221110 0.648892 0.994758 -0.243101
O10   O     O_R   0.272582 0.617025 0.793883 -0.364636
N4    N     N_R   0.703395 0.389588 0.086780 0.271258
O11   O     O_R   0.778890 0.351107 0.005242 -0.243101
O12   O     O_R   0.727418 0.382975 0.206117 -0.364635
N5    N     N_R   0.485688 0.745477 0.080677 0.263450
O13   O     O_R   0.563276 0.826577 0.047698 -0.261842
O14   O     O_R   0.396784 0.780625 0.146293 -0.291723
N6    N     N_R   0.514314 0.254522 0.919326 0.263450
O15   O     O_R   0.436734 0.173419 0.952321 -0.261841
O16   O     O_R   0.603215 0.219375 0.853704 -0.291725
N7    N     N_R   0.695735 0.628513 0.916959 0.278995
O17   O     O_R   0.767215 0.672110 0.000019 -0.250890
O18   O     O_R   0.721632 0.636529 0.798133 -0.351590
N8    N     N_R   0.304266 0.371487 0.083040 0.278995
O19   O     O_R   0.232786 0.327887 0.999980 -0.250893
O20   O     O_R   0.278367 0.363472 0.201867 -0.351589

loop_
_geom_bond_atom_site_label_1
_geom_bond_atom_site_label_2
_geom_bond_distance
_ccdc_geom_bond_type
O4    Zn2   1.950607 S    
C7    C11   1.534886 S    
N7    O17   1.300365 A    
N3    O10   1.299705 A    
C17   C18   1.368881 S    
O1    Zn1   1.950657 S    
C15   C17   1.178925 T    
O2    Zn2   1.950655 S    
N3    O9    1.300202 A    
C9    N7    1.459143 S    
C16   C18   1.178925 T    
C5    C6    1.507140 S    
O5    Zn1   2.014249 S    
O3    Zn1   1.950606 S    
N5    O14   1.300358 A    
O6    Zn2   2.014248 S    
N7    O18   1.299833 A    
N5    O13   1.300024 A    
O4    C1    1.266498 A    
C8    N6    1.459242 S    
N6    O16   1.300362 A    
N6    O15   1.300023 A    
C7    C9    1.537141 S    
C8    C10   1.537142 S    
N4    O11   1.300202 A    
N4    O12   1.299705 A    
C11   C13   1.540681 S    
C4    C13   1.413097 S    
O6    C4    1.257916 A    
C2    C16   1.389678 S    
N2    C6    1.196358 T    
N8    O20   1.299832 A    
C3    C14   1.413094 S    
N1    C5    1.196358 T    
C8    C13   1.540256 S    
C11   N3    1.459282 S    
O8    Zn2   2.008841 S    
C1    C15   1.389678 S    
O8    C3    1.261391 A    
O3    C2    1.266498 A    
C10   C14   1.539592 S    
C9    C12   1.534258 S    
O7    C4    1.261392 A    
C7    C14   1.540256 S    
C9    C13   1.539593 S    
N8    O19   1.300365 A    
N1    Zn2   1.969574 S    
O5    C3    1.257917 A    
C7    N5    1.459246 S    
C10   N8    1.459142 S    
N2    Zn1   1.969573 S    
O1    C1    1.266569 A    
O7    Zn1   2.008841 S    
C10   C11   1.534259 S    
O2    C2    1.266569 A    
C8    C12   1.534884 S    
C12   C14   1.540681 S    
C12   N4    1.459280 S    
