data_mof_unit_pretest_398.cif
_audit_creation_date              2012-12-11T14:17:57-0500
_audit_creation_method            fapswitch 2.2
_symmetry_space_group_name_H-M    P1
_symmetry_Int_Tables_number       1
_space_group_crystal_system       triclinic
_cell_length_a                    11.047758
_cell_length_b                    11.07484
_cell_length_c                    18.943448
_cell_angle_alpha                 89.79598
_cell_angle_beta                  89.914198
_cell_angle_gamma                 119.985434
_cell_volume                      2007.51657008

loop_
_atom_site_label
_atom_site_type_symbol
_atom_type_description
_atom_site_fract_x
_atom_site_fract_y
_atom_site_fract_z
_atom_type_partial_charge
C1    C     C_R   0.520234 0.459263 0.147295 0.545974
C2    C     C_R   0.936325 0.398025 0.548650 -0.020178
C3    C     C_R   0.451582 0.034914 0.546123 0.000826
C4    C     C_R   0.578478 0.535679 0.547527 -0.003737
C5    C     C_R   0.661322 0.860005 0.538882 -0.113057
C6    C     C_R   0.094308 0.782482 0.543495 -0.100105
C7    C     C_R   0.196121 0.335973 0.540056 -0.104451
C8    C     C_R   0.141091 0.738736 0.404927 -0.081687
C9    C     C_R   0.599580 0.852382 0.397287 -0.082949
C10   C     C_R   0.250740 0.396048 0.398137 -0.084210
C11   C     C_R   0.747346 0.848977 0.488520 -0.143033
C12   C     C_R   0.540919 0.061231 0.147281 0.546449
C13   C     C_R   0.123285 0.884553 0.492455 -0.144542
C14   C     C_R   0.100245 0.248278 0.489957 -0.142590
C15   C     C_R   0.148422 0.862876 0.423163 -0.106361
C16   C     C_R   0.713321 0.840306 0.417526 -0.109173
C17   C     C_R   0.125801 0.281598 0.418755 -0.109553
C18   C     C_R   0.519402 0.457910 0.353459 0.518406
C19   C     C_R   0.540306 0.060048 0.353067 0.515929
C20   C     C_R   0.935993 0.478161 0.354397 0.517425
C21   C     C_R   0.422440 0.541797 0.638499 0.535116
C22   C     C_R   0.075413 0.553995 0.643307 0.537564
C23   C     C_R   0.939156 0.479952 0.147360 0.546907
C24   C     C_R   0.458245 0.881207 0.638508 0.539406
C25   C     C_R   0.492448 0.972381 0.929064 0.002368
C26   C     C_R   0.027500 0.520069 0.929155 0.003591
C27   C     C_R   0.479957 0.506823 0.928999 0.002462
C28   C     C_R   0.003527 0.497452 0.076967 -0.004716
C29   C     C_R   0.494464 0.997609 0.076890 -0.004154
C30   C     C_R   0.502896 0.505923 0.076811 -0.004512
C31   C     C_R   0.408576 0.020244 0.960802 0.017818
C32   C     C_R   0.980081 0.388709 0.961246 0.017865
C33   C     C_R   0.611689 0.590984 0.960526 0.018322
C34   C     C_R   0.453881 0.521019 0.854368 0.541042
C35   C     C_R   0.982471 0.380350 0.035908 0.029825
C36   C     C_R   0.398336 0.018764 0.035527 0.029947
C37   C     C_R   0.620196 0.601748 0.035170 0.029724
C38   C     C_R   0.572451 0.946089 0.044376 -0.146376
C39   C     C_R   0.054690 0.626619 0.044111 -0.147030
C40   C     C_R   0.373358 0.427791 0.044497 -0.146158
C41   C     C_R   0.069787 0.638272 0.971705 -0.134429
C42   C     C_R   0.568677 0.930387 0.972015 -0.135364
C43   C     C_R   0.361571 0.430895 0.972096 -0.134992
C44   C     C_R   0.333038 0.067633 0.920202 -0.098086
C45   C     C_R   0.067254 0.546042 0.854419 0.537263
C46   C     C_R   0.932372 0.265849 0.921059 -0.097369
C47   C     C_R   0.734796 0.666460 0.919770 -0.096826
C48   C     C_R   0.962665 0.254836 0.066310 -0.086442
C49   C     C_R   0.292815 0.039283 0.065676 -0.087221
C50   C     C_R   0.745942 0.707462 0.064978 -0.087554
C51   C     C_R   0.236867 0.096421 0.951968 -0.128954
C52   C     C_R   0.904210 0.141360 0.953108 -0.128875
C53   C     C_R   0.859455 0.763206 0.951197 -0.128814
C54   C     C_R   0.921142 0.136659 0.025411 -0.136222
C55   C     C_R   0.215742 0.080368 0.024381 -0.136742
C56   C     C_R   0.478668 0.932512 0.854435 0.540815
C57   C     C_R   0.864155 0.784787 0.023460 -0.136939
C58   C     C_R   0.486214 0.934376 0.566598 0.012688
C59   C     C_R   0.024250 0.532641 0.571784 0.007623
C60   C     C_R   0.446041 0.510562 0.567083 0.015286
C61   C     C_R   0.990716 0.489845 0.426654 0.001571
C62   C     C_R   0.493412 0.995623 0.423169 -0.003531
C63   C     C_R   0.499999 0.500119 0.424134 0.003142
C64   C     C_R   0.556682 0.892135 0.518334 -0.013895
C65   C     C_R   0.072866 0.648660 0.524191 0.002154
C66   C     C_R   0.332950 0.440097 0.519104 -0.006379
C67   C     C_R   0.449435 0.061829 0.473930 -0.025061
C68   C     C_R   0.077796 0.624653 0.452010 0.002208
C69   C     C_R   0.540621 0.905329 0.445771 0.002908
C70   C     C_R   0.362525 0.454706 0.446487 0.003311
C71   C     C_3   0.416416 0.173646 0.452907 -0.342637
C72   C     C_3   0.808058 0.235886 0.451188 -0.339326
C73   C     C_3   0.749718 0.564561 0.454093 -0.345121
C74   C     C_3   0.849379 0.282741 0.602037 -0.384459
C75   C     C_3   0.442334 0.130704 0.601120 -0.368127
C76   C     C_3   0.680009 0.539582 0.603370 -0.374769
C77   C     C_R   0.917407 0.376374 0.475658 -0.026382
C78   C     C_R   0.607484 0.536602 0.475388 -0.028160
Cr1   Cr    Cr6+3 0.768550 0.541320 0.250660 0.981132
Cr2   Cr    Cr6+3 0.458680 0.227230 0.250660 0.979539
Cr3   Cr    Cr6+3 0.772770 0.231450 0.250660 0.979704
Cr4   Cr    Cr6+3 0.541320 0.768550 0.749340 0.980356
Cr5   Cr    Cr6+3 0.227230 0.458680 0.749340 0.980445
Cr6   Cr    Cr6+3 0.231450 0.772770 0.749340 0.984873
H1    H     H_    0.640520 0.921889 0.074898 0.130667
H2    H     H_    0.984204 0.246722 0.121107 0.131201
H3    H     H_    0.263415 0.018501 0.120589 0.132301
H4    H     H_    0.754142 0.736705 0.119761 0.131599
H5    H     H_    0.177324 0.129553 0.920170 0.119430
H6    H     H_    0.870918 0.048776 0.921597 0.119244
H7    H     H_    0.952198 0.822783 0.919242 0.118998
H8    H     H_    0.901358 0.040891 0.050423 0.099995
H9    H     H_    0.139875 0.100528 0.049208 0.100916
H10   H     H_    0.960024 0.861009 0.047979 0.101319
H11   H     H_    0.690251 0.855847 0.592444 0.165054
H12   H     H_    0.078767 0.718719 0.074386 0.131058
H13   H     H_    0.071260 0.806897 0.594896 0.148802
H14   H     H_    0.163075 0.308063 0.593824 0.166496
H15   H     H_    0.161676 0.725244 0.350430 0.117542
H16   H     H_    0.573694 0.842282 0.341689 0.120141
H17   H     H_    0.266385 0.421737 0.342420 0.121775
H18   H     H_    0.835837 0.839328 0.505016 0.108002
H19   H     H_    0.127048 0.980859 0.506870 0.104983
H20   H     H_    0.002974 0.158561 0.506546 0.107551
H21   H     H_    0.168619 0.939202 0.382512 0.105939
H22   H     H_    0.775130 0.825724 0.377819 0.108298
H23   H     H_    0.281017 0.359917 0.075232 0.130560
H24   H     H_    0.050725 0.218380 0.379123 0.105819
H25   H     H_    0.366243 0.203540 0.494361 0.124865
H26   H     H_    0.515647 0.265722 0.437307 0.143906
H27   H     H_    0.339262 0.139270 0.410290 0.181148
H28   H     H_    0.765436 0.153654 0.491659 0.127158
H29   H     H_    0.722501 0.249471 0.430872 0.147266
H30   H     H_    0.850854 0.194920 0.411681 0.183465
H31   H     H_    0.825978 0.602406 0.496895 0.124400
H32   H     H_    0.737804 0.466358 0.433806 0.142547
H33   H     H_    0.797449 0.649240 0.414925 0.182732
H34   H     H_    0.115500 0.741878 0.949046 0.152369
H35   H     H_    0.736779 0.237961 0.590531 0.129136
H36   H     H_    0.877885 0.199911 0.600425 0.131018
H37   H     H_    0.859275 0.319010 0.657218 0.144887
H38   H     H_    0.503889 0.241149 0.584159 0.118457
H39   H     H_    0.331677 0.101721 0.610066 0.140756
H40   H     H_    0.491876 0.131165 0.652020 0.158259
H41   H     H_    0.629578 0.496164 0.655053 0.164350
H42   H     H_    0.767485 0.647854 0.610419 0.129763
H43   H     H_    0.721293 0.470322 0.588249 0.116303
H44   H     H_    0.626536 0.884424 0.949688 0.151816
H45   H     H_    0.257743 0.372925 0.949869 0.151874
H46   H     H_    0.348351 0.084556 0.863901 0.132305
H47   H     H_    0.914751 0.263960 0.864877 0.131179
H48   H     H_    0.736702 0.650764 0.863598 0.131405
O1    O     O_R   0.910960 0.572410 0.171010 -0.518513
O2    O     O_R   0.528530 0.639750 0.824400 -0.508150
O3    O     O_R   0.111220 0.471470 0.824400 -0.509645
O4    O     O_R   0.360250 0.888780 0.824400 -0.508239
O5    O     O_R   0.909330 0.572400 0.331540 -0.540135
O6    O     O_R   0.427600 0.336930 0.331540 -0.544015
O7    O     O_R   0.663070 0.090670 0.331540 -0.544015
O8    O     O_R   0.572400 0.909330 0.668460 -0.549847
O9    O     O_R   0.336930 0.427600 0.668460 -0.543409
O10   O     O_R   0.090670 0.663070 0.668460 -0.548863
O11   O     O_R   0.638240 0.528520 0.324410 -0.517745
O12   O     O_R   0.427590 0.338550 0.171010 -0.519889
O13   O     O_R   0.471480 0.109720 0.324410 -0.518457
O14   O     O_R   0.890280 0.361760 0.324410 -0.518608
O15   O     O_R   0.528520 0.638240 0.675590 -0.523100
O16   O     O_R   0.109720 0.471480 0.675590 -0.523397
O17   O     O_R   0.361760 0.890280 0.675590 -0.504575
O18   O     O_3   0.666667 0.333333 0.250630 -0.234161
O19   O     O_3   0.333333 0.666667 0.749370 -0.271825
O20   O     O_R   0.661450 0.089040 0.171010 -0.519475
O21   O     O_R   0.572410 0.910960 0.828990 -0.522641
O22   O     O_R   0.338550 0.427590 0.828990 -0.521734
O23   O     O_R   0.089040 0.661450 0.828990 -0.525267
O24   O     O_R   0.639750 0.528530 0.175600 -0.511204
O25   O     O_R   0.471470 0.111220 0.175600 -0.511728
O26   O     O_R   0.888780 0.360250 0.175600 -0.511153

loop_
_geom_bond_atom_site_label_1
_geom_bond_atom_site_label_2
_ccdc_geom_bond_type
C25   C31   A    
C72   H28   S    
C26   C32   A    
C7    H14   S    
C46   C52   A    
C12   C29   S    
C75   H38   S    
C76   H42   S    
C49   H3    S    
C52   H6    S    
C25   C56   S    
C55   H9    S    
Cr4   O15   S    
C39   C41   A    
Cr5   O22   S    
C51   C55   A    
C24   O8    A    
Cr2   O18   S    
C74   H35   S    
C29   C36   A    
C19   O13   A    
C73   H32   S    
C62   C67   A    
C75   H39   S    
C21   O15   A    
C18   O11   A    
C9    C16   A    
C9    C69   A    
C38   C42   A    
Cr6   O23   S    
C18   C63   S    
C34   O2    A    
C19   C62   S    
C44   H46   S    
Cr3   O18   S    
C71   H26   S    
C72   H30   S    
C62   C69   A    
C20   C61   S    
C18   O6    A    
C12   O20   A    
Cr4   O8    S    
C26   C45   S    
C5    H11   S    
Cr1   O24   S    
Cr4   O21   S    
C7    C14   A    
Cr1   O11   S    
C28   C35   A    
C61   C77   A    
Cr2   O12   S    
C71   H27   S    
C29   C38   A    
C53   H7    S    
C73   C78   S    
C45   O23   A    
C41   H34   S    
C13   H19   S    
C3    C75   S    
Cr5   O3    S    
Cr4   O19   S    
C2    C74   S    
C16   H22   S    
C47   C53   A    
C20   O14   A    
Cr6   O17   S    
C60   C66   A    
C76   H41   S    
C14   C17   A    
C22   O10   A    
C35   C48   A    
C56   O4    A    
C52   C54   A    
Cr5   O19   S    
C34   O22   A    
C27   C34   S    
C58   C64   A    
Cr1   O1    S    
C45   O3    A    
C73   H33   S    
C31   C44   A    
C23   O1    A    
C38   H1    S    
C75   H40   S    
C32   C35   A    
C43   H45   S    
C21   C60   S    
C17   H24   S    
C22   C59   S    
Cr5   O9    S    
C53   C57   A    
C2    C59   A    
C28   C39   A    
C49   C55   A    
C12   O25   A    
C72   H29   S    
C27   C33   A    
C30   C37   A    
C20   O5    A    
Cr4   O2    S    
C1    O24   A    
C48   C54   A    
C6    H13   S    
C4    C78   A    
C72   C77   S    
C6    C65   A    
C11   C16   A    
C14   H20   S    
C63   C70   A    
Cr6   O10   S    
C65   C68   A    
C23   O26   A    
C4    C60   A    
C64   C69   A    
C30   C40   A    
C23   C28   S    
C40   H23   S    
C10   C70   A    
C44   C51   A    
C19   O7    A    
Cr2   O13   S    
Cr1   O5    S    
C22   O16   A    
C8    C68   A    
C8    C15   A    
C57   H10   S    
C13   C15   A    
C33   C47   A    
C48   H2    S    
C46   H47   S    
Cr3   O7    S    
Cr6   O4    S    
Cr3   O26   S    
C50   C57   A    
C32   C46   A    
C8    H15   S    
C10   H17   S    
C3    C67   A    
C56   O21   A    
C25   C42   A    
C5    C11   A    
C42   H44   S    
C9    H16   S    
Cr3   O20   S    
C74   H36   S    
C73   H31   S    
C47   H48   S    
C40   C43   A    
C15   H21   S    
C21   O9    A    
Cr1   O18   S    
C1    O12   A    
C51   H5    S    
C7    C66   A    
C37   C50   A    
C61   C68   A    
Cr2   O25   S    
C66   C70   A    
Cr2   O6    S    
Cr6   O19   S    
C71   H25   S    
C1    C30   S    
C11   H18   S    
C67   C71   S    
C33   C37   A    
C39   H12   S    
C4    C76   S    
C24   O17   A    
Cr5   O16   S    
C3    C58   A    
C27   C43   A    
C74   H37   S    
C5    C64   A    
C24   C58   S    
Cr3   O14   S    
C2    C77   A    
C76   H43   S    
C31   C36   A    
C50   H4    S    
C10   C17   A    
C54   H8    S    
C59   C65   A    
C36   C49   A    
C26   C41   A    
C6    C13   A    
C63   C78   A    
