data_mof_unit_pretest_1749.cif
_audit_creation_date              2012-10-26T17:26:43-0400
_audit_creation_method            fapswitch 2.2
_symmetry_space_group_name_H-M    P1
_symmetry_Int_Tables_number       1
_space_group_crystal_system       triclinic
_cell_length_a                    44.824893
_cell_length_b                    39.033754
_cell_length_c                    21.719628
_cell_angle_alpha                 89.999966
_cell_angle_beta                  60.451599
_cell_angle_gamma                 90.0
_cell_volume                      33059.8568945

loop_
_atom_site_label
_atom_site_type_symbol
_atom_type_description
_atom_site_fract_x
_atom_site_fract_y
_atom_site_fract_z
_atom_type_partial_charge
C1    C     C_R   0.066191 0.499970 0.433885 0.541571
C2    C     C_R   0.020510 0.480755 0.197345 -0.151458
C3    C     C_R   0.999818 0.501368 0.119071 0.543923
C4    C     C_R   0.500182 0.001368 0.880929 0.543923
C5    C     C_R   0.499818 0.001368 0.119071 0.543923
C6    C     C_R   1.000000 0.566209 0.000000 0.534578
C7    C     C_R   0.500000 0.066209 0.000000 0.534578
C8    C     C_R   0.500000 0.433723 0.000000 0.535866
C9    C     C_R   1.000000 0.933723 0.000000 0.535866
C10   C     C_R   0.433912 0.500608 0.066336 0.585611
C11   C     C_R   0.566088 0.500608 0.933664 0.585609
C12   C     C_R   0.933912 0.000607 0.066336 0.585611
C13   C     C_R   0.479490 0.980756 0.802655 -0.151458
C14   C     C_R   0.066088 0.000607 0.933664 0.585608
C15   C     C_R   0.500000 0.566036 1.000000 0.613018
C16   C     C_R   0.000000 0.066036 1.000000 0.613016
C17   C     C_R   0.515448 0.621853 0.032587 -0.118972
C18   C     C_R   0.484552 0.621853 0.967412 -0.118972
C19   C     C_R   0.015457 0.121853 0.032569 -0.118969
C20   C     C_R   0.984544 0.121853 0.967430 -0.118969
C21   C     C_R   0.515829 0.657619 0.031853 -0.116289
C22   C     C_R   0.484171 0.657619 0.968147 -0.116289
C23   C     C_R   0.015839 0.157618 0.031834 -0.116289
C24   C     C_R   0.520510 0.980756 0.197345 -0.151458
C25   C     C_R   0.984161 0.157618 0.968165 -0.116289
C26   C     C_R   0.500000 0.676034 1.000000 0.031583
C27   C     C_R   0.000000 0.176033 1.000000 0.031582
C28   C     C_R   0.071641 0.565568 0.645163 -0.122449
C29   C     C_R   0.928359 0.565568 0.354837 -0.122448
C30   C     C_R   0.571642 0.065567 0.645162 -0.122448
C31   C     C_R   0.428358 0.065567 0.354838 -0.122448
C32   C     C_R   0.500000 0.603723 1.000000 0.029584
C33   C     C_R   0.000000 0.103723 1.000000 0.029581
C34   C     C_R   0.501138 0.732605 0.943095 -0.110880
C35   C     C_R   0.000885 0.503099 0.813283 0.003622
C36   C     C_R   0.498861 0.732605 0.056905 -0.110881
C37   C     C_R   0.001126 0.232604 0.943107 -0.110879
C38   C     C_R   0.998874 0.232604 0.056893 -0.110879
C39   C     C_R   0.000712 0.268373 0.943570 -0.112862
C40   C     C_R   0.999288 0.268373 0.056429 -0.112862
C41   C     C_R   0.500724 0.768374 0.943558 -0.112862
C42   C     C_R   0.499276 0.768374 0.056442 -0.112862
C43   C     C_R   0.000000 0.286417 1.000000 0.025185
C44   C     C_R   0.500000 0.786417 1.000000 0.025180
C45   C     C_R   0.500000 0.714187 1.000000 0.033255
C46   C     C_R   0.999115 0.503099 0.186717 0.003622
C47   C     C_R   0.000000 0.214187 1.000000 0.033256
C48   C     C_R   0.026925 0.342148 0.000470 -0.118655
C49   C     C_R   0.973075 0.342148 0.999530 -0.118656
C50   C     C_R   0.526925 0.842148 0.000469 -0.118655
C51   C     C_R   0.473075 0.842148 0.999530 -0.118655
C52   C     C_R   0.027152 0.377925 0.999561 -0.127450
C53   C     C_R   0.972848 0.377925 0.000439 -0.127450
C54   C     C_R   0.527152 0.877925 0.999560 -0.127451
C55   C     C_R   0.472848 0.877925 0.000440 -0.127450
C56   C     C_R   0.000000 0.396081 0.000000 0.018726
C57   C     C_R   0.500885 0.003099 0.813283 0.003622
C58   C     C_R   0.500000 0.896081 0.000000 0.018726
C59   C     C_R   0.000000 0.324096 1.000000 0.026160
C60   C     C_R   0.500000 0.824096 1.000000 0.026155
C61   C     C_R   0.500077 0.377742 0.944138 -0.128786
C62   C     C_R   0.499923 0.377742 0.055862 -0.128786
C63   C     C_R   0.000077 0.877742 0.944139 -0.128786
C64   C     C_R   0.999923 0.877742 0.055861 -0.128786
C65   C     C_R   0.067693 0.569686 0.712366 -0.121291
C66   C     C_R   0.932307 0.569686 0.287633 -0.121292
C67   C     C_R   0.567694 0.069686 0.712365 -0.121291
C68   C     C_R   0.499115 0.003099 0.186717 0.003622
C69   C     C_R   0.432305 0.069685 0.287635 -0.121291
C70   C     C_R   0.500097 0.342016 0.944133 -0.120476
C71   C     C_R   0.499903 0.342016 0.055867 -0.120476
C72   C     C_R   0.000097 0.842016 0.944134 -0.120476
C73   C     C_R   0.999903 0.842016 0.055866 -0.120476
C74   C     C_R   0.500000 0.323832 0.000000 0.030559
C75   C     C_R   0.000000 0.823832 0.000000 0.030558
C76   C     C_R   0.500000 0.395955 0.000000 0.015543
C77   C     C_R   1.000000 0.895955 0.000000 0.015543
C78   C     C_R   0.478941 0.267803 0.062449 -0.113330
C79   C     C_R   0.378933 0.476305 0.087508 -0.165152
C80   C     C_R   0.521059 0.267803 0.937550 -0.113331
C81   C     C_R   0.978941 0.767803 0.062450 -0.113331
C82   C     C_R   0.021059 0.767803 0.937550 -0.113331
C83   C     C_R   0.978917 0.732080 0.062434 -0.113337
C84   C     C_R   0.021083 0.732080 0.937566 -0.113337
C85   C     C_R   0.478916 0.232080 0.062434 -0.113337
C86   C     C_R   0.521084 0.232080 0.937566 -0.113336
C87   C     C_R   1.000000 0.713897 0.000000 0.030240
C88   C     C_R   0.500000 0.213896 0.000000 0.030240
C89   C     C_R   0.500000 0.285987 0.000000 0.030040
C90   C     C_R   0.621067 0.476305 0.912492 -0.165152
C91   C     C_R   0.000000 0.785987 0.000000 0.030040
C92   C     C_R   0.030959 0.657872 0.963889 -0.120052
C93   C     C_R   0.969041 0.657872 0.036111 -0.120051
C94   C     C_R   0.530959 0.157871 0.963889 -0.120051
C95   C     C_R   0.469041 0.157871 0.036111 -0.120052
C96   C     C_R   0.030969 0.622147 0.963940 -0.131149
C97   C     C_R   0.969030 0.622147 0.036060 -0.131149
C98   C     C_R   0.530969 0.122148 0.963940 -0.131148
C99   C     C_R   0.469031 0.122148 0.036060 -0.131149
C100  C     C_R   1.000000 0.603951 0.000000 0.013845
C101  C     C_R   0.878933 0.976304 0.087509 -0.165152
C102  C     C_R   0.500000 0.103951 0.000000 0.013845
C103  C     C_R   0.044011 0.549750 0.768521 -0.099804
C104  C     C_R   0.955989 0.549750 0.231478 -0.099804
C105  C     C_R   0.544012 0.049749 0.768521 -0.099804
C106  C     C_R   0.455988 0.049749 0.231479 -0.099804
C107  C     C_R   1.000000 0.676054 0.000000 0.031597
C108  C     C_R   0.500000 0.176054 0.000000 0.031598
C109  C     C_R   0.023750 0.525090 0.758178 0.027149
C110  C     C_R   0.976250 0.525090 0.241821 0.027149
C111  C     C_R   0.523751 0.025090 0.758178 0.027149
C112  C     C_R   0.933809 0.499970 0.566115 0.541572
C113  C     C_R   0.121067 0.976305 0.912492 -0.165152
C114  C     C_R   0.476249 0.025090 0.241822 0.027149
C115  C     C_R   0.025990 0.522729 0.690950 0.028229
C116  C     C_R   0.974010 0.522729 0.309049 0.028229
C117  C     C_R   0.525990 0.022729 0.690950 0.028229
C118  C     C_R   0.474010 0.022729 0.309050 0.028228
C119  C     C_R   0.003407 0.500411 0.682233 0.004421
C120  C     C_R   0.996593 0.500411 0.317767 0.004420
C121  C     C_R   0.503407 0.000411 0.682233 0.004421
C122  C     C_R   0.496593 0.000411 0.317767 0.004421
C123  C     C_2   0.393619 0.553616 0.176921 0.574471
C124  C     C_R   0.343239 0.474721 0.123978 -0.087007
C125  C     C_2   0.606381 0.553616 0.823079 0.574470
C126  C     C_2   0.893619 0.053617 0.176919 0.574470
C127  C     C_2   0.106381 0.053616 0.823079 0.574471
C128  C     C_3   0.289819 0.523607 0.073290 -0.011554
C129  C     C_3   0.311500 0.520380 0.993333 -0.364592
C130  C     C_3   0.710181 0.523607 0.926710 -0.011552
C131  C     C_3   0.688500 0.520380 0.006667 -0.364592
C132  C     C_3   0.789819 0.023605 0.073289 -0.011553
C133  C     C_3   0.811500 0.020377 0.993332 -0.364593
C134  C     C_3   0.210181 0.023607 0.926710 -0.011552
C135  C     C_R   0.656761 0.474721 0.876022 -0.087006
C136  C     C_3   0.188500 0.020380 0.006667 -0.364592
C137  C     C_R   0.843239 0.974720 0.123979 -0.087007
C138  C     C_R   0.156761 0.974721 0.876022 -0.087007
C139  C     C_R   0.323995 0.498537 0.177357 0.011008
C140  C     C_R   0.676005 0.498537 0.822643 0.011008
C141  C     C_R   0.823995 0.998537 0.177357 0.011008
C142  C     C_R   0.176005 0.998537 0.822643 0.011009
C143  C     C_R   0.341171 0.523494 0.194706 -0.137635
C144  C     C_R   0.566191 0.999970 0.433885 0.541571
C145  C     C_R   0.658829 0.523494 0.805294 -0.137635
C146  C     C_R   0.841171 0.023495 0.194706 -0.137635
C147  C     C_R   0.158829 0.023495 0.805293 -0.137636
C148  C     C_R   0.377144 0.525303 0.158821 0.044513
C149  C     C_R   0.622856 0.525303 0.841179 0.044513
C150  C     C_R   0.877144 0.025303 0.158820 0.044513
C151  C     C_R   0.122856 0.025303 0.841179 0.044512
C152  C     C_R   0.396216 0.501224 0.104548 -0.000337
C153  C     C_R   0.603784 0.501224 0.895452 -0.000338
C154  C     C_R   0.896216 0.001224 0.104548 -0.000337
C155  C     C_R   0.433809 0.999970 0.566115 0.541571
C156  C     C_R   0.103784 0.001224 0.895452 -0.000338
C157  C     C_R   0.267360 0.502530 0.288213 -0.160027
C158  C     C_R   0.732640 0.502530 0.711786 -0.160027
C159  C     C_R   0.767359 0.002531 0.288213 -0.160027
C160  C     C_R   0.232640 0.002531 0.711787 -0.160027
C161  C     C_R   0.001384 0.500035 0.617415 0.543242
C162  C     C_R   0.998616 0.500035 0.382585 0.543242
C163  C     C_R   0.501384 0.000035 0.617415 0.543242
C164  C     C_R   0.498616 0.000036 0.382585 0.543242
C165  C     C_R   0.231606 0.503170 0.323978 -0.131809
C166  C     C_R   0.980683 0.479482 0.737835 -0.151633
C167  C     C_R   0.768394 0.503170 0.676022 -0.131809
C168  C     C_R   0.731606 0.003170 0.323978 -0.131809
C169  C     C_R   0.268394 0.003170 0.676022 -0.131809
C170  C     C_R   0.213720 0.498583 0.286887 -0.019039
C171  C     C_R   0.786280 0.498583 0.713113 -0.019039
C172  C     C_R   0.713720 0.998583 0.286887 -0.019039
C173  C     C_R   0.286280 0.998583 0.713113 -0.019039
C174  C     C_R   0.231988 0.493753 0.213421 -0.095296
C175  C     C_R   0.768012 0.493753 0.786579 -0.095296
C176  C     C_R   0.731988 0.993752 0.213421 -0.095296
C177  C     C_R   0.019317 0.479482 0.262165 -0.151633
C178  C     C_R   0.268012 0.993753 0.786579 -0.095296
C179  C     C_R   0.267900 0.494351 0.176694 0.272147
C180  C     C_R   0.732100 0.494350 0.823306 0.272147
C181  C     C_R   0.767900 0.994350 0.176694 0.272147
C182  C     C_R   0.232100 0.994350 0.823306 0.272147
C183  C     C_R   0.285960 0.498032 0.214409 0.029169
C184  C     C_R   0.714040 0.498032 0.785590 0.029169
C185  C     C_R   0.785960 0.998032 0.214410 0.029168
C186  C     C_R   0.214040 0.998032 0.785590 0.029169
C187  C     C_R   0.157753 0.471656 0.317015 -0.117769
C188  C     C_R   0.480683 0.979482 0.737835 -0.151634
C189  C     C_R   0.842247 0.471656 0.682985 -0.117769
C190  C     C_R   0.657753 0.971656 0.317016 -0.117770
C191  C     C_R   0.342247 0.971656 0.682985 -0.117770
C192  C     C_R   0.121975 0.471873 0.353136 -0.125990
C193  C     C_R   0.878025 0.471873 0.646863 -0.125991
C194  C     C_R   0.621975 0.971873 0.353137 -0.125990
C195  C     C_R   0.378025 0.971873 0.646864 -0.125990
C196  C     C_R   0.103903 0.499775 0.396275 0.018857
C197  C     C_R   0.896097 0.499775 0.603725 0.018857
C198  C     C_R   0.603903 0.999775 0.396275 0.018856
C199  C     C_R   0.519318 0.979482 0.262165 -0.151634
C200  C     C_R   0.396097 0.999775 0.603725 0.018857
C201  C     C_R   0.122143 0.527278 0.403445 -0.130516
C202  C     C_R   0.877857 0.527278 0.596555 -0.130515
C203  C     C_R   0.622143 0.027278 0.403444 -0.130516
C204  C     C_R   0.377857 0.027278 0.596555 -0.130516
C205  C     C_R   0.157945 0.526700 0.368492 -0.116710
C206  C     C_R   0.842055 0.526700 0.631508 -0.116710
C207  C     C_R   0.657945 0.026700 0.368491 -0.116711
C208  C     C_R   0.342055 0.026700 0.631508 -0.116711
C209  C     C_R   0.051066 0.542371 0.634245 -0.099835
C210  C     C_R   0.979490 0.480755 0.802655 -0.151458
C211  C     C_R   0.948934 0.542372 0.365754 -0.099835
C212  C     C_R   0.551067 0.042371 0.634245 -0.099835
C213  C     C_R   0.448933 0.042371 0.365755 -0.099835
C214  C     C_R   0.175956 0.498973 0.324747 0.030268
C215  C     C_R   0.824044 0.498973 0.675253 0.030267
C216  C     C_R   0.675956 0.998973 0.324747 0.030268
C217  C     C_R   0.324044 0.998973 0.675253 0.030268
C218  C     C_R   0.000000 0.433784 0.000000 0.551056
C219  C     C_R   0.500000 0.933784 0.000000 0.551056
C220  C     C_R   0.000182 0.501368 0.880929 0.543923
Cu1   Cu    Cu3+1 0.000000 0.534200 0.500000 0.921606
Cu2   Cu    Cu3+1 0.500000 0.499920 0.938200 0.970557
Cu3   Cu    Cu3+1 1.000000 0.999920 0.061800 0.970557
Cu4   Cu    Cu3+1 1.000000 0.999920 0.938200 0.970558
Cu5   Cu    Cu3+1 0.500000 0.034200 0.500000 0.921607
Cu6   Cu    Cu3+1 0.000000 0.465790 0.500000 0.928072
Cu7   Cu    Cu3+1 0.500000 0.965790 0.500000 0.928072
Cu8   Cu    Cu3+1 0.965790 0.499980 0.034190 0.922476
Cu9   Cu    Cu3+1 0.034210 0.499980 0.965810 0.922475
Cu10  Cu    Cu3+1 0.465790 0.999980 0.034190 0.922475
Cu11  Cu    Cu3+1 0.534210 0.999980 0.965810 0.922474
Cu12  Cu    Cu3+1 0.500000 0.499920 0.061800 0.970556
H1    H     H_    0.963368 0.462400 0.731337 0.127936
H2    H     H_    0.782154 0.506703 0.619157 0.122978
H3    H     H_    0.537985 0.963861 0.155385 0.128602
H4    H     H_    0.393200 0.457520 0.046649 0.120554
H5    H     H_    0.606800 0.457520 0.953350 0.120553
H6    H     H_    0.893200 0.957519 0.046651 0.120553
H7    H     H_    0.106800 0.957520 0.953351 0.120553
H8    H     H_    0.330693 0.454655 0.110737 0.163096
H9    H     H_    0.669307 0.454655 0.889263 0.163096
H10   H     H_    0.830693 0.954654 0.110739 0.163096
H11   H     H_    0.169307 0.954655 0.889263 0.163096
H12   H     H_    0.326381 0.542446 0.234764 0.139716
H13   H     H_    0.717846 0.006704 0.380842 0.122978
H14   H     H_    0.673619 0.542446 0.765236 0.139715
H15   H     H_    0.826381 0.042447 0.234762 0.139716
H16   H     H_    0.173619 0.042446 0.765236 0.139715
H17   H     H_    0.432352 0.587705 0.143666 0.337882
H18   H     H_    0.567648 0.587705 0.856334 0.337882
H19   H     H_    0.932351 0.087705 0.143663 0.337884
H20   H     H_    0.067648 0.087705 0.856334 0.337883
H21   H     H_    0.303465 0.541046 0.091872 0.137225
H22   H     H_    0.264670 0.535121 0.086081 0.127589
H23   H     H_    0.298448 0.503527 0.972728 0.160969
H24   H     H_    0.282154 0.006703 0.619157 0.122978
H25   H     H_    0.315332 0.546052 0.968504 0.097467
H26   H     H_    0.336925 0.509286 0.979076 0.163974
H27   H     H_    0.696535 0.541046 0.908128 0.137224
H28   H     H_    0.735330 0.535121 0.913919 0.127588
H29   H     H_    0.701552 0.503526 0.027272 0.160969
H30   H     H_    0.684668 0.546052 0.031496 0.097467
H31   H     H_    0.663075 0.509286 0.020925 0.163974
H32   H     H_    0.803465 0.041044 0.091870 0.137224
H33   H     H_    0.764670 0.035119 0.086079 0.127589
H34   H     H_    0.798448 0.003523 0.972727 0.160970
H35   H     H_    0.218380 0.490473 0.184170 0.119526
H36   H     H_    0.815332 0.046049 0.968502 0.097467
H37   H     H_    0.836925 0.009284 0.979076 0.163974
H38   H     H_    0.196535 0.041046 0.908128 0.137223
H39   H     H_    0.235330 0.035121 0.913919 0.127588
H40   H     H_    0.201552 0.003526 0.027273 0.160969
H41   H     H_    0.184668 0.046052 0.031496 0.097467
H42   H     H_    0.163075 0.009286 0.020924 0.163974
H43   H     H_    0.781620 0.490473 0.815829 0.119526
H44   H     H_    0.718380 0.990472 0.184171 0.119526
H45   H     H_    0.281620 0.990473 0.815829 0.119526
H46   H     H_    0.171262 0.449995 0.283670 0.112507
H47   H     H_    0.828738 0.449995 0.716329 0.112507
H48   H     H_    0.671262 0.949995 0.283672 0.112507
H49   H     H_    0.036632 0.462400 0.268663 0.127936
H50   H     H_    0.328738 0.949995 0.716330 0.112507
H51   H     H_    0.108436 0.450429 0.346646 0.124342
H52   H     H_    0.891564 0.450428 0.653354 0.124342
H53   H     H_    0.608436 0.950428 0.346647 0.124342
H54   H     H_    0.391564 0.950429 0.653354 0.124342
H55   H     H_    0.108718 0.548960 0.436807 0.115085
H56   H     H_    0.891282 0.548960 0.563193 0.115086
H57   H     H_    0.608718 0.048961 0.436806 0.115086
H58   H     H_    0.391282 0.048960 0.563192 0.115085
H59   H     H_    0.171627 0.548067 0.374800 0.109356
H60   H     H_    0.463367 0.962401 0.731337 0.127936
H61   H     H_    0.828373 0.548067 0.625200 0.109356
H62   H     H_    0.671627 0.048067 0.374799 0.109356
H63   H     H_    0.328373 0.048067 0.625200 0.109356
H64   H     H_    0.527847 0.608347 0.057417 0.131443
H65   H     H_    0.472153 0.608347 0.942583 0.131443
H66   H     H_    0.027863 0.108346 0.057384 0.131444
H67   H     H_    0.972137 0.108346 0.942615 0.131445
H68   H     H_    0.055418 0.539761 0.580899 0.131947
H69   H     H_    0.944582 0.539761 0.419101 0.131947
H70   H     H_    0.555419 0.039760 0.580898 0.131947
H71   H     H_    0.536633 0.962401 0.268662 0.127935
H72   H     H_    0.444581 0.039760 0.419102 0.131947
H73   H     H_    0.528974 0.670748 0.055462 0.106261
H74   H     H_    0.471026 0.670748 0.944538 0.106261
H75   H     H_    0.028991 0.170748 0.055428 0.106261
H76   H     H_    0.971010 0.170748 0.944572 0.106261
H77   H     H_    0.502818 0.719478 0.897612 0.104146
H78   H     H_    0.497181 0.719478 0.102387 0.104146
H79   H     H_    0.002797 0.219478 0.897632 0.104144
H80   H     H_    0.997203 0.219478 0.102367 0.104145
H81   H     H_    0.001544 0.282021 0.899318 0.110445
H82   H     H_    0.280532 0.505401 0.318402 0.124505
H83   H     H_    0.998456 0.282021 0.100682 0.110445
H84   H     H_    0.501566 0.782022 0.899297 0.110450
H85   H     H_    0.498434 0.782021 0.100703 0.110450
H86   H     H_    0.047919 0.328510 0.000691 0.112134
H87   H     H_    0.952081 0.328510 0.999309 0.112134
H88   H     H_    0.547919 0.828510 0.000691 0.112139
H89   H     H_    0.452081 0.828510 0.999309 0.112139
H90   H     H_    0.048274 0.391405 0.999560 0.122981
H91   H     H_    0.951726 0.391405 0.000440 0.122982
H92   H     H_    0.548274 0.891405 0.999559 0.122982
H93   H     H_    0.719468 0.505401 0.681598 0.124505
H94   H     H_    0.451726 0.891405 0.000441 0.122982
H95   H     H_    0.500045 0.391058 0.900433 0.130629
H96   H     H_    0.499955 0.391058 0.099567 0.130629
H97   H     H_    0.000044 0.891058 0.900434 0.130629
H98   H     H_    0.999956 0.891058 0.099566 0.130628
H99   H     H_    0.499747 0.328594 0.900856 0.107233
H100  H     H_    0.500253 0.328594 0.099145 0.107233
H101  H     H_    0.999746 0.828594 0.900857 0.107233
H102  H     H_    0.000254 0.828594 0.099143 0.107233
H103  H     H_    0.462221 0.281220 0.111145 0.104738
H104  H     H_    0.780532 0.005402 0.318402 0.124505
H105  H     H_    0.537779 0.281220 0.888855 0.104738
H106  H     H_    0.962221 0.781220 0.111146 0.104739
H107  H     H_    0.037778 0.781220 0.888855 0.104739
H108  H     H_    0.962670 0.718661 0.111431 0.103733
H109  H     H_    0.037330 0.718661 0.888569 0.103733
H110  H     H_    0.462669 0.218662 0.111431 0.103733
H111  H     H_    0.537331 0.218661 0.888570 0.103733
H112  H     H_    0.055212 0.671293 0.936330 0.106182
H113  H     H_    0.944787 0.671293 0.063670 0.106182
H114  H     H_    0.555213 0.171293 0.936332 0.106181
H115  H     H_    0.219468 0.005401 0.681598 0.124505
H116  H     H_    0.444787 0.171293 0.063668 0.106182
H117  H     H_    0.090540 0.580604 0.601376 0.108504
H118  H     H_    0.909460 0.580604 0.398623 0.108504
H119  H     H_    0.590541 0.080603 0.601375 0.108504
H120  H     H_    0.409458 0.080603 0.398625 0.108503
H121  H     H_    0.055243 0.608815 0.935694 0.126564
H122  H     H_    0.944757 0.608815 0.064306 0.126564
H123  H     H_    0.555243 0.108815 0.935696 0.126564
H124  H     H_    0.444757 0.108815 0.064304 0.126564
H125  H     H_    0.083217 0.588245 0.720959 0.110556
H126  H     H_    0.217846 0.506703 0.380842 0.122978
H127  H     H_    0.916783 0.588245 0.279040 0.110557
H128  H     H_    0.583218 0.088245 0.720958 0.110556
H129  H     H_    0.416782 0.088244 0.279042 0.110556
H130  H     H_    0.041530 0.554303 0.819920 0.135994
H131  H     H_    0.958470 0.554303 0.180079 0.135994
H132  H     H_    0.541530 0.054303 0.819920 0.135994
H133  H     H_    0.458469 0.054303 0.180080 0.135994
H134  H     H_    0.962016 0.463860 0.844614 0.128602
H135  H     H_    0.037984 0.463860 0.155386 0.128602
H136  H     H_    0.462015 0.963861 0.844615 0.128603
O1    O     O_R   0.049910 0.528880 0.450120 -0.515490
O2    O     O_R   0.549920 0.499990 0.002300 -0.513125
O3    O     O_R   0.950080 0.999990 0.997700 -0.513126
O4    O     O_R   0.049920 0.999990 0.002300 -0.513126
O5    O     O_R   0.500010 0.549830 0.052290 -0.493267
O6    O     O_R   0.499990 0.549830 0.947710 -0.493266
O7    O     O_R   0.000010 0.049830 0.052290 -0.493264
O8    O     O_R   0.999990 0.049830 0.947710 -0.493264
O9    O     O_R   0.049890 0.471110 0.450120 -0.509815
O10   O     O_R   0.950110 0.471110 0.549880 -0.509814
O11   O     O_R   0.549890 0.971110 0.450120 -0.509815
O12   O     O_R   0.950090 0.528880 0.549880 -0.515491
O13   O     O_R   0.450110 0.971110 0.549880 -0.509814
O14   O     O_R   0.000000 0.528880 0.590170 -0.511466
O15   O     O_R   0.000000 0.528880 0.409830 -0.511465
O16   O     O_R   0.500000 0.028880 0.590170 -0.511466
O17   O     O_R   0.500000 0.028880 0.409830 -0.511464
O18   O     O_R   0.999990 0.471110 0.590170 -0.507817
O19   O     O_R   0.000010 0.471110 0.409830 -0.507817
O20   O     O_R   0.499990 0.971110 0.590170 -0.507817
O21   O     O_R   0.500010 0.971110 0.409830 -0.507817
O22   O     O_R   0.971110 0.450080 0.028870 -0.507098
O23   O     O_R   0.549910 0.028880 0.450120 -0.515490
O24   O     O_R   0.028890 0.450080 0.971130 -0.507099
O25   O     O_R   0.471110 0.950080 0.028870 -0.507098
O26   O     O_R   0.528890 0.950080 0.971130 -0.507099
O27   O     O_R   0.971100 0.499980 0.938700 -0.508196
O28   O     O_R   0.028900 0.499980 0.061300 -0.508197
O29   O     O_R   0.471100 0.999980 0.938700 -0.508196
O30   O     O_R   0.528900 0.999980 0.061300 -0.508197
O31   O     O_R   0.028870 0.499990 0.880960 -0.511749
O32   O     O_R   0.971130 0.499990 0.119040 -0.511748
O33   O     O_R   0.528870 0.999990 0.880960 -0.511749
O34   O     O_R   0.450090 0.028880 0.549880 -0.515491
O35   O     O_R   0.471130 0.999990 0.119040 -0.511749
O36   O     O_R   0.971110 0.549890 0.028880 -0.520375
O37   O     O_R   0.028890 0.549890 0.971120 -0.520375
O38   O     O_R   0.471110 0.049890 0.028880 -0.520375
O39   O     O_R   0.528890 0.049890 0.971120 -0.520376
O40   O     O_R   0.499990 0.450010 0.052090 -0.522090
O41   O     O_R   0.500010 0.450010 0.947910 -0.522089
O42   O     O_R   0.999990 0.950010 0.052090 -0.522090
O43   O     O_R   0.000010 0.950010 0.947910 -0.522090
O44   O     O_2   0.379944 0.564827 0.237356 -0.524445
O45   O     O_R   0.450090 0.499920 0.102070 -0.481736
O46   O     O_R   0.424028 0.568392 0.124724 -0.696130
O47   O     O_2   0.620056 0.564827 0.762644 -0.524445
O48   O     O_R   0.575972 0.568392 0.875276 -0.696130
O49   O     O_2   0.879944 0.064828 0.237353 -0.524444
O50   O     O_R   0.924028 0.068393 0.124722 -0.696135
O51   O     O_2   0.120056 0.064827 0.762644 -0.524444
O52   O     O_R   0.075972 0.068392 0.875276 -0.696133
O53   O     O_3   0.285121 0.490778 0.103961 -0.573347
O54   O     O_3   0.714879 0.490778 0.896039 -0.573347
O55   O     O_3   0.785121 0.990776 0.103961 -0.573348
O56   O     O_R   0.549910 0.499920 0.897930 -0.481735
O57   O     O_3   0.214879 0.990778 0.896039 -0.573346
O58   O     O_R   0.950090 0.999920 0.102070 -0.481737
O59   O     O_R   0.049910 0.999920 0.897930 -0.481735
O60   O     O_R   0.450080 0.499990 0.997700 -0.513125

loop_
_geom_bond_atom_site_label_1
_geom_bond_atom_site_label_2
_ccdc_geom_bond_type
C61   C70   A    
C21   C26   A    
C7    O38   A    
C64   C77   A    
C130  O54   S    
C36   C42   A    
C83   H108  S    
Cu11  O39   S    
C191  C217  A    
C56   C218  S    
C15   C32   S    
C189  H47   S    
C190  H48   S    
C79   H4    S    
C11   O56   A    
C88   C108  S    
C86   C88   A    
C210  H134  S    
C52   H90   S    
C157  H82   S    
Cu11  O26   S    
C149  C153  A    
C127  O51   D    
C146  C150  A    
C204  H58   S    
C40   C43   A    
C3    O32   A    
Cu3   Cu4   S    
C41   H84   S    
C14   O59   A    
C7    C102  S    
C70   C74   A    
Cu6   O9    S    
C125  O47   D    
C2    C177  A    
C219  O26   A    
C35   C109  A    
C131  H30   S    
C166  H1    S    
C73   C75   A    
C169  H24   S    
C119  C161  S    
C5    O30   A    
C42   C44   A    
Cu10  O38   S    
C53   H91   S    
C4    O33   A    
Cu8   Cu9   S    
C188  H60   S    
C158  C167  A    
C78   C89   A    
C75   C91   S    
C37   H79   S    
C38   H80   S    
C34   H77   S    
C101  C137  A    
C67   C105  A    
C167  C171  A    
C28   C209  A    
C98   C102  A    
C146  H15   S    
C17   C21   A    
C82   C91   A    
C162  O15   A    
C106  H133  S    
C19   C23   A    
C120  C177  A    
C5    O35   A    
C50   H88   S    
Cu3   O42   S    
Cu5   O17   S    
C136  H40   S    
C9    C77   S    
C164  O17   A    
C90   C153  A    
C9    O43   A    
C178  C182  A    
C125  C149  S    
Cu5   O16   S    
C20   C33   A    
C205  C214  A    
C129  H26   S    
C82   C84   A    
C46   C110  A    
C71   H100  S    
C110  C116  A    
C213  H72   S    
C170  C174  A    
C208  C217  A    
C11   O2    A    
H18   O48   S    
C14   C156  S    
C117  C212  A    
C12   C154  S    
C140  C145  A    
C130  H28   S    
Cu12  O45   S    
C3    C46   S    
C203  H57   S    
Cu3   O4    S    
C22   H74   S    
C135  H9    S    
C130  C131  S    
C50   C54   A    
C166  C210  A    
C104  C110  A    
C57   C111  A    
C171  C175  A    
Cu7   O20   S    
C49   C53   A    
C207  C216  A    
C67   H128  S    
C118  C213  A    
C51   C55   A    
C175  H43   S    
C195  H54   S    
C48   C52   A    
C87   C107  S    
C16   O7    A    
C4    O29   A    
C17   C32   A    
C78   H103  S    
C63   H97   S    
C180  O54   S    
C172  C216  S    
C181  O55   S    
C138  H11   S    
C180  C184  A    
C174  H35   S    
C30   H119  S    
C124  C139  A    
C136  H41   S    
C128  C129  S    
Cu2   O6    S    
C42   H85   S    
C7    O39   A    
Cu9   O28   S    
C9    O42   A    
C92   H112  S    
C116  C211  A    
C129  H25   S    
Cu8   O32   S    
C13   C57   A    
C121  C163  S    
C92   C96   A    
C122  C164  S    
C118  C122  A    
C26   C45   S    
C127  C151  S    
C132  H33   S    
C139  C143  A    
C128  H22   S    
C80   C86   A    
C64   C73   A    
C37   C47   A    
C201  H55   S    
C30   C67   A    
C43   C59   S    
Cu6   O18   S    
C168  H13   S    
Cu2   Cu12  S    
C72   C75   A    
C81   C83   A    
C128  H21   S    
C103  H130  S    
C131  H31   S    
C61   C76   A    
C143  C148  A    
Cu11  O30   S    
C204  C208  A    
C82   H107  S    
C19   C33   A    
Cu9   O24   S    
C157  C165  A    
C64   H98   S    
Cu1   O14   S    
C3    O28   A    
C126  O50   S    
C194  H53   S    
C116  C120  A    
C6    C100  S    
C205  H59   S    
C147  C151  A    
C49   H87   S    
C200  C204  A    
Cu12  O40   S    
C81   H106  S    
C197  C202  A    
Cu9   O31   S    
C192  H51   S    
C187  C192  A    
Cu8   O36   S    
C78   C85   A    
Cu9   O37   S    
C147  H16   S    
C115  C119  A    
C18   H65   S    
C65   C103  A    
C39   H81   S    
C93   C97   A    
C97   C100  A    
C48   C59   A    
C53   C56   A    
C27   C47   S    
C158  C184  A    
C18   C22   A    
C144  O23   A    
C142  C147  A    
C148  C152  A    
H20   O52   S    
C73   H102  S    
C175  C180  A    
C31   C213  A    
C134  H38   S    
C79   C124  A    
C49   C59   A    
C111  C117  A    
C50   C60   A    
C164  O21   A    
C61   H95   S    
C40   H83   S    
C90   C135  A    
C126  C150  S    
C194  C198  A    
C1    O1    A    
C173  C178  A    
C96   C100  A    
Cu5   Cu7   S    
C62   C71   A    
C105  H132  S    
C191  C195  A    
C2    H135  S    
C11   C153  S    
C15   O5    A    
C31   C69   A    
C141  C185  S    
C123  C148  S    
Cu7   O21   S    
Cu6   O10   S    
C201  C205  A    
C12   O58   A    
C51   C60   A    
Cu2   O60   S    
C196  C201  A    
C219  O25   A    
C172  C176  A    
C79   C152  A    
C131  H29   S    
C206  C215  A    
C83   C87   A    
C112  O10   A    
C72   H101  S    
Cu10  O29   S    
C6    O36   A    
C23   H75   S    
C99   H124  S    
C96   H121  S    
C62   H96   S    
C155  O13   A    
C140  C184  S    
C192  C196  A    
C35   C210  A    
C48   H86   S    
C109  C115  A    
C51   H89   S    
C163  O16   A    
C124  H8    S    
C85   C88   A    
C20   C25   A    
C94   C98   A    
C95   C99   A    
C20   H67   S    
C182  C186  A    
C80   C89   A    
H19   O50   S    
C189  C215  A    
C10   C152  S    
C129  H23   S    
C80   H105  S    
C160  C169  A    
C123  O46   S    
C218  O24   A    
C132  H32   S    
C171  C215  S    
C105  C111  A    
C187  C214  A    
C159  H104  S    
C202  H56   S    
C62   C76   A    
C176  C181  A    
C34   C41   A    
C5    C68   S    
C14   O4    A    
C29   C211  A    
H17   O46   S    
C135  C140  A    
C55   H94   S    
Cu5   O23   S    
C66   C104  A    
C138  C142  A    
C115  C209  A    
C94   H114  S    
Cu1   Cu6   S    
Cu4   O3    S    
C127  O52   S    
C10   O45   A    
Cu1   O15   S    
C125  O48   S    
C85   H110  S    
C141  C146  A    
C137  H10   S    
C8    O40   A    
C112  O12   A    
C13   H136  S    
C16   O8    A    
C41   C44   A    
C18   C32   A    
C113  C156  A    
C112  C197  S    
C165  C170  A    
C137  C141  A    
C90   H5    S    
C220  O27   A    
C163  O20   A    
C136  H42   S    
C191  H50   S    
C134  O57   S    
C161  O18   A    
C71   C74   A    
C69   C106  A    
C170  C214  S    
C19   H66   S    
C103  C109  A    
C12   O3    A    
C28   C65   A    
C37   C39   A    
Cu1   O1    S    
C121  C188  A    
C38   C40   A    
C178  H45   S    
C159  C185  A    
C44   C60   S    
Cu12  O2    S    
C199  H71   S    
C123  O44   D    
Cu10  Cu11  S    
C218  O22   A    
C24   C68   A    
C81   C91   A    
C168  C172  A    
C99   C102  A    
C63   C72   A    
C22   C26   A    
C55   C58   A    
C198  C203  A    
C113  C138  A    
C157  C183  A    
C190  C216  A    
Cu4   O8    S    
C145  C149  A    
C182  O57   S    
Cu4   O59   S    
Cu6   O19   S    
C167  H2    S    
C84   C87   A    
C160  C186  A    
C35   C220  S    
C130  H27   S    
C133  H34   S    
C2    C46   A    
C8    O41   A    
C94   C108  A    
C145  H14   S    
C106  C114  A    
C101  C154  A    
C74   C89   S    
C161  O14   A    
Cu8   O22   S    
C211  H69   S    
C30   C212  A    
C128  O53   S    
C159  C168  A    
C209  H68   S    
Cu2   O56   S    
C117  C121  A    
C206  H61   S    
C66   H127  S    
C24   C199  A    
C132  C133  S    
Cu10  O25   S    
C4    C57   S    
Cu8   O27   S    
C23   C27   A    
C122  C199  A    
C173  C217  S    
C208  H63   S    
C15   O6    A    
C63   C77   A    
C95   H116  S    
C25   H76   S    
Cu7   O13   S    
C13   C188  A    
C212  H70   S    
C176  H44   S    
C144  O11   A    
C162  O19   A    
C179  C183  A    
C39   C43   A    
C165  H126  S    
C142  C186  S    
C1    O9    A    
C179  O53   S    
C160  H115  S    
C36   H78   S    
C1    C196  S    
Cu11  O33   S    
C93   H113  S    
C98   H123  S    
C70   H99   S    
C181  C185  A    
C134  C136  S    
C134  H39   S    
C151  C156  A    
C203  C207  A    
C104  H131  S    
C189  C193  A    
C16   C33   S    
C58   C219  S    
C92   C107  A    
C133  H37   S    
C132  O55   S    
C65   H125  S    
C21   H73   S    
C97   H122  S    
C36   C45   A    
C34   C45   A    
C119  C166  A    
C38   C47   A    
C114  C118  A    
C95   C108  A    
Cu2   O41   S    
C177  H49   S    
C193  H52   S    
C155  O34   A    
C8    C76   S    
C202  C206  A    
C29   H118  S    
Cu10  O35   S    
Cu3   O58   S    
C54   H92   S    
C10   O60   A    
C31   H120  S    
C139  C183  S    
C133  H36   S    
C195  C200  A    
C54   C58   A    
C187  H46   S    
C169  C173  A    
Cu3   O7    S    
C101  H6    S    
C86   H111  S    
C6    O37   A    
Cu1   O12   S    
C120  C162  S    
C25   C27   A    
C126  O49   D    
Cu5   O34   S    
C24   H3    S    
C93   C107  A    
C193  C197  A    
C207  H62   S    
Cu4   O43   S    
C190  C194  A    
C29   C66   A    
C113  H7    S    
C158  H93   S    
C144  C198  S    
C84   H109  S    
Cu7   O11   S    
Cu12  O5    S    
C150  C154  A    
C220  O31   A    
C143  H12   S    
C174  C179  A    
C69   H129  S    
C155  C200  S    
C52   C56   A    
C68   C114  A    
C28   H117  S    
C17   H64   S    
