data_mof_unit_pretest_1014.cif
_audit_creation_date              2012-12-10T17:05:24-0500
_audit_creation_method            fapswitch 2.2
_symmetry_space_group_name_H-M    P1
_symmetry_Int_Tables_number       1
_space_group_crystal_system       triclinic
_cell_length_a                    10.084408
_cell_length_b                    10.636015
_cell_length_c                    15.5675
_cell_angle_alpha                 90.455646
_cell_angle_beta                  67.235125
_cell_angle_gamma                 90.852974
_cell_volume                      1539.49097243

loop_
_atom_site_label
_atom_site_type_symbol
_atom_type_description
_atom_site_fract_x
_atom_site_fract_y
_atom_site_fract_z
_atom_type_partial_charge
C1    C     C_R   0.502179 0.737807 0.499057 0.976023
C2    C     C_R   0.724479 0.534675 0.029298 -0.040360
C3    C     C_R   0.584464 0.492727 0.086497 0.024210
C4    C     C_R   0.409391 0.499364 0.675836 0.860628
C5    C     C_R   0.821660 0.576304 0.068851 0.429825
C6    C     C_R   0.785281 0.562806 0.165859 0.087516
C7    C     C_R   0.556886 0.467949 0.179477 -0.191925
C8    C     C_2   0.641284 0.065531 0.439906 0.160934
C9    C     C_2   0.523412 0.135208 0.451451 -0.079913
C10   C     C_2   0.630382 0.929243 0.435083 0.465642
C11   C     C_2   0.511793 0.871376 0.495371 -0.456950
C12   C     C_R   0.417767 0.471006 0.910915 0.071094
C13   C     C_2   0.107037 0.438340 0.440481 0.614670
C14   C     C_2   0.965953 0.461846 0.430783 -0.290186
C15   C     C_R   0.506036 0.262958 0.488524 0.927054
C16   C     C_R   0.591260 0.501819 0.323731 0.903580
C17   C     C_R   0.353015 0.487744 0.776976 -0.082136
C18   C     C_R   0.649559 0.508849 0.221216 -0.165779
C19   C     C_R   0.174028 0.418788 0.924251 -0.091561
C20   C     C_R   0.214467 0.441447 0.829144 -0.178909
C21   C     C_R   0.448834 0.510226 0.820034 -0.230732
C22   C     C_3   0.779745 0.117620 0.443701 -0.845995
C23   C     C_R   0.274597 0.435875 0.965765 0.134646
C24   C     C_3   0.407621 0.088465 0.418070 -0.868134
C25   C     C_3   0.067485 0.602508 0.555896 -0.706586
C26   C     C_3   0.892768 0.597320 0.208271 -0.840914
C27   C     C_R   0.523622 0.475291 0.949729 -0.129296
C28   C     C_R   0.478163 0.473559 0.048188 0.014125
C29   C     C_R   0.327895 0.459902 0.104058 0.449301
C30   C     C_R   0.231499 0.428298 0.061747 -0.349585
C31   C     C_R   0.673717 0.485535 0.893451 0.393189
C32   C     C_R   0.768054 0.528142 0.932814 -0.157949
H1    H     H_    0.119300 0.409581 0.104346 0.150507
H2    H     H_    0.962893 0.709817 0.042079 0.346976
H3    H     H_    0.864419 0.045228 0.425449 0.235409
H4    H     H_    0.822859 0.195244 0.392687 0.247635
H5    H     H_    0.761552 0.150293 0.515242 0.244086
H6    H     H_    0.391805 0.159533 0.371126 0.276978
H7    H     H_    0.436237 0.000374 0.376699 0.251947
H8    H     H_    0.304288 0.074227 0.478533 0.248219
H9    H     H_    0.800161 0.832525 0.405120 0.338525
H10   H     H_    0.153638 0.310784 0.344131 0.309389
H11   H     H_    0.138639 0.662554 0.577876 0.253573
H12   H     H_    0.422450 0.923285 0.544791 0.125624
H13   H     H_    0.022449 0.664431 0.517001 0.201431
H14   H     H_    0.986073 0.567314 0.622587 0.209153
H15   H     H_    0.916880 0.512174 0.239593 0.222208
H16   H     H_    0.997833 0.631488 0.157567 0.244975
H17   H     H_    0.848263 0.670982 0.262116 0.291525
H18   H     H_    0.168174 0.481241 0.224121 0.322817
H19   H     H_    0.673970 0.378035 0.792898 0.339962
H20   H     H_    0.957784 0.441505 0.364873 0.146482
H21   H     H_    0.850142 0.483048 0.564446 0.206807
H22   H     H_    0.464327 0.412048 0.220729 0.242422
H23   H     H_    0.879300 0.545696 0.887435 0.208428
H24   H     H_    0.064768 0.388343 0.965216 0.152354
H25   H     H_    0.138406 0.423123 0.796794 0.162446
H26   H     H_    0.549135 0.558514 0.781257 0.206392
N1    N     N_2   0.148330 0.498670 0.499030 -0.057419
N2    N     N_2   0.852680 0.498640 0.499000 -0.202845
O1    O     O_R   0.386950 0.680940 0.500010 -0.621416
O2    O     O_3   0.742401 0.863798 0.370862 -0.766964
O3    O     O_3   0.201256 0.352963 0.381785 -0.751249
O4    O     O_3   0.274381 0.489422 0.197786 -0.769691
O5    O     O_3   0.733998 0.447801 0.801541 -0.800908
O6    O     O_R   0.613110 0.680900 0.499990 -0.597154
O7    O     O_R   0.322330 0.500030 0.632270 -0.611434
O8    O     O_R   0.548480 0.499990 0.632240 -0.610797
O9    O     O_R   0.386890 0.319100 0.500010 -0.570177
O10   O     O_R   0.613050 0.319060 0.499990 -0.619140
O11   O     O_R   0.451520 0.500010 0.367760 -0.549677
O12   O     O_R   0.677670 0.499970 0.367730 -0.614153
O13   O     O_3   0.949737 0.631404 0.011392 -0.792259
Zn1   Zn    Zn3+2 0.349000 0.500030 0.500020 1.005487
Zn2   Zn    Zn3+2 0.651000 0.499970 0.499980 0.937999

loop_
_geom_bond_atom_site_label_1
_geom_bond_atom_site_label_2
_ccdc_geom_bond_type
C19   H24   S    
C8    C9    D    
O11   Zn1   S    
C8    C22   S    
C9    C24   S    
C29   C30   A    
C13   N1    D    
O1    Zn1   S    
C4    O7    A    
C14   N2    D    
C24   H7    S    
C32   H23   S    
C19   C23   A    
C19   C20   A    
N1    Zn1   S    
C26   H16   S    
C7    C18   A    
C16   O12   A    
C25   H11   S    
C2    C3    A    
C9    C15   S    
C29   O4    S    
C21   H26   S    
O7    Zn1   S    
C10   O2    S    
C13   C14   S    
O8    Zn2   S    
C22   H3    S    
C12   C23   A    
C6    C26   S    
C16   O11   A    
H9    O2    S    
O12   Zn2   S    
C6    C18   A    
C4    C17   S    
H10   O3    S    
C8    C10   S    
C28   C29   A    
C24   H8    S    
H21   N2    S    
C1    O6    A    
C3    C7    A    
C7    H22   S    
C5    O13   S    
C5    C6    A    
C15   O9    A    
C17   C21   A    
C2    C5    A    
C10   C11   D    
O6    Zn2   S    
H2    O13   S    
C27   C31   A    
C24   H6    S    
C15   O10   A    
C23   C30   A    
C25   H13   S    
C11   H12   S    
C17   C20   A    
H18   O4    S    
N2    Zn2   S    
C25   H14   S    
C2    C32   A    
H19   O5    S    
C26   H17   S    
O10   Zn2   S    
C31   O5    S    
C22   H4    S    
C26   H15   S    
O9    Zn1   S    
C3    C28   A    
C1    C11   S    
C25   N1    S    
C30   H1    S    
C20   H25   S    
C22   H5    S    
C4    O8    A    
C12   C21   A    
C16   C18   S    
C14   H20   S    
C31   C32   A    
C1    O1    A    
C12   C27   A    
C27   C28   A    
C13   O3    S    
