data_mof_unit_pretest_185.cif
_audit_creation_date              2012-12-10T17:50:31-0500
_audit_creation_method            fapswitch 2.2
_symmetry_space_group_name_H-M    P1
_symmetry_Int_Tables_number       1
_space_group_crystal_system       triclinic
_cell_length_a                    15.710824
_cell_length_b                    10.712266
_cell_length_c                    9.922073
_cell_angle_alpha                 89.50869
_cell_angle_beta                  89.991733
_cell_angle_gamma                 91.803245
_cell_volume                      1668.98179949

loop_
_atom_site_label
_atom_site_type_symbol
_atom_type_description
_atom_site_fract_x
_atom_site_fract_y
_atom_site_fract_z
_atom_type_partial_charge
C1    C     C_R   0.507652 0.260683 0.501401 0.859161
C2    C     C_R   0.513903 0.048253 0.876456 0.196440
C3    C     C_R   0.460290 0.939410 0.869896 0.085924
C4    C     C_R   0.338009 0.499699 0.499986 0.890121
C5    C     C_R   0.445864 0.883784 0.744134 -0.224186
C6    C     C_R   0.480240 0.937526 0.624910 0.064390
C7    C     C_R   0.511001 0.060265 0.629066 0.041490
C8    C     C_R   0.516704 0.127426 0.505838 -0.096287
C9    C     C_R   0.516734 0.064793 0.383455 -0.230608
C10   C     C_R   0.506114 0.937549 0.381890 -0.227084
C11   C     C_R   0.487472 0.873042 0.501642 -0.099225
C12   C     C_3   0.082672 0.499605 0.499756 0.212170
C13   C     C_R   0.386742 0.338151 0.141234 -0.160310
C14   C     C_R   0.331206 0.258189 0.071625 -0.224837
C15   C     C_R   0.331721 0.257656 0.932125 -0.196495
C16   C     C_R   0.493298 0.739496 0.500053 0.874860
C17   C     C_R   0.387485 0.337411 0.861372 -0.130359
C18   C     C_R   0.444085 0.420528 0.928389 0.151517
C19   C     C_R   0.443997 0.420647 0.072940 0.173799
C20   C     C_R   0.553582 0.575903 0.070744 -0.140437
C21   C     C_R   0.553517 0.575937 0.927697 -0.141320
C22   C     C_R   0.662016 0.500341 0.500003 0.909531
C23   C     C_3   0.974235 0.603697 0.560374 -0.167097
C24   C     C_3   0.969679 0.398390 0.566997 -0.166680
C25   C     C_3   0.025908 0.395776 0.439130 -0.166764
C26   C     C_1   0.248996 0.499585 0.499952 -0.190089
C27   C     C_1   0.751075 0.500180 0.499948 -0.192122
C28   C     C_3   0.028252 0.502219 0.627615 -0.165274
C29   C     C_3   0.421830 0.875152 0.993625 -0.439344
C30   C     C_3   0.324279 0.877638 0.992714 -0.344720
C31   C     C_3   0.287009 0.815990 0.119899 -0.864789
C32   C     C_3   0.544944 0.097560 0.011647 -0.441163
C33   C     C_3   0.614933 0.200239 0.007571 -0.869621
C34   C     C_3   0.917450 0.499867 0.499758 0.212558
C35   C     C_3   0.030461 0.601081 0.432507 -0.165465
C36   C     C_3   0.971881 0.497255 0.371888 -0.162285
C37   C     C_1   0.173622 0.499546 0.499849 -0.086863
C38   C     C_1   0.826469 0.500028 0.499853 -0.085586
C39   C     C_R   0.536191 0.109620 0.754805 -0.190425
H1    H     H_    0.049248 0.310837 0.389588 0.129603
H2    H     H_    0.942650 0.315573 0.621945 0.130743
H3    H     H_    0.946656 0.495227 0.267394 0.132170
H4    H     H_    0.057540 0.683866 0.377545 0.130604
H5    H     H_    0.950936 0.688659 0.609916 0.130908
H6    H     H_    0.053510 0.504239 0.732093 0.133191
H7    H     H_    0.525696 0.114340 0.289280 0.173881
H8    H     H_    0.576292 0.193017 0.757075 0.186249
H9    H     H_    0.306335 0.717248 0.127452 0.273229
H10   H     H_    0.309391 0.867122 0.210892 0.260324
H11   H     H_    0.216415 0.817678 0.116218 0.240582
H12   H     H_    0.407205 0.798505 0.740401 0.173426
H13   H     H_    0.303845 0.975915 0.987320 0.222164
H14   H     H_    0.298352 0.827202 0.903574 0.218371
H15   H     H_    0.442120 0.776813 0.996738 0.215295
H16   H     H_    0.443969 0.919294 0.087894 0.195668
H17   H     H_    0.671251 0.168111 0.951444 0.254050
H18   H     H_    0.591525 0.286822 0.960648 0.263961
H19   H     H_    0.635047 0.222853 0.112087 0.257051
H20   H     H_    0.489494 0.132812 0.066956 0.225200
H21   H     H_    0.571670 0.018759 0.069712 0.197711
H22   H     H_    0.513380 0.889786 0.287233 0.160355
H23   H     H_    0.597182 0.638293 0.123775 0.149395
H24   H     H_    0.383497 0.331456 0.248143 0.208016
H25   H     H_    0.288130 0.195325 0.126454 0.151205
H26   H     H_    0.288971 0.194582 0.878161 0.140975
H27   H     H_    0.384833 0.330473 0.754545 0.204843
H28   H     H_    0.597045 0.638391 0.873433 0.157905
N1    N     N_R   0.499210 0.498800 0.142780 -0.118670
N2    N     N_R   0.499180 0.498720 0.857170 -0.127492
O1    O     O_R   0.500000 0.316780 0.614690 -0.651605
O2    O     O_R   0.499990 0.316750 0.385360 -0.639308
O3    O     O_R   0.376780 0.500000 0.614650 -0.636327
O4    O     O_R   0.376770 0.499980 0.385310 -0.631098
O5    O     O_R   0.500010 0.683250 0.614640 -0.622608
O6    O     O_R   0.500000 0.683220 0.385310 -0.619191
O7    O     O_R   0.623230 0.500020 0.614690 -0.613761
O8    O     O_R   0.623220 0.500000 0.385350 -0.610017
Zn1   Zn    Zn3+2 0.500010 0.500020 0.653130 0.921581
Zn2   Zn    Zn3+2 0.499990 0.499980 0.346870 0.928898

loop_
_geom_bond_atom_site_label_1
_geom_bond_atom_site_label_2
_ccdc_geom_bond_type
C33   H19   S    
O1    Zn1   S    
C16   O6    A    
C36   H3    S    
C35   C36   S    
C22   O7    A    
O2    Zn2   S    
C7    C8    A    
C17   H27   S    
C1    O2    A    
C12   C28   S    
C16   O5    A    
O7    Zn1   S    
C25   H1    S    
C5    C6    A    
C29   H15   S    
C27   C38   T    
C1    C8    S    
C2    C32   S    
C18   C19   A    
C12   C37   S    
C3    C29   S    
O3    Zn1   S    
C2    C39   A    
C8    C9    A    
C35   H4    S    
C9    C10   A    
C18   N2    A    
C9    H7    S    
C13   C14   A    
C21   H28   S    
C24   H2    S    
N2    Zn1   S    
C31   H10   S    
O8    Zn2   S    
C30   H14   S    
C28   H6    S    
C13   C19   A    
C24   C25   S    
C6    C11   A    
C29   H16   S    
C24   C34   S    
C23   H5    S    
C21   N2    A    
C29   C30   S    
C11   C16   S    
C13   H24   S    
C23   C34   S    
C14   H25   S    
C17   C18   A    
O4    Zn2   S    
C19   N1    A    
C23   C28   S    
C12   C35   S    
C4    O4    A    
C23   C35   S    
C31   H9    S    
C10   H22   S    
C32   H21   S    
C31   H11   S    
C4    O3    A    
C39   H8    S    
C15   C17   A    
C30   H13   S    
C33   H18   S    
C34   C38   S    
C20   N1    A    
C24   C28   S    
C22   O8    A    
C3    C5    A    
C4    C26   S    
C26   C37   T    
C6    C7    A    
C1    O1    A    
C12   C25   S    
C22   C27   S    
C32   C33   S    
C2    C3    A    
C30   C31   S    
C33   H17   S    
C34   C36   S    
C20   H23   S    
C10   C11   A    
C25   C36   S    
C20   C21   A    
N1    Zn2   S    
O5    Zn1   S    
C7    C39   A    
C14   C15   A    
C5    H12   S    
C32   H20   S    
O6    Zn2   S    
C15   H26   S    
