data_mof_unit_pretest_1350.cif
_audit_creation_date              2012-12-10T17:14:43-0500
_audit_creation_method            fapswitch 2.2
_symmetry_space_group_name_H-M    P1
_symmetry_Int_Tables_number       1
_space_group_crystal_system       triclinic
_cell_length_a                    10.629659
_cell_length_b                    12.999503
_cell_length_c                    11.699848
_cell_angle_alpha                 99.700919
_cell_angle_beta                  94.073455
_cell_angle_gamma                 90.479999
_cell_volume                      1589.20482277

loop_
_atom_site_label
_atom_site_type_symbol
_atom_type_description
_atom_site_fract_x
_atom_site_fract_y
_atom_site_fract_z
_atom_type_partial_charge
C1    C     C_R   0.498837 0.299551 0.478868 0.905069
C2    C     C_R   0.501163 0.700449 0.521132 0.905069
C3    C     C_R   0.434846 0.133195 0.535747 0.279135
C4    C     C_R   0.565154 0.866805 0.464253 0.279135
C5    C     C_R   0.455000 0.026514 0.535691 0.020646
C6    C     C_R   0.545000 0.973486 0.464309 0.020646
C7    C     C_R   0.380805 0.402479 0.020878 -0.357632
C8    C     C_R   0.619195 0.597521 0.979122 -0.357632
C9    C     C_R   0.391775 0.411303 0.143252 0.380113
C10   C     C_R   0.608225 0.588697 0.856748 0.380114
C11   C     C_R   0.551692 0.541970 0.157163 0.013327
C12   C     C_R   0.448308 0.458030 0.842837 0.013327
C13   C     C_R   0.543297 0.535322 0.034462 0.034108
C14   C     C_R   0.456703 0.464678 0.965538 0.034108
C15   C     C_R   0.259191 0.499977 0.499955 0.811306
C16   C     C_R   0.740809 0.500023 0.500045 0.811307
C17   C     C_3   0.044440 0.416860 0.543228 -0.153225
C18   C     C_3   0.955560 0.583140 0.456772 -0.153225
C19   C     C_3   0.952125 0.411801 0.434029 -0.168615
C20   C     C_3   0.047875 0.588199 0.565971 -0.168615
C21   C     C_3   0.877693 0.499986 0.500380 0.017475
C22   C     C_3   0.122307 0.500014 0.499620 0.017474
C23   C     C_3   0.967753 0.505049 0.609710 -0.140179
C24   C     C_3   0.032247 0.494950 0.390290 -0.140180
C25   C     C_R   0.492958 0.813115 0.532300 -0.108375
C26   C     C_R   0.507042 0.186885 0.467700 -0.108373
C27   C     C_R   0.612256 0.028074 0.393788 -0.181101
C28   C     C_R   0.387744 0.971926 0.606212 -0.181102
C29   C     C_R   0.594346 0.134134 0.395521 0.059949
C30   C     C_R   0.405654 0.865866 0.604479 0.059953
Cu1   Cu    Cu3+1 0.509400 0.507730 0.615930 0.997113
Cu2   Cu    Cu3+1 0.490600 0.492270 0.384070 0.997113
H1    H     H_    0.910060 0.339775 0.379846 0.142948
H2    H     H_    0.089940 0.660225 0.620154 0.142948
H3    H     H_    0.083822 0.348901 0.578626 0.185344
H4    H     H_    0.916178 0.651099 0.421374 0.185344
H5    H     H_    0.938878 0.509135 0.699684 0.145332
H6    H     H_    0.061122 0.490865 0.300316 0.145332
H7    H     H_    0.680593 0.989966 0.337565 0.206831
H8    H     H_    0.319407 0.010034 0.662434 0.206831
H9    H     H_    0.381509 0.403861 0.789416 0.178877
H10   H     H_    0.618490 0.596139 0.210584 0.178876
H11   H     H_    0.313244 0.347177 0.969849 0.159423
H12   H     H_    0.686756 0.652822 0.030151 0.159423
N1    N     N_R   0.523540 0.519360 0.790140 -0.180668
N2    N     N_R   0.476460 0.480640 0.209860 -0.180668
O1    O     O_R   0.506670 0.354460 0.582000 -0.565877
O2    O     O_R   0.493330 0.645540 0.418000 -0.565878
O3    O     O_R   0.490800 0.341410 0.386200 -0.547051
O4    O     O_R   0.509200 0.658590 0.613800 -0.547051
O5    O     O_R   0.324790 0.506500 0.597880 -0.580447
O6    O     O_R   0.675210 0.493500 0.402120 -0.580448
O7    O     O_R   0.308910 0.493440 0.402080 -0.575593
O8    O     O_R   0.691090 0.506560 0.597920 -0.575593
Cl1   Cl    Cl    0.683880 0.800245 0.382914 -0.710680
Cl2   Cl    Cl    0.316121 0.199755 0.617087 -0.710680
N3    N     N_3   0.331283 0.810802 0.673090 -0.578838
H13   H     H_    0.348232 0.845496 0.760248 0.229996
H14   H     H_    0.236114 0.820396 0.648743 0.213066
N4    N     N_3   0.668715 0.189197 0.326908 -0.578841
H15   H     H_    0.651763 0.154504 0.239751 0.229998
H16   H     H_    0.763883 0.179604 0.351252 0.213068
N5    N     N_3   0.686338 0.653037 0.802087 -0.522249
H17   H     H_    0.669103 0.731022 0.835384 0.203673
H18   H     H_    0.780502 0.638575 0.825385 0.186800
N6    N     N_3   0.313662 0.346963 0.197913 -0.522249
H19   H     H_    0.330898 0.268978 0.164616 0.203673
H20   H     H_    0.219498 0.361424 0.174614 0.186800

loop_
_geom_bond_atom_site_label_1
_geom_bond_atom_site_label_2
_ccdc_geom_bond_type
C24   H6    S    
N5    H18   S    
C16   C21   S    
C12   N1    A    
C12   H9    S    
C7    H11   S    
C27   C29   A    
C5    C28   A    
C11   C13   A    
C3    Cl2   S    
C18   C20   S    
C17   C22   S    
C17   C23   S    
C20   C23   S    
C3    C5    A    
C20   H2    S    
C10   N1    A    
C28   C30   A    
C4    C25   A    
C9    N2    A    
C16   O8    A    
Cu1   O1    S    
C13   C14   A    
Cu2   O2    S    
C8    H12   S    
N3    H13   S    
C8    C13   A    
Cu2   N2    S    
C11   H10   S    
C18   C24   S    
C5    C6    A    
C15   O7    A    
C8    C10   A    
Cu1   O5    S    
C17   C19   S    
C20   C22   S    
C19   C24   S    
C2    C25   S    
C15   O5    A    
C15   C22   S    
Cu1   O8    S    
C19   H1    S    
C1    C26   S    
Cu1   Cu2   S    
C22   C24   S    
Cu2   O3    S    
N3    H14   S    
C4    C6    A    
N6    H20   S    
C28   H8    S    
Cu1   O4    S    
N5    H17   S    
C18   C21   S    
C30   N3    S    
Cu2   O6    S    
Cu2   O7    S    
N6    H19   S    
C26   C29   A    
N4    H16   S    
Cu1   N1    S    
C27   H7    S    
C25   C30   A    
C7    C9    A    
C6    C27   A    
C9    N6    S    
C1    O1    A    
C11   N2    A    
C17   H3    S    
C2    O4    A    
C2    O2    A    
C23   H5    S    
C29   N4    S    
C18   H4    S    
C21   C23   S    
C10   N5    S    
C3    C26   A    
C7    C14   A    
C16   O6    A    
C4    Cl1   S    
C12   C14   A    
N4    H15   S    
C19   C21   S    
C1    O3    A    
