data_mof_unit_pretest_1408.cif
_audit_creation_date              2012-12-10T20:34:55-0500
_audit_creation_method            fapswitch 2.2
_symmetry_space_group_name_H-M    P1
_symmetry_Int_Tables_number       1
_space_group_crystal_system       triclinic
_cell_length_a                    10.657663
_cell_length_b                    10.666355
_cell_length_c                    9.874021
_cell_angle_alpha                 89.963926
_cell_angle_beta                  90.577373
_cell_angle_gamma                 90.131517
_cell_volume                      1122.40292266

loop_
_atom_site_label
_atom_site_type_symbol
_atom_type_description
_atom_site_fract_x
_atom_site_fract_y
_atom_site_fract_z
_atom_type_partial_charge
C1    C     C_R   0.503937 0.260020 0.500148 0.861633
C2    C     C_R   0.517761 0.936028 0.623521 0.137613
C3    C     C_3   0.422529 0.928453 0.733436 -0.442513
C4    C     C_R   0.257701 0.497811 0.499465 0.942364
C5    C     C_3   0.422358 0.070563 0.733405 -0.489898
C6    C     C_R   0.436547 0.409390 0.070249 0.092607
C7    C     C_R   0.571088 0.582952 0.072710 -0.100543
C8    C     C_R   0.570804 0.583216 0.928773 -0.082919
C9    C     C_R   0.438208 0.408160 0.927596 0.115621
C10   C     C_3   0.301647 0.381166 0.916920 -0.532527
C11   C     C_3   0.298163 0.387858 0.069787 0.441384
C12   C     C_3   0.878646 0.494755 0.499206 -0.069274
C13   C     C_R   0.504015 0.739986 0.500045 0.929991
C14   C     C_R   0.742196 0.496946 0.500184 0.880128
C15   C     C_3   0.072872 0.384537 0.584411 -0.501426
C16   C     C_3   0.929198 0.389873 0.593960 -0.342262
C17   C     C_3   0.072538 0.621242 0.559206 0.384713
C18   C     C_3   0.070746 0.482059 0.351790 -0.314394
C19   C     C_3   0.121241 0.496558 0.498658 -0.089118
C20   C     C_2   0.882010 0.353415 0.284946 0.466689
C21   C     C_3   0.928347 0.623612 0.551271 0.367370
C22   C     C_3   0.927803 0.473976 0.351273 -0.245570
C23   C     C_R   0.517686 0.063828 0.623572 0.141475
C24   C     C_R   0.523869 0.128674 0.501488 -0.097798
C25   C     C_R   0.553912 0.065081 0.381857 -0.188558
C26   C     C_R   0.553909 0.935369 0.381794 -0.198296
C27   C     C_R   0.523934 0.871426 0.501376 -0.095820
F1    F     F_    0.121264 0.723361 0.490019 -0.681416
F2    F     F_    0.234512 0.493415 0.111442 -0.657123
F3    F     F_    0.881043 0.651684 0.678149 -0.673083
H1    H     H_    0.113499 0.386735 0.688391 0.186585
H2    H     H_    0.626684 0.651451 0.127559 0.135463
H3    H     H_    0.101667 0.294399 0.537366 0.226870
H4    H     H_    0.625956 0.652111 0.875086 0.173030
H5    H     H_    0.248501 0.457923 0.866546 0.245067
H6    H     H_    0.282463 0.285742 0.876644 0.148243
H7    H     H_    0.269322 0.299420 0.120363 0.068441
H8    H     H_    0.887553 0.297306 0.567768 0.213435
H9    H     H_    0.902739 0.409508 0.700633 0.218299
H10   H     H_    0.103637 0.628832 0.666911 0.152300
H11   H     H_    0.098983 0.565212 0.291058 0.265105
H12   H     H_    0.892717 0.552228 0.286290 0.122896
H13   H     H_    0.112718 0.397524 0.304220 0.231312
H14   H     H_    0.812063 0.357994 0.204426 0.072520
H15   H     H_    0.897180 0.698947 0.480503 0.125465
H16   H     H_    0.568785 0.114438 0.287413 0.169068
H17   H     H_    0.568748 0.886247 0.287311 0.168078
H18   H     H_    0.332085 0.886730 0.698496 0.234611
H19   H     H_    0.462125 0.887430 0.828133 0.206867
H20   H     H_    0.331849 0.111625 0.698280 0.206933
H21   H     H_    0.461744 0.111738 0.828152 0.204191
N1    N     N_R   0.499150 0.499140 0.142800 -0.082565
N2    N     N_R   0.499150 0.499180 0.857150 -0.093561
O1    O     O_R   0.500020 0.316790 0.614690 -0.620837
O2    O     O_R   0.500000 0.316760 0.385350 -0.642171
O3    O     O_R   0.314800 0.500000 0.614670 -0.644881
O4    O     O_R   0.314790 0.499960 0.385330 -0.560255
O5    O     O_R   0.500000 0.683240 0.614650 -0.614955
O6    O     O_R   0.499980 0.683210 0.385310 -0.612680
O7    O     O_R   0.685210 0.500040 0.614670 -0.569767
O8    O     O_R   0.685200 0.500000 0.385330 -0.670866
O9    O     O_2   0.921255 0.251081 0.320955 -0.580950
Zn1   Zn    Zn3+2 0.500010 0.500020 0.653130 0.976332
Zn2   Zn    Zn3+2 0.499990 0.499980 0.346870 0.983330

loop_
_geom_bond_atom_site_label_1
_geom_bond_atom_site_label_2
_ccdc_geom_bond_type
C4    O4    A    
C8    N2    A    
O8    Zn2   S    
C23   C24   A    
C20   O9    D    
C15   H1    S    
C2    C27   A    
C13   O6    A    
N1    Zn2   S    
C14   O7    A    
C9    C10   S    
C5    C23   S    
C1    O1    A    
C6    N1    A    
O2    Zn2   S    
C6    C9    A    
C2    C3    S    
C1    O2    A    
O3    Zn1   S    
C7    C8    A    
C13   O5    A    
C8    H4    S    
C18   H13   S    
C4    O3    A    
C15   C19   S    
C14   O8    A    
C4    C19   S    
O6    Zn2   S    
C22   H12   S    
C26   H17   S    
C1    C24   S    
O7    Zn1   S    
C12   C21   S    
C17   C19   S    
C12   C14   S    
C7    N1    A    
C21   H15   S    
C6    C11   S    
C26   C27   A    
C10   H5    S    
C17   C21   S    
C5    H20   S    
C9    N2    A    
C10   C11   S    
C20   C22   S    
C16   H9    S    
C15   C16   S    
C3    H19   S    
C12   C22   S    
C3    H18   S    
C2    C23   A    
C24   C25   A    
C11   F2    S    
O4    Zn2   S    
C18   C19   S    
C21   F3    S    
C18   H11   S    
C5    H21   S    
O5    Zn1   S    
C11   H7    S    
O1    Zn1   S    
N2    Zn1   S    
C10   H6    S    
C7    H2    S    
C20   H14   S    
C25   C26   A    
C18   C22   S    
C17   F1    S    
C25   H16   S    
C15   H3    S    
C13   C27   S    
C12   C16   S    
C16   H8    S    
C3    C5    S    
C17   H10   S    
