data_mof_unit_pretest_1217.cif
_audit_creation_date              2012-12-10T20:46:34-0500
_audit_creation_method            fapswitch 2.2
_symmetry_space_group_name_H-M    P1
_symmetry_Int_Tables_number       1
_space_group_crystal_system       triclinic
_cell_length_a                    10.473886
_cell_length_b                    8.937809
_cell_length_c                    8.105229
_cell_angle_alpha                 89.999929
_cell_angle_beta                  102.282572
_cell_angle_gamma                 89.999932
_cell_volume                      741.391846657

loop_
_atom_site_label
_atom_site_type_symbol
_atom_type_description
_atom_site_fract_x
_atom_site_fract_y
_atom_site_fract_z
_atom_type_partial_charge
C1    C     C_R   0.500000 0.217945 0.500000 0.916003
C2    C     C_1   0.500000 0.934848 0.500000 -0.194607
C3    C     C_3   0.845428 0.249035 0.390833 -0.882660
C4    C     C_3   0.154572 0.249036 0.609171 -0.882656
C5    C     C_3   0.972894 0.557464 0.731080 -0.943724
C6    C     C_3   0.027106 0.557462 0.268919 -0.943722
C7    C     C_R   0.500000 0.782059 0.500000 0.942259
C8    C     C_R   0.256493 0.492544 0.432761 0.920781
C9    C     C_R   0.743507 0.492544 0.567239 0.920782
C10   C     C_2   0.116331 0.464738 0.401293 -0.010001
C11   C     C_2   0.883669 0.464739 0.598707 -0.010000
C12   C     C_2   0.069511 0.362680 0.498367 0.203853
C13   C     C_2   0.930490 0.362680 0.501635 0.203853
C14   C     C_1   0.500000 0.065189 0.500000 -0.200568
H1    H     H_    0.906405 0.163035 0.345385 0.238908
H2    H     H_    0.083994 0.632975 0.202776 0.247783
H3    H     H_    0.966958 0.482791 0.173506 0.263998
H4    H     H_    0.961892 0.627737 0.328247 0.254157
H5    H     H_    0.781761 0.190735 0.463682 0.223697
H6    H     H_    0.785165 0.303553 0.277746 0.262070
H7    H     H_    0.093596 0.163038 0.654624 0.238907
H8    H     H_    0.218238 0.190734 0.536322 0.223697
H9    H     H_    0.214838 0.303556 0.722255 0.262071
H10   H     H_    0.916006 0.632978 0.797221 0.247783
H11   H     H_    0.033042 0.482795 0.826494 0.263998
H12   H     H_    0.038107 0.627738 0.671751 0.254157
N1    N     N_1   0.500020 0.500000 0.073650 -0.033351
N2    N     N_1   0.499980 0.500000 0.926350 -0.033351
O1    O     O_R   0.499990 0.285340 0.636850 -0.613579
O2    O     O_R   0.500010 0.714660 0.363150 -0.609097
O3    O     O_R   0.500010 0.285340 0.363150 -0.613579
O4    O     O_R   0.499990 0.714660 0.636850 -0.609097
O5    O     O_R   0.317810 0.500000 0.585760 -0.619918
O6    O     O_R   0.682190 0.500000 0.414240 -0.619917
O7    O     O_R   0.317820 0.500000 0.312020 -0.607515
O8    O     O_R   0.682180 0.500000 0.687980 -0.607515
Zn1   Zn    Zn3+2 0.499990 0.500000 0.682780 0.973050
Zn2   Zn    Zn3+2 0.500010 0.500000 0.317220 0.973051

loop_
_geom_bond_atom_site_label_1
_geom_bond_atom_site_label_2
_ccdc_geom_bond_type
C6    C10   S    
C9    O8    A    
C3    H5    S    
C1    C14   S    
C4    C12   S    
C11   C13   D    
C2    C7    S    
C3    C13   S    
O3    Zn2   S    
C1    O1    A    
C3    H1    S    
C3    H6    S    
C7    O2    A    
O4    Zn1   S    
C4    H7    S    
C9    C11   S    
C5    H10   S    
C10   C12   D    
N2    Zn1   S    
C6    H4    S    
O8    Zn1   S    
C5    C11   S    
C8    O5    A    
C9    O6    A    
C2    C14   T    
C5    H11   S    
N1    Zn2   S    
C6    H2    S    
C5    H12   S    
C1    O3    A    
O7    Zn2   S    
C4    H8    S    
C12   C13   S    
O2    Zn2   S    
C8    C10   S    
O1    Zn1   S    
N1    N2    T    
C4    H9    S    
C6    H3    S    
C7    O4    A    
O6    Zn2   S    
O5    Zn1   S    
C8    O7    A    
