data_mof_unit_pretest_93.cif
_audit_creation_date              2012-12-10T16:53:32-0500
_audit_creation_method            fapswitch 2.2
_symmetry_space_group_name_H-M    P1
_symmetry_Int_Tables_number       1
_space_group_crystal_system       triclinic
_cell_length_a                    8.066431
_cell_length_b                    8.485168
_cell_length_c                    13.583779
_cell_angle_alpha                 94.536492
_cell_angle_beta                  78.882332
_cell_angle_gamma                 93.127361
_cell_volume                      908.701268271

loop_
_atom_site_label
_atom_site_type_symbol
_atom_type_description
_atom_site_fract_x
_atom_site_fract_y
_atom_site_fract_z
_atom_type_partial_charge
C1    C     C_R   0.541680 0.795685 0.510462 0.787955
C2    C     C_1   0.544047 0.456090 0.122631 -0.031783
C3    C     C_2   0.551426 0.963335 0.544632 0.153593
C4    C     C_2   0.419404 0.047372 0.538483 0.065000
C5    C     C_3   0.329803 0.662615 0.046446 -0.383691
C6    C     C_3   0.141424 0.620083 0.049797 -0.328534
C7    C     C_3   0.029723 0.747735 0.109554 -0.797388
C8    C     C_3   0.633003 0.303715 0.958141 -0.385136
C9    C     C_3   0.824482 0.333186 0.948910 -0.380516
C10   C     C_3   0.919743 0.188752 0.898702 -0.730815
C11   C     C_R   0.453349 0.205927 0.508093 0.791251
C12   C     C_R   0.471289 0.506016 0.686077 0.937498
C13   C     C_R   0.528426 0.494568 0.314005 0.864966
C14   C     C_1   0.542334 0.474606 0.209983 -0.118168
C15   C     C_1   0.453239 0.517839 0.790531 -0.034398
C16   C     C_2   0.536281 0.438816 0.019446 0.084544
C17   C     C_2   0.438527 0.536301 0.983449 0.069293
C18   C     C_1   0.442326 0.527861 0.878842 -0.035092
H1    H     H_    0.052299 0.764640 0.187870 0.296377
H2    H     H_    0.057973 0.215103 0.889729 0.242404
H3    H     H_    0.866289 0.436900 0.903908 0.249967
H4    H     H_    0.856883 0.358947 0.024604 0.218346
H5    H     H_    0.593433 0.193086 0.996689 0.197896
H6    H     H_    0.603011 0.282740 0.881857 0.251714
H7    H     H_    0.637996 0.932404 0.796923 0.367769
H8    H     H_    0.188684 0.236773 0.709694 0.343421
H9    H     H_    0.938247 0.241770 0.237253 0.349546
H10   H     H_    0.025858 0.682903 0.789132 0.346871
H11   H     H_    0.056443 0.861604 0.073290 0.250138
H12   H     H_    0.894656 0.711608 0.111862 0.238568
H13   H     H_    0.114815 0.606165 0.972184 0.212967
H14   H     H_    0.108174 0.505881 0.085019 0.248412
H15   H     H_    0.352772 0.680384 0.124558 0.220791
H16   H     H_    0.362722 0.777659 0.012049 0.204877
H17   H     H_    0.886413 0.086212 0.945764 0.235352
H18   H     H_    0.887268 0.157194 0.823660 0.330794
N1    N     N_2   0.954190 0.457600 0.473930 0.142209
N2    N     N_2   0.045810 0.542400 0.526070 0.130134
O1    O     O_R   0.388300 0.738660 0.506400 -0.583833
O2    O     O_2   0.588625 0.178406 0.696814 -0.360586
O3    O     O_3   0.587907 0.888354 0.739001 -0.525544
O4    O     O_2   0.117841 0.902078 0.568300 -0.171344
O5    O     O_2   0.258155 0.938648 0.713902 -0.250709
O6    O     O_3   0.122832 0.179896 0.662501 -0.463900
O7    O     O_2   0.104889 0.503352 0.287144 -0.351967
O8    O     O_2   0.177711 0.264429 0.359578 -0.283718
O9    O     O_3   0.889262 0.265688 0.309232 -0.531478
O10   O     O_2   0.824343 0.706444 0.654990 -0.226417
O11   O     O_2   0.883325 0.439502 0.698724 -0.290236
O12   O     O_R   0.611700 0.261340 0.493600 -0.568389
O13   O     O_3   0.091215 0.672451 0.719410 -0.464596
O14   O     O_R   0.679920 0.711490 0.489690 -0.578493
O15   O     O_R   0.320080 0.288510 0.510310 -0.535337
O16   O     O_R   0.333200 0.515510 0.649910 -0.583824
O17   O     O_R   0.666800 0.484490 0.350090 -0.575585
O18   O     O_R   0.624820 0.488340 0.633200 -0.516898
O19   O     O_R   0.375180 0.511660 0.366800 -0.549398
O20   O     O_2   0.832572 0.028044 0.617387 -0.144397
S1    S     S_3+6 0.645270 0.019164 0.650656 0.096770
S2    S     S_3+6 0.225844 0.012792 0.623033 0.128658
S3    S     S_3+6 0.040228 0.374484 0.356132 0.147127
S4    S     S_3+6 0.955725 0.587955 0.650448 0.189908
Zn1   Zn    Zn3+2 0.305280 0.518140 0.511160 1.194131
Zn2   Zn    Zn3+2 0.694720 0.481860 0.488840 1.192924

loop_
_geom_bond_atom_site_label_1
_geom_bond_atom_site_label_2
_ccdc_geom_bond_type
O9    S3    S    
C15   C18   T    
N1    S3    S    
O18   Zn2   S    
C6    C7    S    
C7    H11   S    
C2    C16   S    
O1    Zn1   S    
C9    C10   S    
O10   S4    D    
H9    O9    S    
C11   O15   A    
C12   C15   S    
C5    H16   S    
C4    S2    S    
C6    H13   S    
C8    C9    S    
H8    O6    S    
C8    C16   S    
C11   O12   A    
C12   O18   A    
C13   C14   S    
O17   Zn2   S    
C4    C11   S    
O15   Zn1   S    
C9    H3    S    
N1    N2    D    
O13   S4    S    
C10   H2    S    
O5    S2    D    
O6    S2    S    
O7    S3    D    
C8    H6    S    
O19   Zn1   S    
C7    H1    S    
C1    O14   A    
C5    C6    S    
C2    C14   T    
H10   O13   S    
C9    H4    S    
C13   O19   A    
C5    C17   S    
O16   Zn1   S    
C1    O1    A    
O8    S3    D    
O4    S2    D    
C3    C4    D    
C10   H17   S    
C5    H15   S    
C8    H5    S    
O12   Zn2   S    
O3    S1    S    
C17   C18   S    
N2    Zn1   S    
O14   Zn2   S    
H7    O3    S    
O2    S1    D    
C16   C17   D    
C6    H14   S    
C10   H18   S    
O11   S4    D    
C1    C3    S    
O20   S1    D    
N2    S4    S    
C12   O16   A    
C3    S1    S    
N1    Zn2   S    
C13   O17   A    
C7    H12   S    
