data_mof_unit_pretest_437.cif
_audit_creation_date              2012-12-11T14:10:54-0500
_audit_creation_method            fapswitch 2.2
_symmetry_space_group_name_H-M    P1
_symmetry_Int_Tables_number       1
_space_group_crystal_system       triclinic
_cell_length_a                    19.739677
_cell_length_b                    17.171528
_cell_length_c                    15.468125
_cell_angle_alpha                 90.000448
_cell_angle_beta                  52.453838
_cell_angle_gamma                 90.000075
_cell_volume                      4157.04378459

loop_
_atom_site_label
_atom_site_type_symbol
_atom_type_description
_atom_site_fract_x
_atom_site_fract_y
_atom_site_fract_z
_atom_type_partial_charge
C1    C     C_R   0.339147 0.175093 0.048878 -0.115532
C2    C     C_3   0.703055 0.759104 0.434084 -0.170170
C3    C     C_3   0.792695 0.190168 0.413040 -0.169861
C4    C     C_3   0.207343 0.809810 0.586939 -0.169865
C5    C     C_3   0.707273 0.690154 0.586973 -0.169867
C6    C     C_3   0.292361 0.309661 0.413222 -0.169839
C7    C     C_3   0.203004 0.740927 0.434108 -0.170173
C8    C     C_3   0.796958 0.259095 0.565908 -0.170167
C9    C     C_2   0.286539 0.687108 0.954376 -0.202880
C10   C     C_2   0.713460 0.312892 0.045624 -0.202893
C11   C     C_2   0.809624 0.743471 0.905236 -0.212593
C12   C     C_R   0.660855 0.824909 0.951117 -0.115548
C13   C     C_2   0.190376 0.256528 0.094763 -0.212590
C14   C     C_2   0.690377 0.243472 0.094763 -0.212630
C15   C     C_2   0.309623 0.756528 0.905237 -0.212586
C16   C     C_2   0.213462 0.187109 0.045619 -0.202885
C17   C     C_2   0.786539 0.812891 0.954378 -0.202884
C18   C     C_R   0.349721 0.826835 0.220781 -0.128286
C19   C     C_R   0.650278 0.173166 0.779219 -0.128274
C20   C     C_R   0.609634 0.802513 0.786809 -0.140484
C21   C     C_R   0.390323 0.197475 0.213217 -0.140541
C22   C     C_R   0.890359 0.302515 0.213193 -0.140488
C23   C     C_R   0.625821 0.197142 0.004714 -0.121274
C24   C     C_R   0.109642 0.697485 0.786806 -0.140492
C25   C     C_R   0.150297 0.326854 0.779218 -0.128325
C26   C     C_R   0.849721 0.673166 0.220781 -0.128271
C27   C     C_R   0.365445 0.889848 0.897119 -0.162223
C28   C     C_R   0.634554 0.110152 0.102881 -0.162229
C29   C     C_R   0.670108 0.913334 0.048838 -0.160876
C30   C     C_R   0.329892 0.086666 0.951160 -0.160883
C31   C     C_R   0.829891 0.413334 0.951162 -0.160883
C32   C     C_R   0.170108 0.586666 0.048838 -0.160876
C33   C     C_R   0.134554 0.389848 0.102881 -0.162225
C34   C     C_R   0.374179 0.802858 0.995286 -0.121272
C35   C     C_R   0.865445 0.610152 0.897119 -0.162224
C36   C     C_R   0.399071 0.106180 0.308951 -0.152285
C37   C     C_R   0.600901 0.893810 0.691065 -0.152327
C38   C     C_R   0.642945 0.080329 0.682999 -0.143344
C39   C     C_R   0.357055 0.919670 0.317001 -0.143320
C40   C     C_R   0.857054 0.580330 0.317000 -0.143346
C41   C     C_R   0.142959 0.419687 0.683006 -0.143277
C42   C     C_R   0.100905 0.606188 0.691063 -0.152335
C43   C     C_R   0.899093 0.393812 0.308938 -0.152324
C44   C     C_R   0.287389 0.147839 0.023290 0.154591
C45   C     C_R   0.874179 0.697142 0.995286 -0.121274
C46   C     C_R   0.712612 0.852163 0.976706 0.154592
C47   C     C_R   0.653155 0.185891 0.066968 0.157476
C48   C     C_R   0.346844 0.814109 0.933032 0.157473
C49   C     C_R   0.846844 0.685890 0.933032 0.157474
C50   C     C_R   0.153155 0.314109 0.066968 0.157477
C51   C     C_R   0.212612 0.647837 0.976706 0.154591
C52   C     C_R   0.787388 0.352163 0.023294 0.154600
C53   C     C_R   0.308317 0.859307 0.322956 0.031533
C54   C     C_R   0.691680 0.140695 0.677043 0.031534
C55   C     C_R   0.624239 0.818554 0.689963 0.042418
C56   C     C_R   0.125820 0.302858 0.004714 -0.121288
C57   C     C_R   0.375693 0.181424 0.310079 0.042430
C58   C     C_R   0.875750 0.318558 0.310042 0.042418
C59   C     C_R   0.124251 0.681441 0.689957 0.042424
C60   C     C_R   0.191716 0.359344 0.677049 0.031490
C61   C     C_R   0.808319 0.640695 0.322956 0.031537
C62   C     C_3   0.259581 0.204414 0.512583 -0.151949
C63   C     C_3   0.740587 0.795488 0.487603 -0.151782
C64   C     C_3   0.830018 0.153128 0.466987 -0.152930
C65   C     C_3   0.170007 0.846884 0.533026 -0.152950
C66   C     C_3   0.669962 0.653132 0.533001 -0.152921
C67   C     C_R   0.160855 0.675090 0.951118 -0.115543
C68   C     C_3   0.329811 0.346970 0.466862 -0.153068
C69   C     C_3   0.240559 0.704490 0.487570 -0.151808
C70   C     C_3   0.759415 0.295498 0.512413 -0.151795
C71   C     C_3   0.623718 0.730778 0.546770 -0.145045
C72   C     C_3   0.376353 0.269493 0.452950 -0.144948
C73   C     C_3   0.285710 0.780895 0.475515 -0.138929
C74   C     C_3   0.714300 0.219072 0.524451 -0.138946
C75   C     C_3   0.214188 0.280685 0.524760 -0.138796
C76   C     C_3   0.785683 0.719052 0.475573 -0.138955
C77   C     C_3   0.876281 0.230763 0.453211 -0.145038
C78   C     C_R   0.839145 0.324910 0.048882 -0.115553
C79   C     C_3   0.123708 0.769270 0.546820 -0.145026
C80   C     C_3   0.662543 0.766489 0.598336 0.186466
C81   C     C_3   0.337391 0.233492 0.401709 0.186473
C82   C     C_3   0.247995 0.817208 0.422639 0.186287
C83   C     C_3   0.752004 0.182794 0.577360 0.186288
C84   C     C_3   0.252017 0.317234 0.577366 0.186288
C85   C     C_3   0.747991 0.682793 0.422640 0.186287
C86   C     C_3   0.837444 0.266493 0.401668 0.186467
C87   C     C_3   0.162557 0.733506 0.598329 0.186470
C88   C     C_3   0.297248 0.241089 0.565782 -0.170181
H1    H     H_    0.329134 0.224625 0.098138 0.086494
H2    H     H_    0.668750 0.224420 0.800659 0.091902
H3    H     H_    0.611522 0.745998 0.816060 0.084427
H4    H     H_    0.388430 0.253993 0.183978 0.084454
H5    H     H_    0.888471 0.246000 0.183943 0.084430
H6    H     H_    0.111531 0.754000 0.816054 0.084430
H7    H     H_    0.168775 0.275598 0.800647 0.091950
H8    H     H_    0.831248 0.724419 0.199340 0.091899
H9    H     H_    0.361917 0.915907 0.836287 0.088870
H10   H     H_    0.638083 0.084093 0.163713 0.088876
H11   H     H_    0.690327 0.947133 0.088445 0.096633
H12   H     H_    0.670870 0.775380 0.901851 0.086508
H13   H     H_    0.309674 0.052867 0.911554 0.096635
H14   H     H_    0.809673 0.447133 0.911557 0.096635
H15   H     H_    0.190327 0.552867 0.088443 0.096633
H16   H     H_    0.138082 0.415908 0.163714 0.088869
H17   H     H_    0.861917 0.584092 0.836287 0.088872
H18   H     H_    0.404072 0.078649 0.367751 0.091382
H19   H     H_    0.595904 0.921343 0.632263 0.091407
H20   H     H_    0.654666 0.046277 0.616361 0.098643
H21   H     H_    0.345335 0.953720 0.383640 0.098629
H22   H     H_    0.845332 0.546277 0.383638 0.098642
H23   H     H_    0.618609 0.251945 0.976903 0.078777
H24   H     H_    0.154679 0.453738 0.616367 0.098638
H25   H     H_    0.095907 0.578655 0.632262 0.091404
H26   H     H_    0.904089 0.421346 0.367741 0.091406
H27   H     H_    0.555963 0.737089 0.579433 0.112332
H28   H     H_    0.444186 0.263398 0.420037 0.112378
H29   H     H_    0.353179 0.786060 0.444607 0.111706
H30   H     H_    0.646839 0.213880 0.555331 0.111703
H31   H     H_    0.146652 0.285675 0.555880 0.111733
H32   H     H_    0.853137 0.713847 0.444712 0.111702
H33   H     H_    0.944041 0.237061 0.420530 0.112334
H34   H     H_    0.381391 0.748055 0.023097 0.078775
H35   H     H_    0.055939 0.762999 0.579527 0.112339
H36   H     H_    0.231319 0.145263 0.529448 0.109315
H37   H     H_    0.769010 0.854555 0.470872 0.109365
H38   H     H_    0.857511 0.093791 0.451611 0.110732
H39   H     H_    0.142536 0.906231 0.548415 0.110734
H40   H     H_    0.642460 0.593801 0.548366 0.110737
H41   H     H_    0.357153 0.406385 0.451362 0.110702
H42   H     H_    0.268952 0.645406 0.470815 0.109344
H43   H     H_    0.730999 0.354570 0.529154 0.109362
H44   H     H_    0.298767 0.214054 0.629763 0.105405
H45   H     H_    0.881392 0.751946 0.023096 0.078775
H46   H     H_    0.701799 0.786310 0.369983 0.105351
H47   H     H_    0.791231 0.162713 0.349232 0.102422
H48   H     H_    0.208838 0.837247 0.650731 0.102422
H49   H     H_    0.708718 0.662688 0.650789 0.102424
H50   H     H_    0.290635 0.336966 0.349546 0.102425
H51   H     H_    0.201701 0.713751 0.370027 0.105360
H52   H     H_    0.798232 0.286291 0.630003 0.105352
H53   H     H_    0.309803 0.665966 0.997962 0.122522
H54   H     H_    0.690196 0.334034 0.002038 0.122527
H55   H     H_    0.788337 0.723116 0.859071 0.123718
H56   H     H_    0.118608 0.248054 0.976902 0.078780
H57   H     H_    0.211663 0.276884 0.140927 0.123709
H58   H     H_    0.711666 0.223116 0.140924 0.123725
H59   H     H_    0.288333 0.776884 0.859076 0.123715
H60   H     H_    0.190200 0.165968 0.002031 0.122524
H61   H     H_    0.809800 0.834032 0.997968 0.122523
H62   H     H_    0.170869 0.724619 0.901853 0.086505
H63   H     H_    0.829130 0.275381 0.098148 0.086508
H64   H     H_    0.331248 0.775580 0.199342 0.091909
N1    N     N_R   0.408680 0.130810 0.995780 -0.047017
N2    N     N_R   0.578590 0.132790 0.846380 -0.041212
N3    N     N_R   0.578590 0.867210 0.846380 -0.035760
N4    N     N_R   0.421410 0.132790 0.153620 -0.035752
N5    N     N_R   0.921410 0.367210 0.153620 -0.035757
N6    N     N_R   0.078590 0.632790 0.846380 -0.035756
N7    N     N_R   0.078590 0.367210 0.846380 -0.041217
N8    N     N_R   0.921410 0.632790 0.153620 -0.041212
N9    N     N_R   0.403840 0.921910 0.935760 -0.037232
N10   N     N_R   0.596160 0.078090 0.064240 -0.037236
N11   N     N_R   0.596160 0.921910 0.064240 -0.042453
N12   N     N_R   0.591320 0.869190 0.004220 -0.047018
N13   N     N_R   0.403840 0.078090 0.935760 -0.042453
N14   N     N_R   0.903840 0.421910 0.935760 -0.042454
N15   N     N_R   0.096160 0.578090 0.064240 -0.042452
N16   N     N_R   0.096160 0.421910 0.064240 -0.037231
N17   N     N_R   0.903840 0.578090 0.935760 -0.037233
N18   N     N_R   0.426250 0.076100 0.213650 -0.033056
N19   N     N_R   0.573750 0.923900 0.786350 -0.033059
N20   N     N_R   0.573750 0.076100 0.786350 -0.039736
N21   N     N_R   0.426250 0.923900 0.213650 -0.039738
N22   N     N_R   0.926250 0.576100 0.213650 -0.039736
N23   N     N_R   0.591320 0.130810 0.004220 -0.041656
N24   N     N_R   0.073750 0.423900 0.786350 -0.039747
N25   N     N_R   0.073750 0.576100 0.786350 -0.033057
N26   N     N_R   0.926250 0.423900 0.213650 -0.033059
N27   N     N_R   0.408680 0.869190 0.995780 -0.041653
N28   N     N_R   0.908680 0.630810 0.995780 -0.041654
N29   N     N_R   0.091320 0.369190 0.004220 -0.041649
N30   N     N_R   0.091320 0.630810 0.004220 -0.047017
N31   N     N_R   0.908680 0.369190 0.995780 -0.047019
N32   N     N_R   0.421410 0.867210 0.153620 -0.041212
Ni1   Ni    Ni4+2 0.500000 0.131570 0.000000 0.205910
Ni2   Ni    Ni4+2 0.500000 0.868430 0.000000 0.205906
Ni3   Ni    Ni4+2 0.000000 0.631570 0.000000 0.205909
Ni4   Ni    Ni4+2 0.000000 0.368430 0.000000 0.205903
Ni5   Ni    Ni4+2 0.488900 0.000000 0.862310 0.206702
Ni6   Ni    Ni4+2 0.511100 0.000000 0.137690 0.206705
Ni7   Ni    Ni4+2 0.988900 0.500000 0.862310 0.206702
Ni8   Ni    Ni4+2 0.011100 0.500000 0.137690 0.206705

loop_
_geom_bond_atom_site_label_1
_geom_bond_atom_site_label_2
_ccdc_geom_bond_type
C27   C48   A    
C7    H51   S    
C28   C47   A    
N25   Ni7   S    
C20   N3    A    
C36   N18   A    
C8    C83   S    
C64   C77   S    
C29   N11   A    
C62   C81   S    
N11   N12   A    
C9    C51   S    
N5    Ni4   S    
C13   H57   S    
C74   C83   S    
C39   N21   A    
C10   C52   S    
N6    Ni3   S    
C66   C85   S    
C79   C87   S    
C28   N10   A    
C6    C75   S    
C32   C51   A    
N27   Ni2   S    
C3    C64   S    
N15   Ni8   S    
C2    H46   S    
N1    Ni1   S    
C65   C79   S    
C65   H39   S    
C67   N30   A    
C26   C61   A    
C37   H19   S    
N12   Ni2   S    
C43   H26   S    
C4    C65   S    
C24   N6    A    
C75   C84   S    
N15   N30   A    
C12   N12   A    
C56   N29   A    
C42   N25   A    
C33   H16   S    
N21   Ni6   S    
C8    C70   S    
N19   Ni5   S    
C2    C85   S    
N14   Ni7   S    
C10   H54   S    
C3    C74   S    
C70   C74   S    
C71   C80   S    
C1    C44   A    
C45   N28   A    
C11   C17   D    
N21   N32   A    
N32   Ni2   S    
C69   H42   S    
C41   H24   S    
C35   C49   A    
N13   Ni5   S    
C69   C73   S    
C25   C60   A    
C18   N32   A    
N9    N27   A    
C16   C44   S    
N17   N28   A    
C72   C81   S    
C43   C58   A    
C68   C72   S    
N2    N20   A    
C6    C68   S    
C34   H34   S    
C6    C81   S    
C3    C86   S    
C30   C44   A    
C34   N27   A    
C15   C48   S    
C20   C55   A    
C52   C78   A    
C58   C86   S    
C62   H36   S    
C54   C83   S    
C72   C88   S    
N29   Ni4   S    
C78   H63   S    
C63   C80   S    
C26   H8    S    
C74   H30   S    
N2    Ni1   S    
C18   C53   A    
C23   C47   A    
C29   H11   S    
C36   H18   S    
C68   C84   S    
C31   H14   S    
C73   H29   S    
C17   C46   S    
C30   N13   A    
C12   C46   A    
C36   C57   A    
C10   C14   D    
C4    C87   S    
C9    H53   S    
C25   N7    A    
N24   Ni7   S    
C40   H22   S    
N10   N23   A    
C33   C50   A    
N4    Ni1   S    
C62   C88   S    
C50   C56   A    
C40   C61   A    
C53   C82   S    
C15   H59   S    
C56   H56   S    
N7    Ni4   S    
C6    H50   S    
C1    N1    A    
C64   C83   S    
C21   C57   A    
C11   C49   S    
N28   Ni3   S    
C24   H6    S    
N23   Ni1   S    
N26   Ni8   S    
C42   H25   S    
C66   C71   S    
C38   C54   A    
C31   N14   A    
C45   C49   A    
C71   H27   S    
C76   H32   S    
C32   H15   S    
C75   H31   S    
C51   C67   A    
C5    C80   S    
C26   N8    A    
C4    C73   S    
C63   H37   S    
C61   C85   S    
C43   N26   A    
C19   C54   A    
N9    Ni5   S    
C41   N24   A    
C77   C86   S    
C25   H7    S    
C64   H38   S    
N7    N24   A    
C8    C77   S    
C35   N17   A    
C22   H5    S    
C57   C81   S    
C62   C75   S    
C13   C16   D    
C33   N16   A    
C34   C48   A    
C88   H44   S    
C2    C71   S    
C70   C86   S    
C67   H62   S    
C73   C82   S    
N10   Ni6   S    
C2    C63   S    
C7    C79   S    
C22   C58   A    
C28   H10   S    
C72   H28   S    
C27   H9    S    
C1    H1    S    
N1    N13   A    
N8    N22   A    
N6    N25   A    
C17   H61   S    
N14   N31   A    
C84   C88   S    
C41   C60   A    
C5    C66   S    
N3    Ni2   S    
C69   C87   S    
C42   C59   A    
C37   N19   A    
C38   N20   A    
C14   C47   S    
C22   N5    A    
N20   Ni5   S    
C23   H23   S    
N18   Ni6   S    
C45   H45   S    
N16   Ni8   S    
C31   C52   A    
C4    H48   S    
C29   C46   A    
C16   H60   S    
N5    N26   A    
C5    C76   S    
C7    C69   S    
C9    C15   D    
C5    H49   S    
C19   H2    S    
N31   Ni4   S    
C27   N9    A    
C40   N22   A    
C55   C80   S    
C60   C84   S    
C65   C82   S    
C39   C53   A    
C79   H35   S    
C24   C59   A    
C30   H13   S    
N4    N18   A    
C70   H43   S    
C21   N4    A    
C66   H40   S    
N11   Ni6   S    
C3    H47   S    
N30   Ni3   S    
C38   H20   S    
C68   H41   S    
C59   C87   S    
C12   H12   S    
C77   H33   S    
C8    H52   S    
C13   C50   S    
C37   C55   A    
N3    N19   A    
C20   H3    S    
C39   H21   S    
C7    C82   S    
C23   N23   A    
N16   N29   A    
C63   C76   S    
C32   N15   A    
C19   N2    A    
N17   Ni7   S    
C14   H58   S    
C35   H17   S    
N8    Ni3   S    
C11   H55   S    
C76   C85   S    
C78   N31   A    
N22   Ni8   S    
C18   H64   S    
C21   H4    S    
