data_mof_unit_pretest_1865.cif
_audit_creation_date              2012-12-10T19:11:09-0500
_audit_creation_method            fapswitch 2.2
_symmetry_space_group_name_H-M    P1
_symmetry_Int_Tables_number       1
_space_group_crystal_system       triclinic
_cell_length_a                    24.434369
_cell_length_b                    24.43447
_cell_length_c                    43.047214
_cell_angle_alpha                 89.999967
_cell_angle_beta                  90.000022
_cell_angle_gamma                 90.004842
_cell_volume                      25700.9454161

loop_
_atom_site_label
_atom_site_type_symbol
_atom_type_description
_atom_site_fract_x
_atom_site_fract_y
_atom_site_fract_z
_atom_type_partial_charge
C1    C     C_R   0.771317 0.271276 0.249987 0.114876
C2    C     C_R   0.228704 0.728705 0.750000 0.114659
C3    C     C_R   0.728654 0.771306 0.250012 0.114129
C4    C     C_R   0.271325 0.228675 0.750000 0.113911
C5    C     C_R   0.228653 0.728608 0.250012 0.114907
C6    C     C_R   0.771295 0.271295 0.750000 0.114656
C7    C     C_R   0.271313 0.228643 0.249988 0.113667
C8    C     C_R   0.728675 0.771325 0.750000 0.113909
C9    C     C_R   0.228664 0.271336 0.750000 0.113904
C10   C     C_R   0.771313 0.728643 0.250012 0.113674
C11   C     C_R   0.271370 0.771371 0.750000 0.115086
C12   C     C_R   0.728653 0.228608 0.249988 0.114901
C13   C     C_R   0.771336 0.728664 0.750000 0.113905
C14   C     C_R   0.228654 0.271306 0.249988 0.114144
C15   C     C_R   0.728630 0.228629 0.750000 0.115087
C16   C     C_R   0.271318 0.771276 0.250013 0.114888
C17   C     C_R   0.852471 0.352453 0.249994 0.002529
C18   C     C_R   0.147539 0.647539 0.750000 0.001817
C19   C     C_R   0.647513 0.852470 0.250005 0.002672
C20   C     C_R   0.352478 0.147522 0.750000 0.002019
C21   C     C_R   0.147498 0.647480 0.250005 0.002801
C22   C     C_R   0.852461 0.352461 0.750000 0.001813
C23   C     C_R   0.352476 0.147507 0.249995 0.003104
C24   C     C_R   0.647522 0.852478 0.750000 0.002018
C25   C     C_R   0.147515 0.352485 0.750000 0.003316
C26   C     C_R   0.852476 0.647507 0.250005 0.003130
C27   C     C_R   0.352512 0.852512 0.750000 0.002937
C28   C     C_R   0.647498 0.147480 0.249995 0.002814
C29   C     C_R   0.852485 0.647515 0.750000 0.003319
C30   C     C_R   0.147513 0.352470 0.249995 0.002678
C31   C     C_R   0.647488 0.147488 0.750000 0.002943
C32   C     C_R   0.352471 0.852453 0.250006 0.002550
C33   C     C_R   0.500055 0.000112 0.468482 0.318149
C34   C     C_R   0.500048 0.000093 0.531566 0.318236
C35   C     C_R   0.000045 0.500074 0.468434 0.318182
C36   C     C_R   0.000044 0.500057 0.531503 0.318109
C37   C     C_R   0.000044 0.500102 0.968495 0.318107
C38   C     C_R   0.000052 0.500121 0.031565 0.318183
C39   C     C_R   0.500039 0.000060 0.968433 0.318236
C40   C     C_R   0.500041 0.000076 0.031518 0.318147
C41   C     C_R   0.958727 0.471938 0.114832 0.158029
C42   C     C_R   0.041988 0.527173 0.885203 0.158411
C43   C     C_R   0.471512 0.959009 0.114820 0.157593
C44   C     C_R   0.529411 0.040430 0.885111 0.158796
C45   C     C_R   0.041259 0.528308 0.114862 0.159123
C46   C     C_R   0.958041 0.472927 0.885224 0.158375
C47   C     C_R   0.528604 0.041029 0.114844 0.159339
C48   C     C_R   0.470646 0.959602 0.885128 0.158756
C49   C     C_R   0.459604 0.970660 0.614870 0.158756
C50   C     C_R   0.540996 0.028676 0.385153 0.159016
C51   C     C_R   0.972954 0.458012 0.614776 0.158394
C52   C     C_R   0.028242 0.541285 0.385140 0.159440
C53   C     C_R   0.540426 0.029433 0.614891 0.158793
C54   C     C_R   0.458992 0.971561 0.385183 0.157932
C55   C     C_R   0.027108 0.542019 0.614793 0.158433
C56   C     C_R   0.971877 0.458751 0.385164 0.157685
C57   C     C_R   0.959614 0.471604 0.082323 -0.234045
C58   C     C_R   0.041128 0.527575 0.917715 -0.234561
C59   C     C_R   0.471152 0.959911 0.082303 -0.233622
C60   C     C_R   0.529742 0.039590 0.917630 -0.233061
C61   C     C_R   0.040431 0.528657 0.082348 -0.233670
C62   C     C_R   0.958924 0.472571 0.917735 -0.234527
C63   C     C_R   0.528952 0.040191 0.082323 -0.233658
C64   C     C_R   0.470329 0.960477 0.917646 -0.233039
C65   C     C_R   0.460475 0.970357 0.582352 -0.233030
C66   C     C_R   0.540157 0.029035 0.417674 -0.233446
C67   C     C_R   0.972582 0.458900 0.582265 -0.234552
C68   C     C_R   0.028579 0.540460 0.417654 -0.233882
C69   C     C_R   0.539582 0.029778 0.582372 -0.233064
C70   C     C_R   0.459892 0.971214 0.417699 -0.233815
C71   C     C_R   0.027496 0.541164 0.582281 -0.234577
C72   C     C_R   0.971530 0.459640 0.417674 -0.233845
C73   C     C_R   0.000042 0.500122 0.065861 0.020821
C74   C     C_R   0.000033 0.500084 0.934199 0.021238
C75   C     C_R   0.500044 0.000068 0.065829 0.020721
C76   C     C_R   0.500037 0.000043 0.934123 0.020373
C77   C     C_R   0.500036 0.000077 0.565877 0.020372
C78   C     C_R   0.500045 0.000116 0.434171 0.020719
C79   C     C_R   0.000042 0.500041 0.565799 0.021249
C80   C     C_R   0.000046 0.500066 0.434138 0.020822
C81   C     C_R   0.000013 0.500001 0.334211 0.833947
C82   C     C_R   0.000005 0.500001 0.665775 0.832013
C83   C     C_R   0.499999 0.000023 0.334215 0.834479
C84   C     C_R   0.500001 0.000006 0.665796 0.836071
C85   C     C_R   0.500005 0.000001 0.834204 0.836063
C86   C     C_R   0.500013 0.000001 0.165785 0.834378
C87   C     C_R   0.000001 0.500006 0.834225 0.832088
C88   C     C_R   0.999999 0.500024 0.165789 0.834030
C89   C     C_R   0.894836 0.605161 0.250001 0.782035
C90   C     C_R   0.105162 0.394838 0.750000 0.781320
C91   C     C_R   0.394832 0.894829 0.250001 0.786815
C92   C     C_R   0.605152 0.105152 0.750000 0.786087
C93   C     C_R   0.105163 0.394834 0.249999 0.782104
C94   C     C_R   0.894838 0.605162 0.750000 0.781316
C95   C     C_R   0.605154 0.105151 0.249999 0.786511
C96   C     C_R   0.394848 0.894848 0.750000 0.786086
C97   C     C_R   0.105170 0.605170 0.750000 0.787116
C98   C     C_R   0.894832 0.394829 0.249999 0.786718
C99   C     C_R   0.605165 0.894835 0.750000 0.782843
C100  C     C_R   0.394836 0.105161 0.249999 0.782091
C101  C     C_R   0.894830 0.394830 0.750000 0.787116
C102  C     C_R   0.105154 0.605151 0.250001 0.786403
C103  C     C_R   0.394835 0.105165 0.750000 0.782840
C104  C     C_R   0.605163 0.894834 0.250001 0.782158
C105  C     C_R   0.999998 0.500086 0.131453 -0.089808
C106  C     C_R   0.000009 0.500036 0.868586 -0.091127
C107  C     C_R   0.500044 0.000012 0.131440 -0.089512
C108  C     C_R   0.500023 0.000009 0.868528 -0.088328
C109  C     C_R   0.500009 0.000034 0.631472 -0.088326
C110  C     C_R   0.499999 0.000083 0.368560 -0.089524
C111  C     C_R   0.000024 0.500009 0.631412 -0.091167
C112  C     C_R   0.000044 0.500011 0.368547 -0.089787
C113  C     C_R   0.822985 0.260643 0.262951 -0.182206
C114  C     C_R   0.177037 0.739343 0.737038 -0.182127
C115  C     C_R   0.739692 0.823363 0.262353 -0.180611
C116  C     C_R   0.260292 0.176618 0.737657 -0.180726
C117  C     C_R   0.193587 0.722641 0.275649 -0.182163
C118  C     C_R   0.822964 0.260656 0.737039 -0.182123
C119  C     C_R   0.276532 0.192840 0.275343 -0.180647
C120  C     C_R   0.739707 0.823382 0.737657 -0.180724
C121  C     C_R   0.192854 0.276551 0.724647 -0.180735
C122  C     C_R   0.807124 0.723427 0.275363 -0.180615
C123  C     C_R   0.277344 0.806426 0.724359 -0.182269
C124  C     C_R   0.722682 0.193552 0.275628 -0.182161
C125  C     C_R   0.807146 0.723449 0.724648 -0.180732
C126  C     C_R   0.176598 0.260280 0.262333 -0.180831
C127  C     C_R   0.722656 0.193574 0.724360 -0.182272
C128  C     C_R   0.260675 0.822943 0.262975 -0.182003
C129  C     C_R   0.306425 0.777345 0.775641 -0.182272
C130  C     C_R   0.693591 0.222638 0.224350 -0.182161
C131  C     C_R   0.223450 0.307146 0.775352 -0.180731
C132  C     C_R   0.776530 0.692838 0.224658 -0.180645
C133  C     C_R   0.693574 0.222656 0.775641 -0.182270
C134  C     C_R   0.322985 0.760643 0.237049 -0.182202
C135  C     C_R   0.776551 0.692854 0.775352 -0.180735
C136  C     C_R   0.239691 0.323362 0.237645 -0.180616
C137  C     C_R   0.676596 0.760278 0.237670 -0.180823
C138  C     C_R   0.323382 0.239707 0.762342 -0.180726
C139  C     C_R   0.760674 0.322943 0.237026 -0.182006
C140  C     C_R   0.239343 0.677038 0.762963 -0.182124
C141  C     C_R   0.307122 0.223425 0.224636 -0.180614
C142  C     C_R   0.676618 0.760293 0.762342 -0.180724
C143  C     C_R   0.222686 0.693549 0.224373 -0.182166
C144  C     C_R   0.760656 0.322963 0.762961 -0.182123
C145  C     C_R   0.863104 0.301058 0.263161 -0.191801
C146  C     C_R   0.136912 0.698934 0.736831 -0.190522
C147  C     C_R   0.699296 0.863495 0.262561 -0.190302
C148  C     C_R   0.300695 0.136492 0.737446 -0.190208
C149  C     C_R   0.153039 0.682656 0.275538 -0.189467
C150  C     C_R   0.863089 0.301065 0.736832 -0.190509
C151  C     C_R   0.316539 0.152318 0.275236 -0.191164
C152  C     C_R   0.699305 0.863508 0.737446 -0.190201
C153  C     C_R   0.152325 0.316550 0.724758 -0.191261
C154  C     C_R   0.847659 0.683434 0.275249 -0.189700
C155  C     C_R   0.317337 0.846966 0.724467 -0.190755
C156  C     C_R   0.682683 0.153018 0.275525 -0.190817
C157  C     C_R   0.847675 0.683450 0.724758 -0.191262
C158  C     C_R   0.136477 0.300688 0.262548 -0.191420
C159  C     C_R   0.682663 0.153033 0.724467 -0.190759
C160  C     C_R   0.301078 0.863073 0.263179 -0.190804
C161  C     C_R   0.346966 0.817338 0.775534 -0.190756
C162  C     C_R   0.653043 0.182653 0.224461 -0.189427
C163  C     C_R   0.183450 0.347675 0.775242 -0.191255
C164  C     C_R   0.816536 0.652315 0.224765 -0.191189
C165  C     C_R   0.653033 0.182663 0.775533 -0.190759
C166  C     C_R   0.363104 0.801058 0.236838 -0.191864
C167  C     C_R   0.816550 0.652325 0.775242 -0.191263
C168  C     C_R   0.199294 0.363494 0.237436 -0.190344
C169  C     C_R   0.636475 0.800686 0.237455 -0.191382
C170  C     C_R   0.363508 0.199305 0.762554 -0.190205
C171  C     C_R   0.801077 0.363073 0.236821 -0.190739
C172  C     C_R   0.198934 0.636912 0.763170 -0.190533
C173  C     C_R   0.347657 0.183432 0.224750 -0.189677
C174  C     C_R   0.636492 0.800695 0.762554 -0.190203
C175  C     C_R   0.182687 0.653014 0.224477 -0.190859
C176  C     C_R   0.801065 0.363088 0.763169 -0.190522
H1    H     H_    0.928168 0.449077 0.070026 0.159378
H2    H     H_    0.073152 0.549297 0.929997 0.159308
H3    H     H_    0.448343 0.928665 0.070010 0.159353
H4    H     H_    0.553221 0.070352 0.929908 0.159303
H5    H     H_    0.071864 0.551231 0.070069 0.159272
H6    H     H_    0.926907 0.450867 0.930033 0.159324
H7    H     H_    0.551781 0.071438 0.070044 0.159273
H8    H     H_    0.446855 0.929725 0.929937 0.159316
H9    H     H_    0.429724 0.946885 0.570059 0.159318
H10   H     H_    0.571391 0.051886 0.429952 0.159262
H11   H     H_    0.950909 0.426860 0.569969 0.159321
H12   H     H_    0.051139 0.571900 0.429935 0.159286
H13   H     H_    0.570341 0.053265 0.570096 0.159302
H14   H     H_    0.428646 0.948408 0.429994 0.159364
H15   H     H_    0.049176 0.573214 0.569997 0.159307
H16   H     H_    0.948991 0.428201 0.429969 0.159366
H17   H     H_    0.832671 0.220880 0.272591 0.129034
H18   H     H_    0.167355 0.779107 0.727397 0.129440
H19   H     H_    0.779748 0.833333 0.271499 0.130148
H20   H     H_    0.220237 0.166645 0.728511 0.129862
H21   H     H_    0.197899 0.748407 0.295965 0.129001
H22   H     H_    0.832646 0.220892 0.727399 0.129442
H23   H     H_    0.250161 0.196553 0.295445 0.129960
H24   H     H_    0.779763 0.833355 0.728511 0.129863
H25   H     H_    0.196564 0.250180 0.704545 0.129986
H26   H     H_    0.803411 0.749795 0.295467 0.130090
H27   H     H_    0.251581 0.802109 0.704043 0.128973
H28   H     H_    0.748451 0.197865 0.295942 0.128954
H29   H     H_    0.803436 0.749821 0.704545 0.129990
H30   H     H_    0.166622 0.220226 0.271480 0.129421
H31   H     H_    0.748420 0.197890 0.704044 0.128973
H32   H     H_    0.220911 0.832621 0.272617 0.129695
H33   H     H_    0.302108 0.751582 0.795957 0.128972
H34   H     H_    0.697905 0.248401 0.204033 0.129004
H35   H     H_    0.249821 0.303436 0.795454 0.129992
H36   H     H_    0.750156 0.696548 0.204556 0.129958
H37   H     H_    0.697890 0.248419 0.795957 0.128972
H38   H     H_    0.332672 0.720880 0.227409 0.129030
H39   H     H_    0.750179 0.696565 0.795454 0.129986
H40   H     H_    0.279745 0.333333 0.228496 0.130144
H41   H     H_    0.666619 0.720223 0.228525 0.129423
H42   H     H_    0.333356 0.279763 0.771488 0.129863
H43   H     H_    0.720910 0.332621 0.227384 0.129698
H44   H     H_    0.279107 0.667356 0.772603 0.129441
H45   H     H_    0.303407 0.249791 0.204531 0.130092
H46   H     H_    0.666645 0.720238 0.771489 0.129863
H47   H     H_    0.248457 0.697859 0.204060 0.128953
H48   H     H_    0.720892 0.332645 0.772602 0.129441
H49   H     H_    0.902660 0.291838 0.273245 0.153257
H50   H     H_    0.097356 0.708159 0.726748 0.154947
H51   H     H_    0.708822 0.903367 0.272140 0.155263
H52   H     H_    0.291173 0.096620 0.727865 0.155282
H53   H     H_    0.126571 0.678730 0.295606 0.153763
H54   H     H_    0.902645 0.291840 0.726750 0.154952
H55   H     H_    0.319852 0.125274 0.295087 0.153351
H56   H     H_    0.708827 0.903380 0.727865 0.155283
H57   H     H_    0.125275 0.319859 0.704909 0.153200
H58   H     H_    0.874710 0.680125 0.295097 0.153701
H59   H     H_    0.321271 0.873424 0.704395 0.153182
H60   H     H_    0.678751 0.126559 0.295596 0.153427
H61   H     H_    0.874725 0.680141 0.704910 0.153201
H62   H     H_    0.096605 0.291171 0.272131 0.153457
H63   H     H_    0.678730 0.126575 0.704395 0.153168
H64   H     H_    0.291849 0.902628 0.273262 0.154896
H65   H     H_    0.373424 0.821272 0.795605 0.153184
H66   H     H_    0.626578 0.178723 0.204391 0.153660
H67   H     H_    0.180142 0.374725 0.795090 0.153209
H68   H     H_    0.819847 0.625270 0.204914 0.153312
H69   H     H_    0.626574 0.178729 0.795605 0.153170
H70   H     H_    0.402660 0.791839 0.226754 0.153249
H71   H     H_    0.819859 0.625275 0.795090 0.153202
H72   H     H_    0.208819 0.403364 0.227855 0.155257
H73   H     H_    0.596602 0.791168 0.227874 0.153461
H74   H     H_    0.403381 0.208826 0.772135 0.155282
H75   H     H_    0.791848 0.402628 0.226739 0.154905
H76   H     H_    0.208159 0.597357 0.773252 0.154946
H77   H     H_    0.374706 0.180121 0.204901 0.153738
H78   H     H_    0.596619 0.791174 0.772135 0.155284
H79   H     H_    0.178758 0.626552 0.204406 0.153532
H80   H     H_    0.791840 0.402644 0.773250 0.154950
N1    N     N_R   0.039599 0.526934 0.015477 -0.184760
N2    N     N_R   0.960497 0.473294 0.984585 -0.184803
N3    N     N_R   0.528096 0.038751 0.015424 -0.184718
N4    N     N_R   0.471981 0.961391 0.984527 -0.184650
N5    N     N_R   0.960504 0.473300 0.015483 -0.184760
N6    N     N_R   0.039598 0.526920 0.984577 -0.184795
N7    N     N_R   0.471985 0.961397 0.015429 -0.184672
N8    N     N_R   0.528098 0.038741 0.984521 -0.184668
N9    N     N_R   0.538717 0.028169 0.515480 -0.184655
N10   N     N_R   0.461387 0.972040 0.484570 -0.184689
N11   N     N_R   0.026833 0.539630 0.515421 -0.184811
N12   N     N_R   0.973252 0.460507 0.484516 -0.184735
N13   N     N_R   0.461385 0.972027 0.515472 -0.184662
N14   N     N_R   0.538723 0.028176 0.484576 -0.184699
N15   N     N_R   0.973256 0.460496 0.515415 -0.184791
N16   N     N_R   0.026838 0.539635 0.484521 -0.184788
O1    O     O_3   1.000000 0.500000 0.250000 -0.476822
O2    O     O_3   0.000000 0.500000 0.750000 -0.476615
O3    O     O_3   0.500000 0.000000 0.250000 -0.476783
O4    O     O_3   0.500000 0.000000 0.750000 -0.476984
O5    O     O_R   1.000000 0.454510 0.319320 -0.624008
O6    O     O_R   1.000000 0.545490 0.680680 -0.624653
O7    O     O_R   0.545490 0.000000 0.319320 -0.625211
O8    O     O_R   0.454510 1.000000 0.680680 -0.625966
O9    O     O_R   1.000000 0.545490 0.319320 -0.626626
O10   O     O_R   1.000000 0.454510 0.680680 -0.624649
O11   O     O_R   0.454510 0.000000 0.319320 -0.625798
O12   O     O_R   0.545490 1.000000 0.680680 -0.625963
O13   O     O_R   0.500000 0.954510 0.819320 -0.625961
O14   O     O_R   0.500000 0.045490 0.180680 -0.626839
O15   O     O_R   0.045490 0.500000 0.819320 -0.624682
O16   O     O_R   0.954510 0.500000 0.180680 -0.625572
O17   O     O_R   0.500000 0.045490 0.819320 -0.625962
O18   O     O_R   0.500000 0.954510 0.180680 -0.624212
O19   O     O_R   0.954510 0.500000 0.819320 -0.624680
O20   O     O_R   0.045490 0.500000 0.180680 -0.625005
O21   O     O_R   0.936000 0.609460 0.268180 -0.647362
O22   O     O_R   0.064000 0.390540 0.731820 -0.649105
O23   O     O_R   0.390540 0.936000 0.268180 -0.642231
O24   O     O_R   0.609460 0.064000 0.731820 -0.643066
O25   O     O_R   0.064000 0.390540 0.268180 -0.649429
O26   O     O_R   0.936000 0.609460 0.731820 -0.649103
O27   O     O_R   0.609460 0.064000 0.268180 -0.643345
O28   O     O_R   0.390540 0.936000 0.731820 -0.643069
O29   O     O_R   0.064000 0.609460 0.731820 -0.642319
O30   O     O_R   0.936000 0.390540 0.268180 -0.643867
O31   O     O_R   0.609460 0.936000 0.731820 -0.647913
O32   O     O_R   0.390540 0.064000 0.268180 -0.649452
O33   O     O_R   0.936000 0.390540 0.731820 -0.642319
O34   O     O_R   0.064000 0.609460 0.268180 -0.641286
O35   O     O_R   0.390540 0.064000 0.731820 -0.647920
O36   O     O_R   0.609460 0.936000 0.268180 -0.647714
O37   O     O_R   0.436000 0.109460 0.768180 -0.647915
O38   O     O_R   0.564000 0.890540 0.231820 -0.649428
O39   O     O_R   0.890540 0.436000 0.768180 -0.642321
O40   O     O_R   0.109460 0.564000 0.231820 -0.643336
O41   O     O_R   0.564000 0.890540 0.768180 -0.647917
O42   O     O_R   0.436000 0.109460 0.231820 -0.647366
O43   O     O_R   0.109460 0.564000 0.768180 -0.642322
O44   O     O_R   0.890540 0.436000 0.231820 -0.642206
O45   O     O_R   0.564000 0.109460 0.231820 -0.641294
O46   O     O_R   0.436000 0.890540 0.768180 -0.643066
O47   O     O_R   0.109460 0.436000 0.231820 -0.647715
O48   O     O_R   0.890540 0.564000 0.768180 -0.649109
O49   O     O_R   0.436000 0.890540 0.231820 -0.643891
O50   O     O_R   0.564000 0.109460 0.768180 -0.643066
O51   O     O_R   0.890540 0.564000 0.231820 -0.649448
O52   O     O_R   0.109460 0.436000 0.768180 -0.649103
Zn1   Zn    Zn3+2 0.935020 0.500000 0.224040 0.967928
Zn2   Zn    Zn3+2 0.064980 0.500000 0.775960 0.967974
Zn3   Zn    Zn3+2 0.500000 0.935020 0.224040 0.967808
Zn4   Zn    Zn3+2 0.500000 0.064980 0.775960 0.968771
Zn5   Zn    Zn3+2 0.064980 0.500000 0.224040 0.968659
Zn6   Zn    Zn3+2 0.935020 0.500000 0.775960 0.967976
Zn7   Zn    Zn3+2 0.500000 0.064980 0.224040 0.969136
Zn8   Zn    Zn3+2 0.500000 0.935020 0.775960 0.968778
Zn9   Zn    Zn3+2 0.435020 0.000000 0.724040 0.968774
Zn10  Zn    Zn3+2 0.564980 1.000000 0.275960 0.968740
Zn11  Zn    Zn3+2 0.000000 0.435020 0.724040 0.967982
Zn12  Zn    Zn3+2 1.000000 0.564980 0.275960 0.969067
Zn13  Zn    Zn3+2 0.564980 0.000000 0.724040 0.968776
Zn14  Zn    Zn3+2 0.435020 1.000000 0.275960 0.967977
Zn15  Zn    Zn3+2 0.000000 0.564980 0.724040 0.967971
Zn16  Zn    Zn3+2 0.000000 0.435020 0.275960 0.967747
N17   N     N_2   0.917488 0.441764 0.130667 -0.293050
H81   H     H_    0.913561 0.402245 0.122529 0.216859
C177  C     C_3   0.865140 0.469307 0.132264 -0.721779
H82   H     H_    0.846997 0.473083 0.108682 0.216139
H83   H     H_    0.869790 0.510732 0.142581 0.256242
H84   H     H_    0.836816 0.445282 0.147128 0.231139
N18   N     N_2   0.083996 0.556272 0.869371 -0.291960
H85   H     H_    0.088965 0.595668 0.877518 0.216658
C178  C     C_3   0.135601 0.527361 0.867759 -0.721020
H86   H     H_    0.153639 0.523067 0.891338 0.215892
H87   H     H_    0.164548 0.550655 0.852907 0.230949
H88   H     H_    0.129858 0.486091 0.857418 0.255696
N19   N     N_2   0.440967 0.918061 0.130668 -0.294126
H89   H     H_    0.401399 0.914520 0.122549 0.216754
C179  C     C_3   0.468000 0.865447 0.132246 -0.720227
H90   H     H_    0.471556 0.847273 0.108661 0.216170
H91   H     H_    0.443728 0.837357 0.147124 0.230550
H92   H     H_    0.509487 0.869693 0.142539 0.258237
N20   N     N_2   0.560912 0.080590 0.869214 -0.296828
H93   H     H_    0.600575 0.083168 0.877301 0.215859
C180  C     C_3   0.535195 0.133855 0.867610 -0.725197
H94   H     H_    0.532154 0.152176 0.891181 0.217673
H95   H     H_    0.493590 0.130617 0.857354 0.260141
H96   H     H_    0.560125 0.161288 0.852687 0.225986
N21   N     N_2   0.082335 0.558648 0.130734 -0.295674
H97   H     H_    0.086068 0.598207 0.122630 0.215462
C181  C     C_3   0.134824 0.531382 0.132343 -0.723953
H98   H     H_    0.153030 0.527756 0.108769 0.217310
H99   H     H_    0.130372 0.489912 0.142628 0.259597
H100  H     H_    0.162989 0.555528 0.147242 0.226191
N22   N     N_2   0.916018 0.443810 0.869415 -0.291966
H101  H     H_    0.911043 0.404430 0.877584 0.216686
C182  C     C_3   0.864420 0.472731 0.867794 -0.721105
H102  H     H_    0.846395 0.477072 0.891374 0.215896
H103  H     H_    0.835460 0.449418 0.852960 0.230961
H104  H     H_    0.870169 0.513982 0.857428 0.255696
N23   N     N_2   0.559262 0.081862 0.130720 -0.295540
H105  H     H_    0.598842 0.085307 0.122607 0.215732
C183  C     C_3   0.532388 0.134551 0.132347 -0.726028
H106  H     H_    0.528887 0.152803 0.108779 0.217446
H107  H     H_    0.556750 0.162523 0.147251 0.226889
H108  H     H_    0.490889 0.130403 0.142637 0.258004
N24   N     N_2   0.439142 0.919424 0.869248 -0.296839
H109  H     H_    0.399488 0.916836 0.877348 0.215868
C184  C     C_3   0.464876 0.866167 0.867645 -0.725218
H110  H     H_    0.467949 0.847861 0.891219 0.217702
H111  H     H_    0.506468 0.869413 0.857374 0.260137
H112  H     H_    0.439939 0.838716 0.852736 0.225999
N25   N     N_2   0.419429 0.939146 0.630747 -0.296839
H113  H     H_    0.416847 0.899495 0.622643 0.215880
C185  C     C_3   0.366169 0.964872 0.632353 -0.725252
H114  H     H_    0.347861 0.967949 0.608780 0.217691
H115  H     H_    0.369410 0.006462 0.642628 0.260139
H116  H     H_    0.338722 0.939927 0.647261 0.226004
N26   N     N_2   0.581796 0.059371 0.369272 -0.296106
H117  H     H_    0.585182 0.098964 0.377372 0.215584
C186  C     C_3   0.634523 0.032570 0.367662 -0.724321
H118  H     H_    0.652769 0.029119 0.391235 0.217416
H119  H     H_    0.662468 0.056955 0.352755 0.226137
H120  H     H_    0.630437 0.991056 0.357386 0.259775
N27   N     N_2   0.943893 0.415952 0.630587 -0.291913
H121  H     H_    0.904517 0.410926 0.622420 0.216671
C187  C     C_3   0.972881 0.364391 0.632206 -0.721047
H122  H     H_    0.977241 0.346373 0.608625 0.215898
H123  H     H_    0.949607 0.335400 0.647040 0.230947
H124  H     H_    0.014125 0.370193 0.642570 0.255667
N28   N     N_2   0.058556 0.582386 0.369272 -0.295110
H125  H     H_    0.098102 0.586169 0.377390 0.215611
C188  C     C_3   0.031230 0.634843 0.367646 -0.725707
H126  H     H_    0.027558 0.653056 0.391215 0.217348
H127  H     H_    0.989775 0.630340 0.357347 0.257794
H128  H     H_    0.055359 0.663028 0.352750 0.226955
N29   N     N_2   0.580585 0.060931 0.630791 -0.296835
H129  H     H_    0.583161 0.100596 0.622708 0.215849
C189  C     C_3   0.633851 0.035216 0.632392 -0.725169
H130  H     H_    0.652172 0.032183 0.608820 0.217685
H131  H     H_    0.630617 0.993608 0.642643 0.260141
H132  H     H_    0.661285 0.060143 0.647317 0.225979
N30   N     N_2   0.418030 0.941030 0.369338 -0.293533
H133  H     H_    0.414453 0.901474 0.377469 0.216940
C190  C     C_3   0.365438 0.968105 0.367743 -0.722088
H134  H     H_    0.347255 0.971699 0.391324 0.216226
H135  H     H_    0.337336 0.943840 0.352868 0.231225
H136  H     H_    0.369720 0.009578 0.357437 0.256452
N31   N     N_2   0.056165 0.584062 0.630620 -0.291901
H137  H     H_    0.095552 0.589078 0.622467 0.216663
C191  C     C_3   0.027193 0.635632 0.632239 -0.721025
H138  H     H_    0.022866 0.653666 0.608660 0.215869
H139  H     H_    0.050461 0.664606 0.647087 0.230947
H140  H     H_    0.985935 0.629839 0.642587 0.255671
N32   N     N_2   0.941677 0.417536 0.369325 -0.293665
H141  H     H_    0.902144 0.413657 0.377449 0.216676
C192  C     C_3   0.969162 0.365157 0.367747 -0.719884
H142  H     H_    0.972892 0.347022 0.391334 0.216081
H143  H     H_    0.010603 0.369758 0.357443 0.258069
H144  H     H_    0.945122 0.336853 0.352878 0.230455

loop_
_geom_bond_atom_site_label_1
_geom_bond_atom_site_label_2
_ccdc_geom_bond_type
C185  H116  S    
C20   C170  A    
C191  H138  S    
C22   C150  A    
O19   Zn6   S    
C86   O18   A    
C32   C166  A    
O9    Zn12  S    
N31   H137  S    
C143  C175  A    
C24   C174  A    
C42   C58   A    
C90   O22   A    
O27   Zn10  S    
C8    C13   S    
C41   C105  A    
C46   C62   A    
C81   O5    A    
C187  H123  S    
C87   O15   A    
C83   O7    A    
C88   O16   A    
C33   C78   S    
C5    C143  A    
C171  H75   S    
C35   C80   S    
C50   C110  A    
O4    Zn8   S    
C169  H73   S    
C127  H31   S    
C140  H44   S    
C173  H77   S    
O2    Zn11  S    
C56   C72   A    
C9    C121  A    
C139  C171  A    
C17   C98   S    
C161  H65   S    
C13   C125  A    
C126  C158  A    
C53   C69   A    
N29   C189  S    
C15   C127  A    
O4    Zn13  S    
C90   O52   A    
C86   O14   A    
C93   O25   A    
C1    C113  A    
O36   Zn10  S    
C11   C129  A    
N19   C179  S    
C67   H11   S    
C65   H9    S    
C9    C131  A    
C180  H96   S    
C63   H7    S    
C89   O51   A    
C7    C119  A    
C81   O9    A    
C182  H104  S    
C96   O46   A    
O49   Zn3   S    
C145  H49   S    
C60   C76   A    
C100  O32   A    
N9    N14   A    
O35   Zn9   S    
N11   N16   A    
C179  H90   S    
C54   C70   A    
C192  H144  S    
C102  O40   A    
C154  H58   S    
O2    Zn15  S    
C42   C106  A    
C12   C130  A    
C158  H62   S    
C93   O47   A    
N25   H113  S    
C94   O48   A    
C95   O45   A    
C129  H33   S    
N24   H109  S    
C70   H14   S    
C42   N18   S    
C53   C109  A    
C114  H18   S    
C55   C111  A    
C88   O20   A    
O24   Zn13  S    
C10   C122  A    
C150  H54   S    
O16   Zn1   S    
O47   Zn5   S    
O10   Zn11  S    
C14   C126  A    
C123  H27   S    
C33   N10   A    
C82   C111  S    
C186  H119  S    
C121  H25   S    
N21   H97   S    
C2    C114  A    
C122  H26   S    
C125  H29   S    
C181  H100  S    
C98   O30   A    
C39   N4    A    
O43   Zn2   S    
C41   C57   A    
C137  H41   S    
N20   H93   S    
C117  C149  A    
C128  H32   S    
C188  H126  S    
O37   Zn4   S    
C55   C71   A    
C141  H45   S    
C184  H111  S    
O2    Zn2   S    
C190  H134  S    
C69   C77   A    
N30   H133  S    
C148  H52   S    
C16   C134  A    
C71   C79   A    
N27   H121  S    
N32   C192  S    
O45   Zn7   S    
C191  H139  S    
C25   C90   S    
O41   Zn8   S    
C44   C60   A    
C29   C94   S    
C101  O33   A    
C52   C112  A    
C54   C110  A    
C91   O23   A    
C37   N6    A    
O17   Zn4   S    
O39   Zn6   S    
O15   Zn2   S    
O50   Zn4   S    
C31   C165  A    
C21   C175  A    
C104  O38   A    
C189  H131  S    
C163  H67   S    
C21   C149  A    
C53   N29   S    
C43   C59   A    
C130  C162  A    
C23   C100  S    
O2    Zn6   S    
C13   C135  A    
C82   O6    A    
C1    C12   S    
C2    C11   S    
C45   C105  A    
O42   Zn7   S    
N17   C177  S    
C166  H70   S    
C147  H51   S    
C183  H108  S    
C103  O37   A    
C55   N31   S    
O51   Zn1   S    
C16   C128  A    
C19   C104  S    
N12   N15   A    
N32   H141  S    
C81   C112  S    
C28   C156  A    
C144  C176  A    
C83   C110  S    
C129  C161  A    
C58   H2    S    
C51   C67   A    
C94   O26   A    
C188  H128  S    
O30   Zn16  S    
C21   C102  S    
C179  H91   S    
C190  H136  S    
C177  H83   S    
C131  H35   S    
C45   N21   S    
C51   N27   S    
C6    C144  A    
C118  H22   S    
C7    C141  A    
C58   C74   A    
C185  H115  S    
O40   Zn5   S    
O12   Zn13  S    
C62   C74   A    
N10   N13   A    
C100  O42   A    
C178  H88   S    
C47   C107  A    
C84   C109  S    
C149  H53   S    
O3    Zn7   S    
C72   C80   A    
C186  H118  S    
C27   C161  A    
C57   H1    S    
C88   C105  S    
C63   C75   A    
C25   C163  A    
C84   O8    A    
C26   C164  A    
O31   Zn13  S    
C10   C132  A    
N23   C183  S    
C47   N23   S    
C140  C172  A    
C56   N32   S    
C116  H20   S    
C139  H43   S    
C68   H12   S    
O52   Zn2   S    
C135  C167  A    
C176  H80   S    
C71   H15   S    
C4    C9    S    
O18   Zn3   S    
C72   H16   S    
C152  H56   S    
C82   O10   A    
C37   C74   S    
N29   H129  S    
C59   C75   A    
C33   N14   A    
C34   N9    A    
C35   N16   A    
N19   H89   S    
C117  H21   S    
C183  H106  S    
C20   C103  S    
C123  C155  A    
C180  H95   S    
C128  C160  A    
C178  H86   S    
C22   C101  S    
C121  C153  A    
C119  H23   S    
O28   Zn9   S    
N30   C190  S    
C39   N8    A    
N4    N7    A    
C34   C77   S    
C47   C63   A    
C40   N7    A    
C125  C157  A    
C48   C64   A    
C138  C170  A    
N22   H101  S    
C115  C147  A    
C170  H74   S    
C113  C145  A    
C118  C150  A    
C24   C152  A    
C174  H78   S    
C43   N19   S    
C142  H46   S    
C192  H143  S    
C87   O19   A    
C134  C166  A    
C3    C137  A    
C18   C97   S    
C162  H66   S    
C85   C108  S    
C41   N17   S    
C1    C139  A    
N31   C191  S    
C27   C96   S    
C52   N28   S    
C102  O34   A    
C92   O50   A    
C27   C155  A    
C66   C78   A    
O21   Zn12  S    
C25   C153  A    
N1    N6    A    
C99   O41   A    
C187  H124  S    
C65   C77   A    
C37   N2    A    
N3    N8    A    
C186  H120  S    
N18   H85   S    
C116  C148  A    
C29   C157  A    
C146  H50   S    
C61   C73   A    
O25   Zn16  S    
C19   C147  A    
C17   C145  A    
C132  C164  A    
C133  C165  A    
C62   H6    S    
C131  C163  A    
C153  H57   S    
C181  H99   S    
C43   C107  A    
C85   O13   A    
C157  H61   S    
C26   C154  A    
C141  C173  A    
C36   N11   A    
C38   N5    A    
C164  H68   S    
C184  H110  S    
C115  H19   S    
C113  H17   S    
C4    C116  A    
C11   C123  A    
O26   Zn15  S    
O23   Zn14  S    
C36   C79   S    
C22   C176  A    
N26   H117  S    
C175  H79   S    
C23   C173  A    
C60   H4    S    
C85   O17   A    
C92   O24   A    
C61   H5    S    
C134  H38   S    
C40   C75   S    
O6    Zn15  S    
C29   C167  A    
C59   H3    S    
C30   C168  A    
C3    C115  A    
C89   O21   A    
C48   C108  A    
C14   C136  A    
C126  H30   S    
C167  H71   S    
C45   C61   A    
C120  H24   S    
C44   N20   S    
C91   O49   A    
C83   O11   A    
O20   Zn5   S    
C4    C138  A    
O8    Zn9   S    
N25   C185  S    
C159  H63   S    
O4    Zn4   S    
C8    C142  A    
C68   C80   A    
C177  H82   S    
O1    Zn1   S    
C70   C78   A    
C24   C99   S    
O3    Zn3   S    
C187  H122  S    
C132  H36   S    
C28   C162  A    
C185  H114  S    
C142  C174  A    
O13   Zn8   S    
N17   H81   S    
C26   C89   S    
C84   O12   A    
C104  O36   A    
C49   C65   A    
O4    Zn9   S    
C124  H28   S    
C28   C95   S    
O3    Zn14  S    
C156  H60   S    
C30   C93   S    
N21   C181  S    
C143  H47   S    
C183  H107  S    
C32   C91   S    
O22   Zn11  S    
C57   C73   A    
C46   C106  A    
C96   O28   A    
C49   N25   S    
C5    C16   S    
C6    C15   S    
C36   N15   A    
C7    C14   S    
C135  H39   S    
O38   Zn3   S    
O32   Zn14  S    
N22   C182  S    
C101  O39   A    
N28   H125  S    
C34   N13   A    
C35   N12   A    
C188  H127  S    
C86   C107  S    
C137  C169  A    
C52   C68   A    
C184  H112  S    
N28   C188  S    
C190  H135  S    
C48   N24   S    
O1    Zn5   S    
C122  C154  A    
O46   Zn8   S    
O29   Zn15  S    
N27   C187  S    
C40   N3    A    
C44   C108  A    
C119  C151  A    
C191  H140  S    
C151  H55   S    
C120  C152  A    
C165  H69   S    
C114  C146  A    
C69   H13   S    
C136  C168  A    
C172  H76   S    
O1    Zn12  S    
O33   Zn11  S    
C5    C117  A    
C64   H8    S    
O3    Zn10  S    
N24   C184  S    
N18   C178  S    
C181  H98   S    
C189  H130  S    
C12   C124  A    
O5    Zn16  S    
C155  H59   S    
C20   C148  A    
C64   C76   A    
C189  H132  S    
N20   C180  S    
C39   C76   S    
C50   C66   A    
N23   H105  S    
C46   N22   S    
C168  H72   S    
C192  H142  S    
C103  O35   A    
C124  C156  A    
C130  H34   S    
N2    N5    A    
C97   O29   A    
C38   N1    A    
C127  C159  A    
C99   O31   A    
C8    C120  A    
C49   C109  A    
C30   C158  A    
C23   C151  A    
C51   C111  A    
C160  H64   S    
C95   O27   A    
O11   Zn14  S    
C19   C169  A    
C18   C146  A    
O34   Zn12  S    
C17   C171  A    
C15   C133  A    
C18   C172  A    
C54   N30   S    
C180  H94   S    
O1    Zn16  S    
C133  H37   S    
C66   H10   S    
C3    C10   S    
C182  H102  S    
O14   Zn7   S    
N26   C186  S    
C87   C106  S    
O44   Zn1   S    
C182  H103  S    
C6    C118  A    
O7    Zn10  S    
C144  H48   S    
C179  H92   S    
C138  H42   S    
C178  H87   S    
C31   C92   S    
C177  H84   S    
C97   O43   A    
O48   Zn6   S    
C50   N26   S    
C98   O44   A    
C2    C140  A    
C32   C160  A    
C56   C112  A    
C67   C79   A    
C31   C159  A    
C136  H40   S    
C38   C73   S    
