data_mof_unit_pretest_295.cif
_audit_creation_date              2013-03-05T16:32:59-0500
_audit_creation_method            fapswitch 2.2
_symmetry_space_group_name_H-M    P1
_symmetry_Int_Tables_number       1
_space_group_crystal_system       triclinic
_cell_length_a                    23.488282
_cell_length_b                    10.813243
_cell_length_c                    9.564089
_cell_angle_alpha                 89.750443
_cell_angle_beta                  89.550368
_cell_angle_gamma                 90.396602
_cell_volume                      2428.97375956

loop_
_atom_site_label
_atom_site_type_symbol
_atom_site_description
_atom_site_fract_x
_atom_site_fract_y
_atom_site_fract_z
_atom_type_partial_charge
O1    O     O_R   0.500000 0.319640 0.618810 -0.547317
O2    O     O_R   0.500010 0.319680 0.381230 -0.588682
C1    C     C_R   0.499232 0.262372 0.500217 0.795551
O3    O     O_R   0.417880 0.499940 0.618820 -0.530732
O4    O     O_R   0.417880 0.499980 0.381240 -0.578037
C2    C     C_R   0.391265 0.498385 0.500352 0.787583
Cu1   Cu    Cu3+1 0.500000 0.499980 0.640670 1.000586
Cu2   Cu    Cu3+1 0.500000 0.500020 0.359330 0.955279
O5    O     O_R   0.499990 0.680320 0.618770 -0.574619
O6    O     O_R   0.500000 0.680360 0.381190 -0.583718
O7    O     O_R   0.582120 0.500020 0.618760 -0.592010
O8    O     O_R   0.582120 0.500060 0.381180 -0.579219
C3    C     C_R   0.499207 0.737568 0.499800 0.800368
C4    C     C_R   0.609035 0.499625 0.499630 0.812156
C5    C     C_R   0.880378 0.579256 0.575962 0.599205
N1    N     N_R   0.852201 0.492603 0.498062 -0.452623
C6    C     C_R   0.880947 0.409084 0.417229 0.597806
C7    C     C_R   0.940666 0.409340 0.414158 -0.023613
C8    C     C_R   0.970359 0.496663 0.495235 -0.012074
C9    C     C_R   0.940099 0.582680 0.576744 -0.018566
C10   C     C_R   0.971260 0.324273 0.332885 -0.139368
C11   C     C_R   0.030658 0.325522 0.332525 -0.145718
C12   C     C_R   0.060701 0.411754 0.413584 -0.020448
C13   C     C_R   0.030457 0.497800 0.495013 -0.012737
C14   C     C_R   0.060167 0.584739 0.576517 -0.022914
C15   C     C_R   0.029559 0.670369 0.657063 -0.147635
C16   C     C_R   0.970147 0.669433 0.657057 -0.142893
C17   C     C_R   0.120412 0.414199 0.415557 0.550791
N2    N     N_R   0.148708 0.498585 0.496421 -0.460262
C18   C     C_R   0.119912 0.583147 0.575888 0.556879
O9    O     O_2   0.850628 0.661599 0.652349 -0.516786
O10   O     O_2   0.851761 0.325495 0.341158 -0.502692
H1    H     H_    0.949438 0.256302 0.269564 0.198018
H2    H     H_    0.052913 0.258469 0.268910 0.195142
O11   O     O_2   0.150020 0.333421 0.336688 -0.518890
O12   O     O_2   0.149015 0.664516 0.655114 -0.517171
H3    H     H_    0.051381 0.738236 0.720521 0.194430
H4    H     H_    0.947882 0.736580 0.720522 0.195609
C19   C     C_R   0.240865 0.597309 0.442682 -0.080462
H5    H     H_    0.218986 0.675856 0.398227 0.167840
C20   C     C_R   0.300141 0.595709 0.443481 -0.243872
H6    H     H_    0.323576 0.673956 0.400530 0.168490
C21   C     C_R   0.329082 0.494598 0.500397 -0.134874
C22   C     C_R   0.297911 0.391958 0.554542 0.416782
C23   C     C_R   0.238468 0.395836 0.554611 -0.070959
H7    H     H_    0.214283 0.318270 0.596514 0.175036
C24   C     C_R   0.209807 0.497645 0.498620 0.246403
C25   C     C_R   0.762024 0.536932 0.384129 -0.131648
H8    H     H_    0.785592 0.572261 0.294560 0.172787
C26   C     C_R   0.702813 0.540166 0.383775 -0.198783
H9    H     H_    0.681550 0.578720 0.293998 0.160712
C27   C     C_R   0.671643 0.496859 0.499610 -0.096891
C28   C     C_R   0.700627 0.449932 0.615951 -0.284559
H10   H     H_    0.676672 0.413658 0.704301 0.180559
C29   C     C_R   0.760305 0.445090 0.617453 0.385498
C30   C     C_R   0.791120 0.490059 0.499894 0.237333
C31   C     C_R   0.501027 0.062930 0.625120 0.219234
C32   C     C_R   0.494378 0.129083 0.500878 -0.110673
C33   C     C_R   0.480473 0.064733 0.378164 -0.196750
H11   H     H_    0.471900 0.113503 0.281505 0.177682
C34   C     C_R   0.480507 0.935749 0.377847 -0.201706
H12   H     H_    0.472029 0.887668 0.281013 0.173422
C35   C     C_R   0.494308 0.870643 0.500331 -0.108976
C36   C     C_R   0.500836 0.935682 0.624903 0.140772
C37   C     C_3   0.547418 0.928799 0.730051 -0.488110
C38   C     C_3   0.547840 0.069163 0.729880 -0.438623
H13   H     H_    0.532459 0.887947 0.830818 0.210073
H14   H     H_    0.587133 0.888026 0.686761 0.201394
H15   H     H_    0.533519 0.109083 0.830969 0.232767
H16   H     H_    0.587730 0.110211 0.686021 0.194267
C39   C     C_R   0.532605 0.583229 0.072400 0.239806
N3    N     N_R   0.500360 0.500930 0.147930 -0.211554
C40   C     C_R   0.463432 0.427447 0.076478 -0.115184
H17   H     H_    0.434559 0.367264 0.134038 0.172959
C41   C     C_R   0.462939 0.427563 0.927985 0.401024
N4    N     N_R   0.500360 0.500890 0.852020 -0.248446
C42   C     C_R   0.532623 0.583226 0.925202 0.178051
C43   C     C_3   0.595745 0.596772 0.918050 -0.445954
C44   C     C_3   0.595760 0.596135 0.076504 -0.478399
H18   H     H_    0.617013 0.514429 0.873303 0.223667
H19   H     H_    0.609190 0.686918 0.871795 0.198786
H20   H     H_    0.616655 0.512814 0.120354 0.224290
H21   H     H_    0.609451 0.685771 0.122208 0.194530
N5    N     N_R   0.788598 0.393870 0.737453 0.139648
O13   O     O_R   0.838085 0.341553 0.724987 -0.331932
O14   O     O_R   0.762927 0.390547 0.858538 -0.341532
N6    N     N_R   0.421948 0.351691 0.859722 0.140193
O15   O     O_R   0.369013 0.386133 0.862263 -0.323008
O16   O     O_R   0.433104 0.235327 0.841154 -0.380199
O17   O     O_3   0.323089 0.285486 0.604132 -0.658949
H22   H     H_    0.364335 0.287199 0.582582 0.337357

loop_
_geom_bond_atom_site_label_1
_geom_bond_atom_site_label_2
_geom_bond_distance
_ccdc_geom_bond_type
N6    O15   1.300459 A    
C7    C10   1.404752 A    
C40   C41   1.420333 A    
C20   H6    1.083802 S    
C8    C9    1.408813 A    
C31   C38   1.494759 S    
C29   C30   1.414950 A    
C39   C44   1.489844 S    
O17   H22   0.988913 S    
Cu1   Cu2   2.690759 S    
C19   C20   1.392583 A    
C42   C43   1.489836 S    
C22   C23   1.397110 A    
Cu1   O7    1.938566 S    
C15   C16   1.395455 A    
N2    C24   1.435547 S    
C17   N2    1.370511 A    
N5    O14   1.301671 A    
O4    C2    1.295132 A    
O7    C4    1.298699 A    
C43   H18   1.109779 S    
C38   H15   1.111201 S    
C10   H1    1.083165 S    
C16   H4    1.083155 S    
C5    N1    1.369798 A    
Cu1   O5    1.960372 S    
C7    C8    1.408909 A    
C40   H17   1.082314 S    
C34   C35   1.405327 A    
O5    C3    1.293281 A    
N5    O13   1.301102 A    
C4    C27   1.471050 S    
C28   H10   1.082143 S    
N1    C6    1.369484 A    
C37   H13   1.111844 S    
C26   C27   1.400244 A    
C12   C13   1.408408 A    
C23   C24   1.400958 A    
C33   H11   1.083245 S    
C10   C11   1.395101 A    
C20   C21   1.401690 A    
O3    Cu1   1.941772 S    
C6    C7    1.402771 A    
C28   C29   1.403250 A    
C5    C9    1.403046 A    
C11   H2    1.083151 S    
Cu2   N3    2.021780 S    
C33   C34   1.394758 A    
C13   C14   1.408633 A    
C17   O11   1.349626 S    
O3    C2    1.298452 A    
C19   H5    1.082855 S    
C43   C44   1.515459 S    
C14   C15   1.405132 A    
C23   H7    1.083373 S    
O1    C1    1.294825 A    
C41   N4    1.380010 A    
N1    C30   1.434722 S    
N2    C18   1.370321 A    
C44   H20   1.111100 S    
C3    C35   1.444380 S    
Cu2   O8    1.941772 S    
C37   H14   1.112322 S    
C26   H9    1.080268 S    
C12   C17   1.402856 A    
N4    C42   1.364276 A    
C41   N6    1.424749 S    
C25   H8    1.083050 S    
O8    C4    1.301660 A    
C2    C21   1.460861 S    
N6    O16   1.299707 A    
C21   C22   1.419100 A    
C39   C42   1.407813 A    
C22   O17   1.381762 S    
C27   C28   1.403855 A    
C31   C36   1.375955 A    
C19   C24   1.399208 A    
C14   C18   1.403475 A    
C25   C30   1.400563 A    
O1    Cu1   1.962141 S    
O2    Cu2   1.960372 S    
N3    C40   1.362062 A    
O6    C3    1.294537 A    
O4    Cu2   1.938571 S    
C15   H3    1.083146 S    
C5    O9    1.349483 S    
Cu1   N4    2.021522 S    
C9    C16   1.404902 A    
C18   O12   1.349517 S    
C36   C37   1.493885 S    
O2    C1    1.293349 A    
C32   C33   1.406517 A    
C39   N3    1.365246 A    
C44   H21   1.111540 S    
C43   H19   1.111486 S    
C31   C32   1.394667 A    
C38   H16   1.112343 S    
C25   C26   1.391486 A    
C8    C13   1.411571 A    
C34   H12   1.083202 S    
C35   C36   1.395090 A    
C1    C32   1.444987 S    
Cu2   O6    1.962140 S    
C37   C38   1.517750 S    
C6    O10   1.349529 S    
C11   C12   1.405070 A    
C29   N5    1.441215 S    
