data_mof_unit_pretest_356.cif
_audit_creation_date              2012-12-10T19:04:14-0500
_audit_creation_method            fapswitch 2.2
_symmetry_space_group_name_H-M    P1
_symmetry_Int_Tables_number       1
_space_group_crystal_system       triclinic
_cell_length_a                    10.625395
_cell_length_b                    10.81462
_cell_length_c                    9.550566
_cell_angle_alpha                 89.898113
_cell_angle_beta                  89.482667
_cell_angle_gamma                 90.223542
_cell_volume                      1097.39691531

loop_
_atom_site_label
_atom_site_type_symbol
_atom_type_description
_atom_site_fract_x
_atom_site_fract_y
_atom_site_fract_z
_atom_type_partial_charge
C1    C     C_R   0.496949 0.262350 0.500070 0.801926
C2    C     C_3   0.961275 0.490499 0.367306 -0.136229
C3    C     C_3   0.042806 0.394329 0.444231 -0.168876
C4    C     C_3   0.122414 0.500584 0.502051 0.026936
C5    C     C_R   0.481244 0.063428 0.625781 0.158453
C6    C     C_R   0.483181 0.129279 0.500005 -0.104731
C7    C     C_R   0.466826 0.064619 0.373750 -0.230532
C8    C     C_R   0.467451 0.935700 0.373613 -0.224937
C9    C     C_R   0.484350 0.870779 0.499721 -0.098448
C10   C     C_R   0.482119 0.936183 0.625581 0.119654
C11   C     C_3   0.569109 0.930321 0.747388 -0.497867
C12   C     C_R   0.259297 0.500322 0.500656 0.777767
C13   C     C_3   0.567605 0.070677 0.748068 -0.444389
C14   C     C_R   0.560116 0.591674 0.072779 0.240909
C15   C     C_R   0.430651 0.416678 0.075831 -0.189785
C16   C     C_R   0.427676 0.417639 0.925712 0.527400
C17   C     C_R   0.560624 0.591329 0.925564 0.172031
C18   C     C_3   0.697553 0.621724 0.918627 -0.489383
C19   C     C_3   0.696836 0.622636 0.077440 -0.486997
C20   C     C_R   0.497598 0.737696 0.499883 0.792585
C21   C     C_R   0.740728 0.499695 0.499449 0.775731
C22   C     C_3   0.038925 0.509684 0.633456 -0.148610
C23   C     C_3   0.957012 0.403354 0.575459 -0.178143
C24   C     C_3   0.877671 0.499554 0.498570 0.028965
C25   C     C_3   0.957285 0.605822 0.556559 -0.169666
C26   C     C_3   0.043101 0.596818 0.425338 -0.164747
Cu1   Cu    Cu3+1 0.499990 0.499980 0.640670 0.969791
Cu2   Cu    Cu3+1 0.500010 0.500020 0.359330 0.932858
H1    H     H_    0.918779 0.324179 0.636807 0.122260
H2    H     H_    0.662537 0.891263 0.718919 0.190630
H3    H     H_    0.520375 0.109865 0.842278 0.226314
H4    H     H_    0.660235 0.113024 0.720895 0.186329
H5    H     H_    0.379467 0.346964 0.134344 0.157699
H6    H     H_    0.755252 0.545627 0.873935 0.216619
H7    H     H_    0.715855 0.714260 0.872058 0.188640
H8    H     H_    0.753948 0.547044 0.122737 0.208729
H9    H     H_    0.714138 0.715776 0.122564 0.191063
H10   H     H_    0.072935 0.518503 0.742543 0.122563
H11   H     H_    0.918990 0.692253 0.602483 0.120256
H12   H     H_    0.081399 0.676023 0.364101 0.127207
H13   H     H_    0.928348 0.481741 0.257946 0.123848
H14   H     H_    0.081012 0.307823 0.398404 0.125047
H15   H     H_    0.460069 0.112933 0.274662 0.162785
H16   H     H_    0.461061 0.887688 0.274471 0.164508
H17   H     H_    0.523317 0.888636 0.841460 0.200448
N1    N     N_R   0.500800 0.500930 0.147930 -0.204396
N2    N     N_R   0.500800 0.500890 0.852020 -0.223598
O1    O     O_R   0.500000 0.319640 0.618810 -0.527120
O2    O     O_R   0.500010 0.319680 0.381230 -0.593164
O3    O     O_R   0.316850 0.499950 0.618770 -0.568122
O4    O     O_R   0.316860 0.499990 0.381190 -0.586132
O5    O     O_R   0.499990 0.680320 0.618770 -0.578914
O6    O     O_R   0.500000 0.680360 0.381190 -0.584233
O7    O     O_R   0.683140 0.500010 0.618810 -0.588592
O8    O     O_R   0.683150 0.500050 0.381230 -0.583581
O9    O     O_3   0.364175 0.326914 0.851631 -0.556321
C27   C     C_3   0.238596 0.309990 0.898905 0.049062
H18   H     H_    0.176144 0.318634 0.806888 0.172490
H19   H     H_    0.205034 0.379711 0.976523 0.106216
C28   C     C_3   0.222170 0.179822 0.957751 -0.859477
H20   H     H_    0.122812 0.165336 0.991077 0.210442
H21   H     H_    0.246595 0.110578 0.876222 0.256107
H22   H     H_    0.284014 0.165691 0.049322 0.232721

loop_
_geom_bond_atom_site_label_1
_geom_bond_atom_site_label_2
_ccdc_geom_bond_type
Cu1   O1    S    
C12   O3    A    
C23   C24   S    
C16   O9    S    
C3    H14   S    
C6    C7    A    
C7    H15   S    
C4    C12   S    
C4    C22   S    
C9    C10   A    
C9    C20   S    
C4    C26   S    
C18   H7    S    
Cu1   O3    S    
Cu2   O6    S    
C26   H12   S    
C17   C18   S    
Cu1   O7    S    
C5    C10   A    
C2    C26   S    
O9    C27   S    
C11   C13   S    
C14   C17   A    
Cu2   N1    S    
C27   H18   S    
C5    C6    A    
C1    O2    A    
C28   H20   S    
C28   H22   S    
C15   C16   A    
C23   H1    S    
C16   N2    A    
Cu2   O8    S    
C13   H3    S    
C2    C3    S    
C19   H8    S    
C18   H6    S    
C1    O1    A    
C2    C24   S    
C21   O7    A    
Cu2   O4    S    
C27   H19   S    
C11   H17   S    
C10   C11   S    
C2    H13   S    
C1    C6    S    
C22   H10   S    
C17   N2    A    
C7    C8    A    
C12   O4    A    
C24   C25   S    
Cu1   O5    S    
C28   H21   S    
C18   C19   S    
Cu2   O2    S    
C21   C24   S    
Cu1   N2    S    
Cu1   Cu2   S    
C21   O8    A    
C3    C23   S    
C20   O5    A    
C20   O6    A    
C27   C28   S    
C19   H9    S    
C15   N1    A    
C25   C26   S    
C22   C23   S    
C13   H4    S    
C5    C13   S    
C14   C19   S    
C15   H5    S    
C25   H11   S    
C3    C4    S    
C8    H16   S    
C11   H2    S    
C8    C9    A    
C14   N1    A    
C22   C25   S    
