data_mof_unit_pretest_1998.cif
_audit_creation_date              2012-10-26T21:23:49-0400
_audit_creation_method            fapswitch 2.2
_symmetry_space_group_name_H-M    P1
_symmetry_Int_Tables_number       1
_space_group_crystal_system       triclinic
_cell_length_a                    17.829383
_cell_length_b                    16.589797
_cell_length_c                    14.343569
_cell_angle_alpha                 90.406871
_cell_angle_beta                  92.92639
_cell_angle_gamma                 90.754342
_cell_volume                      4236.59649387

loop_
_atom_site_label
_atom_site_type_symbol
_atom_type_description
_atom_site_fract_x
_atom_site_fract_y
_atom_site_fract_z
_atom_type_partial_charge
C1    C     C_R   0.355178 0.499519 0.502049 0.563633
C2    C     C_R   0.459085 0.254834 0.432018 0.124853
C3    C     C_R   0.460013 0.742702 0.430832 0.114156
C4    C     C_R   0.539988 0.257299 0.569166 0.114158
C5    C     C_R   0.504890 0.873748 0.494985 0.012612
C6    C     C_R   0.495110 0.126252 0.505018 0.012616
C7    C     C_1   0.501503 0.963096 0.498378 0.156785
C8    C     C_1   0.498497 0.036904 0.501626 0.156788
C9    C     C_R   0.499718 0.499760 0.330884 0.547053
C10   C     C_R   0.500282 0.500240 0.669116 0.547061
C11   C     C_1   0.499746 0.499364 0.228637 0.025926
C12   C     C_R   0.644821 0.500481 0.497951 0.563638
C13   C     C_1   0.500254 0.500636 0.771363 0.025935
C14   C     C_1   0.499812 0.499449 0.143270 0.020302
C15   C     C_1   0.500188 0.500551 0.856730 0.020304
C16   C     C_1   0.499939 0.499814 0.042686 0.045718
C17   C     C_1   0.500061 0.500186 0.957314 0.045717
C18   C     C_R   0.848976 0.574677 0.510660 0.001901
C19   C     C_R   0.151024 0.425323 0.489340 0.001902
C20   C     C_R   0.155520 0.562880 0.552523 0.035574
C21   C     C_R   0.844479 0.437121 0.447472 0.035575
C22   C     C_R   0.770375 0.572301 0.517622 0.048696
C23   C     C_1   0.966491 0.501534 0.493694 0.145998
C24   C     C_R   0.229625 0.427698 0.482379 0.048696
C25   C     C_R   0.234097 0.564872 0.546931 0.021583
C26   C     C_R   0.765903 0.435130 0.453064 0.021581
C27   C     C_R   0.728151 0.501984 0.490927 0.043103
C28   C     C_R   0.271848 0.498016 0.509072 0.043102
C29   C     C_R   0.885950 0.505406 0.480578 0.009806
C30   C     C_R   0.114049 0.494595 0.519418 0.009805
C31   C     C_2   0.891602 0.650687 0.534233 0.274977
C32   C     C_2   0.108398 0.349312 0.465767 0.274976
C33   C     C_2   0.118093 0.633265 0.594365 0.307659
C34   C     C_1   0.033508 0.498467 0.506302 0.145996
C35   C     C_2   0.881906 0.366738 0.405627 0.307658
C36   C     C_2   0.602219 0.875570 0.628007 0.268210
C37   C     C_2   0.397779 0.124429 0.371998 0.268211
C38   C     C_2   0.416551 0.871075 0.352538 0.303762
C39   C     C_2   0.583449 0.128927 0.647464 0.303748
C40   C     C_2   0.577780 0.703490 0.648268 0.250677
C41   C     C_2   0.422219 0.296509 0.351733 0.250675
C42   C     C_2   0.414559 0.698286 0.357696 0.257269
C43   C     C_2   0.585446 0.301716 0.642298 0.257282
C44   C     C_R   0.547460 0.831110 0.563612 -0.018016
C45   C     C_R   0.452539 0.168890 0.436391 -0.018015
C46   C     C_R   0.461520 0.828833 0.427306 -0.033042
C47   C     C_R   0.538481 0.171168 0.572695 -0.033051
C48   C     C_R   0.540913 0.745166 0.567984 0.124854
Cu1   Cu    Cu3+1 0.500000 0.580420 0.500000 0.963658
Cu2   Cu    Cu3+1 0.500000 0.419580 0.500000 0.963669
H1    H     H_    0.872832 0.691703 0.587106 0.125828
H2    H     H_    0.297944 0.666098 0.530097 0.245539
H3    H     H_    0.683785 0.383893 0.366717 0.270282
H4    H     H_    0.702055 0.333903 0.469893 0.245538
H5    H     H_    0.614302 0.855525 0.698737 0.179172
H6    H     H_    0.385694 0.144474 0.301268 0.179172
H7    H     H_    0.362540 0.846573 0.327113 0.134153
H8    H     H_    0.637459 0.153430 0.672891 0.134146
H9    H     H_    0.614803 0.653830 0.638139 0.170350
H10   H     H_    0.385196 0.346170 0.361862 0.170349
H11   H     H_    0.369390 0.658229 0.375575 0.120122
H12   H     H_    0.127169 0.308294 0.412896 0.125827
H13   H     H_    0.630626 0.341757 0.624415 0.120100
H14   H     H_    0.143295 0.693026 0.591395 0.156198
H15   H     H_    0.856703 0.306977 0.408594 0.156198
H16   H     H_    0.753050 0.654181 0.619952 0.217435
H17   H     H_    0.744208 0.691088 0.509171 0.250513
H18   H     H_    0.246951 0.345813 0.380055 0.217433
H19   H     H_    0.255791 0.308911 0.490838 0.250514
H20   H     H_    0.316214 0.616113 0.633277 0.270283
N1    N     N_R   0.500000 0.701220 0.500000 -0.261356
N2    N     N_R   0.500000 0.298780 0.500000 -0.261353
N3    N     N_3   0.732951 0.641803 0.551542 -0.638547
N4    N     N_3   0.267049 0.358194 0.448464 -0.638544
N5    N     N_3   0.274484 0.634363 0.584356 -0.640835
N6    N     N_3   0.725515 0.365640 0.415636 -0.640836
O1    O     O_R   0.391260 0.567930 0.500000 -0.542151
O2    O     O_2   0.053260 0.330083 0.508019 -0.462086
O3    O     O_2   0.060474 0.624860 0.635933 -0.472995
O4    O     O_2   0.939527 0.375142 0.364062 -0.472996
O5    O     O_2   0.637167 0.933973 0.601039 -0.469984
O6    O     O_2   0.362832 0.066026 0.398967 -0.469989
O7    O     O_2   0.440627 0.931810 0.316196 -0.440609
O8    O     O_2   0.559374 0.068191 0.683806 -0.440609
O9    O     O_2   0.563744 0.722049 0.727974 -0.521792
O10   O     O_2   0.436253 0.277948 0.272027 -0.521792
O11   O     O_2   0.427070 0.707132 0.275448 -0.489308
O12   O     O_R   0.608740 0.432070 0.500000 -0.542146
O13   O     O_2   0.572930 0.292885 0.724545 -0.489306
O14   O     O_R   0.608740 0.567930 0.500000 -0.470034
O15   O     O_R   0.391260 0.432070 0.500000 -0.470035
O16   O     O_R   0.500000 0.567920 0.376050 -0.462321
O17   O     O_R   0.500000 0.432080 0.623950 -0.462302
O18   O     O_R   0.500000 0.567920 0.623950 -0.490437
O19   O     O_R   0.500000 0.432080 0.376050 -0.490436
O20   O     O_2   0.946738 0.669917 0.491980 -0.462086

loop_
_geom_bond_atom_site_label_1
_geom_bond_atom_site_label_2
_ccdc_geom_bond_type
C21   C26   A    
C3    C42   S    
C6    C45   A    
C38   O7    D    
C1    O1    A    
Cu1   O14   S    
H2    N5    S    
C43   H13   S    
C7    C8    T    
C20   C30   A    
C25   C28   A    
C41   O10   D    
C26   C27   A    
C43   O13   D    
C23   C29   S    
C12   O14   A    
C39   O8    D    
C11   C14   T    
Cu2   O19   S    
C20   C25   A    
C10   O18   A    
C2    C41   S    
H18   N4    S    
C31   O20   D    
C35   O4    D    
C40   C48   S    
Cu2   N2    S    
C37   H6    S    
C16   C17   T    
C1    C28   S    
C26   N6    S    
H17   N3    S    
Cu1   O18   S    
C9    O19   A    
Cu2   O12   S    
C1    O15   A    
C40   H9    S    
C2    N2    A    
C19   C32   S    
C9    O16   A    
C2    C45   A    
C6    C47   A    
C30   C34   S    
C12   C27   S    
C5    C7    S    
C12   O12   A    
C33   O3    D    
C6    C8    S    
C10   O17   A    
H16   N3    S    
C21   C29   A    
C25   N5    S    
C40   O9    D    
C3    N1    A    
C38   H7    S    
C36   O5    D    
C23   C34   T    
H19   N4    S    
C18   C29   A    
C9    C11   S    
C42   H11   S    
H4    N6    S    
C20   C33   S    
C5    C44   A    
C22   C27   A    
C13   C15   T    
C42   O11   D    
C14   C16   S    
C37   O6    D    
C36   C44   S    
H3    N6    S    
Cu1   O16   S    
C37   C45   S    
C4    N2    A    
C39   C47   S    
C15   C17   S    
C18   C22   A    
C24   C28   A    
C41   H10   S    
C31   H1    S    
C10   C13   S    
Cu2   O17   S    
C21   C35   S    
C4    C43   S    
C5    C46   A    
C3    C46   A    
C19   C24   A    
C32   H12   S    
C36   H5    S    
C39   H8    S    
C24   N4    S    
C33   H14   S    
Cu1   O1    S    
C38   C46   S    
C32   O2    D    
Cu2   O15   S    
Cu1   Cu2   S    
Cu1   N1    S    
H20   N5    S    
C35   H15   S    
C18   C31   S    
C48   N1    A    
C22   N3    S    
C19   C30   A    
C44   C48   A    
C4    C47   A    
