data_mof_unit_pretest_84.cif
_audit_creation_date              2012-12-10T16:44:38-0500
_audit_creation_method            fapswitch 2.2
_symmetry_space_group_name_H-M    P1
_symmetry_Int_Tables_number       1
_space_group_crystal_system       triclinic
_cell_length_a                    15.05661
_cell_length_b                    8.684982
_cell_length_c                    7.445672
_cell_angle_alpha                 102.856629
_cell_angle_beta                  94.572062
_cell_angle_gamma                 92.556157
_cell_volume                      944.265195407

loop_
_atom_site_label
_atom_site_type_symbol
_atom_type_description
_atom_site_fract_x
_atom_site_fract_y
_atom_site_fract_z
_atom_type_partial_charge
C1    C     C_R   0.497289 0.199720 0.453299 0.887954
C2    C     C_R   0.502711 0.800280 0.546701 0.887953
C3    C     C_R   0.032434 0.387578 0.169438 -0.146546
C4    C     C_R   0.967565 0.612422 0.830562 -0.146546
C5    C     C_2   0.495979 0.031889 0.426945 -0.367573
C6    C     C_2   0.504021 0.968111 0.573055 -0.367573
C7    C     C_R   0.328728 0.499250 0.501612 0.804079
C8    C     C_R   0.671272 0.500750 0.498388 0.804079
C9    C     C_R   0.821964 0.552503 0.662887 -0.172583
C10   C     C_R   0.178036 0.447497 0.337113 -0.172583
C11   C     C_R   0.767983 0.500627 0.496545 -0.069164
C12   C     C_R   0.232017 0.499373 0.503454 -0.069164
C13   C     C_R   0.806280 0.447260 0.330599 -0.245040
C14   C     C_R   0.193719 0.552740 0.669400 -0.245040
C15   C     C_R   0.899083 0.440310 0.329682 0.014715
C16   C     C_R   0.100916 0.559690 0.670318 0.014715
C17   C     C_R   0.953335 0.498521 0.498470 0.012679
C18   C     C_R   0.046665 0.501479 0.501530 0.012679
C19   C     C_R   0.914245 0.553998 0.664657 0.060015
C20   C     C_R   0.085755 0.446002 0.335343 0.060015
C21   C     C_R   0.939711 0.380335 0.164923 0.364167
C22   C     C_R   0.060289 0.619665 0.835077 0.364167
Cu1   Cu    Cu3+1 0.510010 0.517380 0.684380 0.952000
Cu2   Cu    Cu3+1 0.489990 0.482620 0.315620 0.952000
H1    H     H_    0.792207 0.594859 0.791306 0.154442
H2    H     H_    0.207793 0.405141 0.208694 0.154442
H3    H     H_    0.762842 0.412022 0.203760 0.162939
H4    H     H_    0.237158 0.587978 0.796240 0.162939
H5    H     H_    0.062949 0.343419 0.042400 0.169583
H6    H     H_    0.937051 0.656582 0.957600 0.169583
H7    H     H_    0.488387 0.960445 0.286061 0.178838
H8    H     H_    0.511613 0.039555 0.713939 0.178838
H9    H     H_    0.429973 0.377681 0.948157 0.224653
H10   H     H_    0.570027 0.622319 0.051843 0.224653
N1    N     N_2   0.474890 0.456420 0.038520 -0.218923
N2    N     N_2   0.525110 0.543580 0.961480 -0.218923
O1    O     O_R   0.506510 0.286130 0.619770 -0.582242
O2    O     O_R   0.493490 0.713870 0.380230 -0.582241
O3    O     O_R   0.489600 0.256770 0.308360 -0.587833
O4    O     O_R   0.510400 0.743230 0.691640 -0.587832
O5    O     O_R   0.378710 0.514640 0.655720 -0.594266
O6    O     O_R   0.621290 0.485360 0.344280 -0.594267
O7    O     O_R   0.361800 0.485290 0.344300 -0.585235
O8    O     O_R   0.638200 0.514710 0.655700 -0.585235
O9    O     O_3   0.892191 0.313790 0.997291 -0.737119
H11   H     H_    0.837700 0.256050 0.020261 0.320464
O10   O     O_3   0.107809 0.686210 0.002708 -0.737119
H12   H     H_    0.162300 0.743951 0.979739 0.320464

loop_
_geom_bond_atom_site_label_1
_geom_bond_atom_site_label_2
_ccdc_geom_bond_type
C6    H8    S    
Cu1   Cu2   S    
C15   C17   A    
C7    O7    A    
C4    C22   A    
C2    O2    A    
Cu2   O2    S    
N1    N2    D    
Cu1   O5    S    
C1    O1    A    
C9    C11   A    
C14   H4    S    
C10   H2    S    
C7    O5    A    
C17   C18   A    
C9    H1    S    
C3    C20   A    
O9    H11   S    
C11   C13   A    
C2    C6    S    
C10   C12   A    
C8    C11   S    
C1    C5    S    
H9    N1    S    
H10   N2    S    
C12   C14   A    
C22   O10   S    
C21   O9    S    
C13   C15   A    
C5    C6    D    
C14   C16   A    
C7    C12   S    
C3    C21   A    
Cu2   N1    S    
C1    O3    A    
C8    O6    A    
Cu1   O4    S    
O10   H12   S    
C2    O4    A    
C15   C21   A    
Cu2   O3    S    
Cu2   O6    S    
C18   C20   A    
C16   C18   A    
Cu1   N2    S    
C3    H5    S    
Cu2   O7    S    
C13   H3    S    
C16   C22   A    
C17   C19   A    
Cu1   O1    S    
C4    C19   A    
C9    C19   A    
C4    H6    S    
Cu1   O8    S    
C8    O8    A    
C10   C20   A    
C5    H7    S    
