data_mof_unit_pretest_423.cif
_audit_creation_date              2012-12-10T17:08:47-0500
_audit_creation_method            fapswitch 2.2
_symmetry_space_group_name_H-M    P1
_symmetry_Int_Tables_number       1
_space_group_crystal_system       triclinic
_cell_length_a                    27.796318
_cell_length_b                    11.030838
_cell_length_c                    9.806878
_cell_angle_alpha                 111.893919
_cell_angle_beta                  97.789585
_cell_angle_gamma                 91.037497
_cell_volume                      2756.61549932

loop_
_atom_site_label
_atom_site_type_symbol
_atom_type_description
_atom_site_fract_x
_atom_site_fract_y
_atom_site_fract_z
_atom_type_partial_charge
C1    C     C_R   0.496160 0.253449 0.439382 0.744134
C2    C     C_R   0.503840 0.746553 0.560619 0.742997
C3    C     C_R   0.101885 0.512475 0.506499 -0.133843
C4    C     C_R   0.898025 0.503174 0.483664 -0.133345
C5    C     C_R   0.125467 0.396749 0.489868 0.013007
C6    C     C_R   0.876399 0.619907 0.556486 0.003095
C7    C     C_R   0.098011 0.281623 0.467593 -0.152920
C8    C     C_R   0.905665 0.736681 0.631468 -0.155266
C9    C     C_R   0.129426 0.628546 0.529506 -0.209187
C10   C     C_R   0.868683 0.385426 0.408800 -0.202008
C11   C     C_R   0.354438 0.503898 0.506431 -0.411589
C12   C     C_R   0.645703 0.498935 0.493799 -0.412137
C13   C     C_R   0.971276 0.385724 0.427802 -0.114886
C14   C     C_R   0.027565 0.629875 0.531794 -0.114679
C15   C     C_R   0.977483 0.626462 0.546837 0.141076
C16   C     C_R   0.022862 0.390091 0.456346 0.147283
C17   C     C_R   0.948975 0.504948 0.485360 0.007118
C18   C     C_R   0.050683 0.511037 0.497914 0.007092
C19   C     C_R   0.941572 0.267659 0.342972 0.307730
C20   C     C_R   0.054903 0.746398 0.547491 0.309569
C21   C     C_R   0.890298 0.270407 0.331642 0.550776
C22   C     C_R   0.105496 0.742517 0.541428 0.545673
C23   C     C_R   0.407392 0.500869 0.501965 0.917745
C24   C     C_R   0.592652 0.499598 0.498103 0.913276
C25   C     C_R   0.047563 0.278743 0.451789 -0.142289
C26   C     C_R   0.955403 0.739472 0.627557 -0.136823
C27   C     C_2   0.494544 0.112603 0.402869 0.267566
C28   C     C_2   0.505457 0.887404 0.597133 0.269131
C29   C     C_2   0.498501 0.069230 0.514029 -0.206432
C30   C     C_2   0.501390 0.930759 0.485952 -0.206437
C31   C     C_2   0.504155 0.510767 0.081598 -0.022552
C32   C     C_2   0.495870 0.489167 0.918387 -0.029379
C33   C     C_R   0.176139 0.398984 0.496234 0.605659
C34   C     C_R   0.825938 0.616611 0.555129 0.646791
C35   C     C_R   0.180339 0.625757 0.534248 0.713015
C36   C     C_R   0.818003 0.387036 0.410233 0.673052
C37   C     C_R   0.272326 0.513944 0.389836 0.619042
C38   C     C_R   0.728878 0.514695 0.618617 0.623663
C39   C     C_R   0.322229 0.510993 0.385685 0.457653
C40   C     C_R   0.678923 0.514416 0.622691 0.457555
C41   C     C_R   0.335290 0.500179 0.631128 0.544828
C42   C     C_R   0.663988 0.483067 0.361065 0.544447
C43   C     C_R   0.285268 0.503073 0.634104 -0.241005
C44   C     C_R   0.714019 0.483593 0.358307 -0.242426
C45   C     C_R   0.253733 0.510068 0.513865 0.024090
C46   C     C_R   0.746549 0.499766 0.486739 0.023443
Cu1   Cu    Cu3+1 0.508480 0.521810 0.644910 1.019227
Cu2   Cu    Cu3+1 0.491520 0.478190 0.355090 1.019862
H1    H     H_    0.467628 0.416084 0.844699 0.190731
H2    H     H_    0.532420 0.583786 0.155272 0.183350
H3    H     H_    0.547707 0.623587 0.935286 0.224671
H4    H     H_    0.452272 0.376473 0.064726 0.223334
H5    H     H_    0.270885 0.499806 0.730029 0.227340
H6    H     H_    0.727662 0.472000 0.256155 0.228661
H7    H     H_    0.115337 0.192902 0.461349 0.199082
H8    H     H_    0.890314 0.826507 0.694117 0.196387
H9    H     H_    0.028340 0.190267 0.443497 0.169672
H10   H     H_    0.976637 0.829397 0.695450 0.178219
H11   H     H_    0.500122 0.862497 0.371773 0.192785
H12   H     H_    0.499683 0.137472 0.628179 0.193316
N1    N     N_R   0.202315 0.512025 0.516679 -0.435026
N2    N     N_R   0.797968 0.501262 0.483331 -0.433891
N3    N     N_2   0.478780 0.445430 0.137360 -0.270284
N4    N     N_2   0.521220 0.554570 0.862640 -0.272347
O1    O     O_R   0.504520 0.332330 0.577400 -0.606607
O2    O     O_R   0.495480 0.667670 0.422600 -0.606084
O3    O     O_R   0.490210 0.295500 0.332650 -0.565680
O4    O     O_R   0.509790 0.704500 0.667350 -0.565548
O5    O     O_R   0.437420 0.518430 0.622370 -0.532282
O6    O     O_R   0.562580 0.481570 0.377630 -0.530146
O7    O     O_R   0.423110 0.481600 0.377610 -0.515334
O8    O     O_R   0.576890 0.518400 0.622390 -0.513253
O9    O     O_2   0.199054 0.288656 0.479684 -0.496395
O10   O     O_2   0.804861 0.727831 0.624390 -0.490703
O11   O     O_2   0.788946 0.275361 0.341915 -0.424992
O12   O     O_2   0.207908 0.735574 0.557355 -0.415705
F1    F     F_    0.364591 0.492221 0.749600 -0.621762
F2    F     F_    0.633828 0.467546 0.233723 -0.622084
O13   O     O_3   0.505865 0.972621 0.743083 -0.583633
C47   C     C_3   0.554652 0.006464 0.813836 0.021545
H13   H     H_    0.577187 0.041059 0.747690 0.165261
H14   H     H_    0.570913 0.921069 0.831666 0.176203
C48   C     C_3   0.555965 0.117476 0.964457 -0.643324
H15   H     H_    0.534919 0.086072 0.035543 0.266862
H16   H     H_    0.594201 0.145503 0.021003 0.234017
H17   H     H_    0.540008 0.204182 0.949620 0.243252
O14   O     O_3   0.494283 0.027421 0.256985 -0.583405
C49   C     C_3   0.445547 0.993497 0.185778 0.027956
H18   H     H_    0.429324 0.078852 0.167750 0.172563
H19   H     H_    0.422912 0.958881 0.251678 0.167079
C50   C     C_3   0.444388 0.882475 0.035253 -0.657293
H20   H     H_    0.460300 0.795799 0.050295 0.242930
H21   H     H_    0.406195 0.854412 0.978320 0.225532
H22   H     H_    0.465554 0.913888 0.964427 0.268968
F3    F     F_    0.663414 0.529069 0.753035 -0.574668
F4    F     F_    0.338775 0.516502 0.263886 -0.574521
F5    F     F_    0.760298 0.528871 0.743164 -0.580587
F6    F     F_    0.241797 0.519841 0.272454 -0.580359
F7    F     F_    0.861323 0.163036 0.239058 -0.619588
F8    F     F_    0.130944 0.847574 0.538776 -0.624348
O15   O     O_3   0.962952 0.160057 0.250582 -0.574859
C51   C     C_3   0.945418 0.039719 0.253627 0.117470
H23   H     H_    0.913357 0.997138 0.165807 0.242028
H24   H     H_    0.935646 0.050485 0.363913 0.141972
C52   C     C_3   0.984078 0.941095 0.216633 -0.753459
H25   H     H_    0.016507 0.972496 0.304343 0.255317
H26   H     H_    0.969025 0.844254 0.208480 0.233756
H27   H     H_    0.995304 0.930379 0.108471 0.252266
O16   O     O_3   0.030022 0.853168 0.539867 -0.585330
C53   C     C_3   0.052386 0.974774 0.644835 0.122276
H28   H     H_    0.078373 0.015165 0.593170 0.224918
H29   H     H_    0.071457 0.966762 0.748493 0.157475
C54   C     C_3   0.014128 0.073824 0.687795 -0.832190
H30   H     H_    0.990144 0.048657 0.756443 0.250069
H31   H     H_    0.032336 0.172943 0.753700 0.228300
H32   H     H_    0.991602 0.076383 0.586688 0.247731

loop_
_geom_bond_atom_site_label_1
_geom_bond_atom_site_label_2
_ccdc_geom_bond_type
O14   C49   S    
O15   C51   S    
C27   C29   D    
C8    C26   A    
C14   C18   A    
C7    H7    S    
C8    H8    S    
C24   O6    A    
C52   H26   S    
C25   H9    S    
C46   N2    S    
C19   C21   A    
C2    O4    A    
C38   F5    S    
C41   F1    S    
C21   F7    S    
C9    C22   A    
C32   H1    S    
C34   N2    A    
C3    C18   A    
C11   C23   S    
C28   O13   S    
C23   O5    A    
C53   H28   S    
Cu1   O5    S    
C12   C42   A    
C51   C52   S    
C43   H5    S    
C48   H15   S    
C5    C33   A    
C1    O1    A    
C29   H12   S    
C54   H32   S    
C31   H2    S    
C41   C43   A    
C42   C44   A    
C47   C48   S    
C36   N2    A    
C37   F6    S    
C44   C46   A    
C10   C21   A    
Cu1   O8    S    
C52   H27   S    
C35   O12   S    
C22   F8    S    
C13   C19   A    
C23   O7    A    
O13   C47   S    
C32   N4    D    
C4    C6    A    
Cu2   O6    S    
C50   H20   S    
C5    C7    A    
Cu2   N3    S    
C6    C8    A    
C3    C5    A    
C6    C34   A    
C12   C40   A    
C51   H24   S    
C29   C30   S    
C3    C9    A    
C36   O11   S    
C14   C20   A    
C50   H21   S    
C26   H10   S    
Cu1   Cu2   S    
C49   C50   S    
C30   H11   S    
C35   N1    A    
C16   C18   A    
C11   C39   A    
C43   C45   A    
C53   C54   S    
C34   O10   S    
C4    C17   A    
C47   H14   S    
C48   H16   S    
C20   C22   A    
C42   F2    S    
Cu2   O7    S    
C37   C45   A    
Cu1   O4    S    
Cu1   N4    S    
C24   O8    A    
C1    C27   S    
C54   H30   S    
C33   O9    S    
C16   C25   A    
C15   C17   A    
C31   C32   S    
H3    N4    S    
C49   H19   S    
C47   H13   S    
C2    O2    A    
H4    N3    S    
C10   C36   A    
C15   C26   A    
C31   N3    D    
C52   H25   S    
C12   C24   S    
C7    C25   A    
C13   C17   A    
C28   C30   D    
C37   C39   A    
O16   C53   S    
C27   O14   S    
C50   H22   S    
C38   C40   A    
C19   O15   S    
C45   N1    S    
C1    O3    A    
C11   C41   A    
Cu2   O3    S    
C51   H23   S    
C53   H29   S    
C39   F4    S    
C38   C46   A    
C20   O16   S    
C44   H6    S    
C48   H17   S    
C49   H18   S    
C33   N1    A    
C13   C16   A    
C9    C35   A    
C14   C15   A    
C2    C28   S    
C40   F3    S    
Cu2   O2    S    
C4    C10   A    
Cu1   O1    S    
C54   H31   S    
