data_mof_unit_pretest_253.cif
_audit_creation_date              2012-12-11T17:39:27-0500
_audit_creation_method            fapswitch 2.2
_symmetry_space_group_name_H-M    P1
_symmetry_Int_Tables_number       1
_space_group_crystal_system       triclinic
_cell_length_a                    14.898216
_cell_length_b                    15.19438
_cell_length_c                    15.208522
_cell_angle_alpha                 109.462285
_cell_angle_beta                  109.509091
_cell_angle_gamma                 109.806759
_cell_volume                      2638.21341804

loop_
_atom_site_label
_atom_site_type_symbol
_atom_type_description
_atom_site_fract_x
_atom_site_fract_y
_atom_site_fract_z
_atom_type_partial_charge
C1    C     C_R   0.906356 0.966705 0.719601 -0.139445
C2    C     C_R   0.905357 0.696782 0.492147 -0.142757
C3    C     C_R   0.699539 0.795927 0.202628 0.687116
C4    C     C_R   0.089447 0.313797 0.547124 0.693041
C5    C     C_R   0.254969 0.940589 0.529343 -0.074108
C6    C     C_R   0.632961 0.705392 0.199153 -0.037184
C7    C     C_R   0.281798 0.956680 0.453436 0.102546
C8    C     C_R   0.996031 0.692467 0.546452 0.055325
C9    C     C_R   0.996953 0.035709 0.188611 0.024446
C10   C     C_R   0.515891 0.603784 0.429194 -0.127250
C11   C     C_R   0.486414 0.668166 0.392172 -0.161683
C12   C     C_R   0.995505 0.321215 0.525484 -0.144757
C13   C     C_R   0.474192 0.748925 0.456933 0.097229
C14   C     C_R   0.490599 0.763127 0.558487 -0.131510
C15   C     C_R   0.518522 0.697559 0.594295 -0.070334
C16   C     C_R   0.281550 0.220957 0.811124 -0.102873
C17   C     C_R   0.531499 0.618197 0.529864 -0.107587
C18   C     C_R   0.352937 0.828165 0.419061 0.444154
C19   C     C_R   0.338788 0.910810 0.405033 -0.016582
C20   C     C_R   0.387906 0.952402 0.351701 -0.055718
C21   C     C_R   0.462801 0.926968 0.333798 -0.232106
C22   C     C_R   0.508011 0.881491 0.387637 0.033752
C23   C     C_R   0.326397 0.322369 0.821614 -0.076023
C24   C     C_R   0.444734 0.818959 0.419356 -0.137937
C25   C     C_R   0.290951 0.001735 0.226448 -0.167150
C26   C     C_R   0.277507 0.079945 0.205022 -0.162533
C27   C     C_R   0.352038 0.190204 0.280716 -0.112903
C28   C     C_R   0.692698 0.988162 0.401359 -0.119190
C29   C     C_R   0.442213 0.222250 0.376710 -0.132150
C30   C     C_R   0.455604 0.144173 0.399013 -0.160878
C31   C     C_R   0.377795 0.033856 0.325212 0.151999
C32   C     C_R   0.832804 0.180771 0.173867 -0.230192
C33   C     C_R   0.898736 0.272646 0.276792 -0.117836
C34   C     C_R   0.627331 0.922430 0.427420 0.084778
C35   C     C_R   0.849681 0.312889 0.331482 0.107818
C36   C     C_R   0.733989 0.260912 0.281451 -0.386281
C37   C     C_R   0.667400 0.167404 0.178203 0.585105
C38   C     C_R   0.717785 0.127983 0.125149 -0.085788
C39   C     C_R   0.918831 0.502692 0.451662 -0.243766
C40   C     C_R   0.281562 0.311186 0.720551 -0.153135
C41   C     C_R   0.989648 0.598912 0.550487 0.060773
C42   C     C_R   0.058004 0.603955 0.644148 0.000379
C43   C     C_R   0.057651 0.509712 0.633944 -0.176167
C44   C     C_R   0.989759 0.414553 0.533457 0.125705
C45   C     C_R   0.694092 0.703309 0.289759 -0.230294
C46   C     C_R   0.918949 0.409958 0.441187 0.047029
C47   C     C_R   0.240604 0.740968 0.814431 -0.183893
C48   C     C_R   0.307018 0.836770 0.914514 -0.058824
C49   C     C_R   0.261768 0.896750 0.953007 -0.090626
C50   C     C_R   0.149784 0.860646 0.891992 -0.153720
C51   C     C_R   0.083034 0.764938 0.791839 -0.122034
C52   C     C_R   0.695790 0.902869 0.495195 -0.144472
C53   C     C_R   0.128102 0.704610 0.751625 0.110449
C54   C     C_2   0.391365 0.510487 0.931258 -0.291942
C55   C     C_2   0.405362 0.425261 0.921397 0.526643
C56   C     C_R   0.250566 0.029167 0.437464 -0.163282
C57   C     C_2   0.474792 0.618567 0.022143 -0.062807
C58   C     C_2   0.515886 0.633366 0.121647 -0.057985
C59   C     C_R   0.377466 0.296426 0.114034 -0.109784
C60   C     C_R   0.272330 0.208011 0.063564 -0.220291
C61   C     C_R   0.180201 0.221503 0.045930 0.134807
C62   C     C_R   0.195397 0.325779 0.079317 -0.131344
C63   C     C_R   0.301431 0.414803 0.131507 -0.123143
C64   C     C_R   0.905087 0.218919 0.465202 -0.218097
C65   C     C_R   0.392474 0.399887 0.150868 -0.057532
C66   C     C_R   0.069080 0.132204 0.108393 -0.271354
C67   C     C_R   0.090110 0.786864 0.584880 -0.085119
C68   C     C_R   0.990903 0.038863 0.094737 0.042652
C69   C     C_R   0.911277 0.947461 0.991916 0.102335
C70   C     C_R   0.912224 0.952475 0.904093 -0.174637
C71   C     C_R   0.995772 0.042588 0.917482 0.029729
C72   C     C_R   0.077301 0.132799 0.020898 0.018563
C73   C     C_R   0.871894 0.782864 0.010955 -0.224804
C74   C     C_R   0.797700 0.683714 0.992637 -0.088558
C75   C     C_R   0.684017 0.642427 0.934731 -0.183415
C76   C     C_R   0.090831 0.048189 0.811190 -0.132370
C77   C     C_R   0.644283 0.700287 0.895143 -0.257238
C78   C     C_R   0.906832 0.988380 0.196558 -0.083063
C79   C     C_R   0.718065 0.800042 0.914174 0.756754
C80   C     C_R   0.832598 0.842208 0.972649 -0.104004
C81   C     C_R   0.999194 0.031226 0.821860 0.069008
C82   C     C_R   0.091055 0.082289 0.286203 -0.143996
F1    F     F_    0.663900 0.844315 0.149960 -0.753035
F2    F     F_    0.189809 0.393736 0.579424 -0.744575
F3    F     F_    0.678242 0.856618 0.877706 -0.738930
H1    H     H_    0.820743 0.933310 0.698487 0.116903
H2    H     H_    0.475741 0.657203 0.314649 0.107918
H3    H     H_    0.482099 0.825200 0.609941 0.146068
H4    H     H_    0.530260 0.708349 0.672063 0.164603
H5    H     H_    0.498682 0.960858 0.293584 0.149271
H6    H     H_    0.231496 0.916754 0.168507 0.125250
H7    H     H_    0.206859 0.053852 0.131069 0.130206
H8    H     H_    0.339136 0.251161 0.266698 0.134423
H9    H     H_    0.500179 0.307412 0.434718 0.113694
H10   H     H_    0.524224 0.169292 0.474735 0.120023
H11   H     H_    0.667595 0.056317 0.045711 0.168660
H12   H     H_    0.254613 0.059941 0.384896 0.142017
H13   H     H_    0.307228 0.201248 0.873574 0.107565
H14   H     H_    0.870842 0.150319 0.131702 0.162627
H15   H     H_    0.987796 0.312301 0.313973 0.138749
H16   H     H_    0.696157 0.292207 0.323600 0.130770
H17   H     H_    0.868244 0.501222 0.379994 0.146073
H18   H     H_    0.109521 0.509822 0.703880 0.134039
H19   H     H_    0.277275 0.696097 0.785229 0.140853
H20   H     H_    0.393754 0.864772 0.962058 0.160154
H21   H     H_    0.313551 0.971141 0.030128 0.142747
H22   H     H_    0.114691 0.906836 0.922244 0.115764
H23   H     H_    0.174548 0.812746 0.638641 0.108994
H24   H     H_    0.665193 0.009201 0.340354 0.124814
H25   H     H_    0.996327 0.737950 0.745693 0.110998
H26   H     H_    0.324686 0.503090 0.865724 0.127336
H27   H     H_    0.516975 0.676015 0.002698 0.186301
H28   H     H_    0.468762 0.575631 0.137000 0.134084
H29   H     H_    0.475586 0.467736 0.196281 0.104322
H30   H     H_    0.447913 0.285083 0.129073 0.126282
H31   H     H_    0.263869 0.129181 0.042063 0.114512
H32   H     H_    0.126399 0.338607 0.070331 0.117207
H33   H     H_    0.312952 0.495302 0.159879 0.108325
H34   H     H_    0.821744 0.959328 0.141792 0.175159
H35   H     H_    0.309648 0.372945 0.700521 0.185473
H36   H     H_    0.129826 0.201552 0.188608 0.142958
H37   H     H_    0.853128 0.880422 0.825384 0.129171
H38   H     H_    0.959830 0.813752 0.055343 0.145271
H39   H     H_    0.828337 0.638725 0.023082 0.132556
H40   H     H_    0.626690 0.565608 0.920527 0.163978
H41   H     H_    0.556184 0.668030 0.850175 0.145609
H42   H     H_    0.674509 0.849087 0.525295 0.126978
H43   H     H_    0.818765 0.195123 0.430685 0.149856
H44   H     H_    0.173348 0.078565 0.870005 0.107276
H45   H     H_    0.174235 0.139861 0.312611 0.124038
H46   H     H_    0.661418 0.650741 0.318203 0.128071
H47   H     H_    0.279297 0.691508 0.413692 0.330070
H48   H     H_    0.531204 0.150504 0.175539 0.307839
H49   H     H_    0.492935 0.366303 0.976821 0.309872
H50   H     H_    0.819509 0.640687 0.460682 0.099249
H51   H     H_    0.270389 0.892590 0.564458 0.155622
H52   H     H_    0.553920 0.568010 0.558055 0.108086
H53   H     H_    0.527432 0.543041 0.380514 0.102759
N1    N     N_R   0.941940 0.944580 0.650780 -0.043719
N2    N     N_R   0.204460 0.150250 0.707090 -0.040904
N3    N     N_R   0.794270 0.003240 0.446420 -0.043404
N4    N     N_R   0.204920 0.207570 0.650770 -0.041511
N5    N     N_R   0.793810 0.945920 0.502740 -0.045977
N6    N     N_R   0.943620 0.152590 0.446420 -0.068234
N7    N     N_R   0.055110 0.000900 0.707100 -0.043102
N8    N     N_R   0.795080 0.792430 0.349230 -0.070246
N9    N     N_R   0.206190 0.054080 0.497260 -0.045729
N10   N     N_R   0.056380 0.847410 0.553580 -0.047494
N11   N     N_R   0.944890 0.999100 0.292900 -0.044690
N12   N     N_R   0.058060 0.055420 0.349220 -0.046962
N13   N     N_R   0.943200 0.791100 0.497260 -0.034938
N14   N     N_R   0.795540 0.849750 0.292910 -0.102562
N15   N     N_R   0.205730 0.996760 0.553580 -0.060206
N16   N     N_R   0.056800 0.208900 0.502740 -0.104476
Ni1   Ni    Ni4+2 0.869690 0.869690 0.500000 0.202720
Ni2   Ni    Ni4+2 0.130310 0.130310 0.500000 0.239914
Ni3   Ni    Ni4+2 0.129250 0.998840 0.629170 0.213911
Ni4   Ni    Ni4+2 0.870750 0.001160 0.370830 0.255101
O1    O     O_3   0.277821 0.759810 0.433634 -0.783874
O2    O     O_3   0.553666 0.113124 0.127488 -0.789092
O3    O     O_3   0.494474 0.436225 0.001855 -0.767109

loop_
_geom_bond_atom_site_label_1
_geom_bond_atom_site_label_2
_ccdc_geom_bond_type
C25   C31   A    
C5    H51   S    
C74   H39   S    
C63   C65   A    
C41   C42   A    
C6    C45   A    
C40   N4    A    
C27   C29   A    
C65   H29   S    
C6    C58   S    
C4    N16   A    
C35   C36   A    
N10   N13   A    
C3    C6    A    
C39   C41   A    
C9    C78   A    
C3    N14   A    
C37   C38   A    
C18   C24   A    
C7    C56   A    
C37   O2    S    
C36   C37   A    
N2    N4    A    
N3    N5    A    
C42   C53   S    
C29   H9    S    
C12   C64   A    
C67   H23   S    
C57   H27   S    
C66   C68   A    
C10   C17   A    
C1    C81   A    
C23   C40   A    
C1    H1    S    
C30   H10   S    
C18   C19   A    
C73   C74   A    
C62   H32   S    
C18   O1    S    
C66   C72   A    
N8    Ni1   S    
C47   C48   A    
C11   H2    S    
C68   C69   A    
C64   H43   S    
C58   H28   S    
C70   C71   A    
C32   C38   A    
C4    C12   A    
C29   C30   A    
N11   Ni4   S    
N16   Ni2   S    
C61   C62   A    
C1    N1    A    
C9    C82   A    
C47   C53   A    
C28   C34   A    
C59   C60   A    
N12   Ni2   S    
C13   C14   A    
N15   Ni3   S    
C16   N2    A    
C56   H12   S    
C52   H42   S    
C44   C46   A    
C21   H5    S    
C77   C79   A    
C22   C34   S    
N14   Ni4   S    
C25   H6    S    
H47   O1    S    
C74   C75   A    
C45   N8    A    
C52   N5    A    
C8    C41   S    
C55   O3    S    
C5    C7    A    
C63   H33   S    
C64   N6    A    
C73   H38   S    
C25   C26   A    
C13   C24   S    
C36   H16   S    
C75   H40   S    
C43   C44   A    
C62   C63   A    
N2    Ni3   S    
C15   H4    S    
N7    Ni3   S    
C76   H44   S    
C70   H37   S    
N5    Ni1   S    
C48   H20   S    
C4    F2    S    
N1    Ni1   S    
C50   C51   A    
C26   C27   A    
C66   H36   S    
N9    Ni2   S    
C75   C77   A    
C82   N12   A    
C39   C46   A    
N8    N14   A    
C61   C72   S    
C48   C49   A    
C40   H35   S    
C76   N7    A    
C45   H46   S    
C51   H25   S    
N13   Ni1   S    
C3    F1    S    
C50   H22   S    
C22   C24   A    
C60   H31   S    
C82   H45   S    
C42   C43   A    
N6    Ni4   S    
C79   F3    S    
C39   H17   S    
C2    N13   A    
C15   C17   A    
C54   C55   D    
N1    N7    A    
C47   H19   S    
C34   C52   A    
C2    C8    A    
C76   C81   A    
C32   H14   S    
C23   C55   S    
C49   H21   S    
C28   H24   S    
C16   C23   A    
C7    C19   S    
C2    H50   S    
H49   O3    S    
H48   O2    S    
N4    Ni2   S    
C32   C33   A    
C33   H15   S    
C19   C20   A    
C78   H34   S    
C9    C68   S    
C14   H3    S    
C71   C72   A    
C12   C44   S    
N11   N12   A    
C59   C65   A    
C11   C13   A    
C16   H13   S    
C57   C58   D    
C30   C31   A    
C56   N9    A    
C5    N15   A    
C33   C35   A    
C73   C80   A    
C54   H26   S    
N10   Ni3   S    
N6    N16   A    
C69   C70   A    
N9    N15   A    
C43   H18   S    
C27   H8    S    
C10   C11   A    
C79   C80   A    
N3    Ni4   S    
C20   C21   A    
C8    C67   A    
C59   H30   S    
C49   C50   A    
C38   H11   S    
C67   N10   A    
C14   C15   A    
C60   C61   A    
C69   C80   S    
C17   H52   S    
C28   N3    A    
C10   H53   S    
C51   C53   A    
C21   C22   A    
C35   C46   S    
C26   H7    S    
C54   C57   S    
C77   H41   S    
C78   N11   A    
C71   C81   S    
C20   C31   S    
