data_mof_unit_pretest_640.cif
_audit_creation_date              2012-12-10T17:04:51-0500
_audit_creation_method            fapswitch 2.2
_symmetry_space_group_name_H-M    P1
_symmetry_Int_Tables_number       1
_space_group_crystal_system       triclinic
_cell_length_a                    13.82616
_cell_length_b                    10.994559
_cell_length_c                    9.96755
_cell_angle_alpha                 111.755929
_cell_angle_beta                  92.600201
_cell_angle_gamma                 93.167228
_cell_volume                      1401.57119115

loop_
_atom_site_label
_atom_site_type_symbol
_atom_type_description
_atom_site_fract_x
_atom_site_fract_y
_atom_site_fract_z
_atom_type_partial_charge
C1    C     C_R   0.491319 0.253933 0.440797 0.760151
C2    C     C_R   0.508011 0.746004 0.559253 0.741523
C3    C     C_R   0.319936 0.503873 0.524311 0.828458
C4    C     C_R   0.680067 0.496157 0.475710 0.820452
C5    C     C_1   0.781751 0.490959 0.458689 -0.092957
C6    C     C_1   0.218275 0.509375 0.541392 -0.108808
C7    C     C_2   0.971921 0.480464 0.437572 0.380265
C8    C     C_2   0.028146 0.520619 0.562578 0.382744
C9    C     C_2   0.521680 0.477503 0.062695 0.456077
C10   C     C_2   0.494612 0.479372 0.914759 0.479892
C11   C     C_1   0.132407 0.514567 0.553146 -0.059832
C12   C     C_1   0.867638 0.486109 0.446962 -0.061431
C13   C     C_2   0.476696 0.113163 0.407911 0.268001
C14   C     C_2   0.520702 0.886832 0.592424 0.265171
C15   C     C_2   0.513084 0.066320 0.504335 -0.194815
C16   C     C_2   0.485865 0.932855 0.494418 -0.217038
Cu1   Cu    Cu3+1 0.516510 0.521490 0.642840 1.081361
Cu2   Cu    Cu3+1 0.483490 0.478510 0.357160 1.079397
H1    H     H_    0.437662 0.868984 0.403387 0.191571
H2    H     H_    0.563088 0.129114 0.593625 0.191517
N1    N     N_2   0.458660 0.446210 0.142550 -0.040189
N2    N     N_2   0.541340 0.553790 0.857450 -0.031361
O1    O     O_R   0.508810 0.332170 0.576290 -0.563720
O2    O     O_R   0.491190 0.667830 0.423710 -0.581572
O3    O     O_R   0.480920 0.295870 0.335040 -0.565272
O4    O     O_R   0.519080 0.704130 0.664960 -0.536458
O5    O     O_R   0.378070 0.520740 0.637680 -0.555165
O6    O     O_R   0.621930 0.479260 0.362320 -0.535054
O7    O     O_R   0.350180 0.484440 0.396440 -0.501944
O8    O     O_R   0.649820 0.515560 0.603560 -0.530807
Cl1   Cl    Cl    0.613457 0.692665 0.965952 -0.507023
Cl2   Cl    Cl    0.337924 0.469957 0.108541 -0.485259
O9    O     O_3   0.983999 0.568999 0.694049 -0.590270
C17   C     C_3   0.049973 0.599087 0.816404 0.064673
H3    H     H_    0.106217 0.677460 0.821422 0.155470
H4    H     H_    0.085103 0.509671 0.814197 0.168892
C18   C     C_3   0.994923 0.649564 0.952689 -0.698811
H5    H     H_    0.937143 0.574463 0.950613 0.260830
H6    H     H_    0.045629 0.671329 0.049768 0.204373
H7    H     H_    0.961057 0.740838 0.959790 0.263990
O10   O     O_3   0.016066 0.432100 0.306112 -0.588780
C19   C     C_3   0.950356 0.404053 0.183859 0.078820
H8    H     H_    0.915731 0.494217 0.187481 0.176085
H9    H     H_    0.893686 0.325703 0.177444 0.164905
C20   C     C_3   0.005599 0.354793 0.047672 -0.699111
H10   H     H_    0.039129 0.262980 0.039284 0.262353
H11   H     H_    0.955101 0.334342 0.950660 0.204278
H12   H     H_    0.063661 0.430040 0.051058 0.264313
O11   O     O_3   0.583026 0.964436 0.709274 -0.556099
C21   C     C_3   0.527329 0.034022 0.824317 0.063388
H13   H     H_    0.489010 0.965199 0.865926 0.154470
H14   H     H_    0.472846 0.090020 0.790590 0.189016
C22   C     C_3   0.594787 0.131733 0.945598 -0.698910
H15   H     H_    0.636758 0.197489 0.903729 0.273121
H16   H     H_    0.551790 0.192241 0.034200 0.218223
H17   H     H_    0.646048 0.078831 0.989119 0.249749
O12   O     O_3   0.409404 0.038042 0.296545 -0.563027
C23   C     C_3   0.459008 0.963968 0.175974 0.078656
H18   H     H_    0.514560 0.906578 0.205122 0.184340
H19   H     H_    0.495222 0.029979 0.128999 0.153095
C24   C     C_3   0.385967 0.867514 0.062152 -0.721692
H20   H     H_    0.330905 0.921655 0.027344 0.241841
H21   H     H_    0.423466 0.807706 0.966296 0.228274
H22   H     H_    0.348935 0.800550 0.107465 0.263991
Cl3   Cl    Cl    0.406785 0.353991 0.807068 -0.590075
Cl4   Cl    Cl    0.647746 0.479415 0.099118 -0.618246

loop_
_geom_bond_atom_site_label_1
_geom_bond_atom_site_label_2
_ccdc_geom_bond_type
C24   H22   S    
C21   H14   S    
O11   C21   S    
C18   H5    S    
C17   C18   S    
O10   C19   S    
C22   H16   S    
Cu1   N2    S    
C13   C15   D    
C3    C6    S    
C24   H20   S    
C23   C24   S    
C3    O5    A    
Cu1   Cu2   S    
Cu2   O6    S    
C7    C8    D    
C2    O4    A    
Cu2   O7    S    
C20   H10   S    
C10   N2    D    
C1    O3    A    
Cu1   O8    S    
C9    N1    D    
O12   C23   S    
Cu1   O1    S    
Cu2   O3    S    
C19   H9    S    
C8    C11   S    
Cu2   O2    S    
Cu1   O4    S    
C9    C10   S    
C4    O6    A    
O9    C17   S    
C1    O1    A    
C18   H7    S    
C17   H4    S    
C8    O9    S    
C20   H11   S    
C2    O2    A    
C15   H2    S    
C2    C14   S    
N1    Cl2   S    
C14   C16   D    
C7    C12   S    
C10   Cl3   S    
C21   C22   S    
C1    C13   S    
C19   H8    S    
C16   H1    S    
C23   H19   S    
C15   C16   S    
Cu2   N1    S    
C13   O12   S    
C14   O11   S    
C5    C12   T    
C18   H6    S    
C17   H3    S    
N2    Cl1   S    
C22   H17   S    
C6    C11   T    
C3    O7    A    
C9    Cl4   S    
C20   H12   S    
C21   H13   S    
C23   H18   S    
C22   H15   S    
C24   H21   S    
C4    O8    A    
C7    O10   S    
C4    C5    S    
C19   C20   S    
Cu1   O5    S    
