data_mof_unit_pretest_791.cif
_audit_creation_date              2012-12-10T19:42:12-0500
_audit_creation_method            fapswitch 2.2
_symmetry_space_group_name_H-M    P1
_symmetry_Int_Tables_number       1
_space_group_crystal_system       triclinic
_cell_length_a                    10.813168
_cell_length_b                    10.909813
_cell_length_c                    9.795475
_cell_angle_alpha                 89.999133
_cell_angle_beta                  89.59206
_cell_angle_gamma                 88.879399
_cell_volume                      1155.31836629

loop_
_atom_site_label
_atom_site_type_symbol
_atom_type_description
_atom_site_fract_x
_atom_site_fract_y
_atom_site_fract_z
_atom_type_partial_charge
C1    C     C_R   0.502673 0.265588 0.500182 0.935727
C2    C     C_R   0.255239 0.109009 0.228444 -0.095304
C3    C     C_R   0.938363 0.401694 0.440383 -0.074808
C4    C     C_R   0.871696 0.498281 0.504242 -0.115287
C5    C     C_R   0.933168 0.591445 0.576062 -0.058327
C6    C     C_R   0.063132 0.595841 0.570821 -0.074479
C7    C     C_R   0.128915 0.502501 0.499501 -0.133642
C8    C     C_R   0.067537 0.406358 0.433652 -0.065061
C9    C     C_R   0.817882 0.791848 0.607917 -0.186454
C10   C     C_R   0.747310 0.872279 0.689773 -0.116716
C11   C     C_R   0.717835 0.840268 0.824403 0.228232
C12   C     C_R   0.263030 0.500764 0.500060 0.764852
C13   C     C_R   0.762359 0.729583 0.878662 -0.190292
C14   C     C_R   0.834201 0.649916 0.797968 -0.056422
C15   C     C_R   0.861019 0.679873 0.661621 0.162674
C16   C     C_2   0.525202 0.931997 0.390941 -0.185626
C17   C     C_2   0.494049 0.866645 0.501390 -0.342236
C18   C     C_2   0.521832 0.066331 0.389409 -0.100073
C19   C     C_2   0.512027 0.133285 0.503630 -0.270827
C20   C     C_2   0.572957 0.433276 0.923599 0.141136
C21   C     C_2   0.583203 0.446597 0.076859 -0.040853
C22   C     C_R   0.498990 0.734346 0.500002 0.833055
C23   C     C_R   0.737192 0.500297 0.500445 0.864855
C24   C     C_R   0.233588 0.219697 0.160003 -0.100061
C25   C     C_R   0.174166 0.317485 0.227447 -0.112956
C26   C     C_R   0.138343 0.305642 0.364803 0.072548
C27   C     C_R   0.161706 0.194805 0.433553 -0.165917
C28   C     C_R   0.219182 0.096534 0.365055 -0.138956
Cu1   Cu    Cu3+1 0.500020 0.500020 0.638630 1.025751
Cu2   Cu    Cu3+1 0.499980 0.499980 0.361370 0.977001
H1    H     H_    0.300404 0.033030 0.175836 0.156585
H2    H     H_    0.740372 0.704651 0.982877 0.128813
H3    H     H_    0.867255 0.563870 0.840733 0.138510
H4    H     H_    0.551959 0.886050 0.296557 0.199844
H5    H     H_    0.464186 0.908645 0.596374 0.172687
H6    H     H_    0.526792 0.110650 0.290322 0.223316
H7    H     H_    0.514077 0.092338 0.604189 0.160321
H8    H     H_    0.261727 0.229305 0.054337 0.148539
H9    H     H_    0.412906 0.513653 0.110930 0.196200
H10   H     H_    0.155395 0.402046 0.172780 0.134935
H11   H     H_    0.133316 0.184022 0.539058 0.154846
H12   H     H_    0.236083 0.010779 0.417951 0.149644
H13   H     H_    0.838224 0.816237 0.503085 0.141536
H14   H     H_    0.714055 0.958491 0.647964 0.177945
N1    N     N_2   0.498640 0.498660 0.846910 -0.245463
N2    N     N_2   0.498610 0.498630 0.153040 -0.335913
O1    O     O_R   0.500020 0.321960 0.617040 -0.558325
O2    O     O_R   0.499980 0.321920 0.382900 -0.535106
O3    O     O_R   0.319660 0.500030 0.617070 -0.548907
O4    O     O_R   0.319620 0.499990 0.382930 -0.584598
O5    O     O_R   0.500020 0.678080 0.617100 -0.562576
O6    O     O_R   0.499980 0.678040 0.382960 -0.582687
O7    O     O_R   0.680380 0.500010 0.617070 -0.566729
O8    O     O_R   0.680340 0.499970 0.382930 -0.597776
I1    I     I_    0.603386 0.956184 0.945207 -0.385558
I2    I     I_    0.692660 0.295951 0.833605 -0.255800
C29   C     C_2   0.453541 0.614252 0.896117 0.565112
H15   H     H_    0.504307 0.666000 0.971215 0.015228
O9    O     O_2   0.357280 0.657986 0.851811 -0.513235
C30   C     C_2   0.690585 0.387241 0.140882 0.564894
H16   H     H_    0.776625 0.436034 0.150015 -0.002392
O10   O     O_2   0.684935 0.280573 0.177298 -0.520663
C31   C     C_2   0.875722 0.290029 0.390744 0.405240
H17   H     H_    0.911510 0.240651 0.302318 0.107096
O11   O     O_2   0.787342 0.248540 0.452181 -0.526386
C32   C     C_2   0.131834 0.699766 0.632612 0.448539
H18   H     H_    0.221275 0.724789 0.591497 0.059530
O12   O     O_2   0.091499 0.757248 0.730662 -0.508783

loop_
_geom_bond_atom_site_label_1
_geom_bond_atom_site_label_2
_ccdc_geom_bond_type
C26   C27   A    
C12   O4    A    
C31   O11   D    
C1    O2    A    
C23   O7    A    
Cu1   Cu2   S    
C3    C31   S    
C8    C26   S    
C9    C10   A    
C27   H11   S    
C13   H2    S    
C32   O12   D    
C17   C22   S    
C6    C32   S    
C20   I2    S    
C14   H3    S    
C12   O3    A    
C9    C15   A    
C9    H13   S    
C7    C8    A    
C16   C18   S    
Cu1   O3    S    
C13   C14   A    
C24   C25   A    
C18   C19   D    
Cu2   O8    S    
N1    C29   S    
C29   H15   S    
C6    C7    A    
Cu1   O7    S    
Cu1   O1    S    
H9    N2    S    
C4    C5    A    
Cu2   O2    S    
C32   H18   S    
C22   O6    A    
C23   O8    A    
C2    H1    S    
C25   H10   S    
C2    C24   A    
C5    C6    A    
Cu2   O4    S    
C7    C12   S    
C5    C15   S    
C29   O9    D    
C10   C11   A    
C10   H14   S    
C24   H8    S    
C11   C13   A    
C17   H5    S    
C11   I1    S    
C20   C21   S    
C3    C8    A    
C21   C30   S    
C30   O10   D    
C21   N2    D    
Cu1   O5    S    
C20   N1    D    
C28   H12   S    
C27   C28   A    
C4    C23   S    
Cu2   O6    S    
C14   C15   A    
C16   C17   D    
C2    C28   A    
C19   H7    S    
C16   H4    S    
C25   C26   A    
C31   H17   S    
C1    C19   S    
C18   H6    S    
Cu2   N2    S    
C22   O5    A    
C1    O1    A    
C3    C4    A    
Cu1   N1    S    
C30   H16   S    
