data_mof_unit_pretest_1179.cif
_audit_creation_date              2012-12-11T15:49:49-0500
_audit_creation_method            fapswitch 2.2
_symmetry_space_group_name_H-M    P1
_symmetry_Int_Tables_number       1
_space_group_crystal_system       triclinic
_cell_length_a                    8.231684
_cell_length_b                    19.036793
_cell_length_c                    26.976221
_cell_angle_alpha                 95.205433
_cell_angle_beta                  92.782063
_cell_angle_gamma                 85.514872
_cell_volume                      4193.32083887

loop_
_atom_site_label
_atom_site_type_symbol
_atom_type_description
_atom_site_fract_x
_atom_site_fract_y
_atom_site_fract_z
_atom_type_partial_charge
Ba1   Ba    Ba6+2 0.854000 0.466860 0.523710 1.653184
Ba2   Ba    Ba6+2 0.335820 0.533080 0.476290 1.639829
C1    C     C_3   0.640220 0.212613 0.652628 -0.351362
C2    C     C_R   0.899548 0.567410 0.174796 0.573595
C3    C     C_2   0.759395 0.545115 0.271478 -0.085852
C4    C     C_3   0.203985 0.314635 0.657977 0.329068
C5    C     C_3   0.743188 0.570184 0.325780 -0.049398
C6    C     C_1   0.983662 0.490780 0.343152 0.036884
C7    C     C_2   0.024668 0.487857 0.295498 -0.107232
C8    C     C_2   0.904197 0.514090 0.255780 0.187646
C9    C     C_R   0.018026 0.504542 0.100588 -0.081192
C10   C     C_R   0.067496 0.447597 0.129085 -0.036269
C11   C     C_R   0.156104 0.388640 0.105997 -0.058390
C12   C     C_3   0.677554 0.284476 0.637386 0.379092
C13   C     C_R   0.932102 0.564404 0.123658 -0.023720
C14   C     C_2   0.851600 0.527515 0.360098 -0.293388
C15   C     C_2   0.355404 0.485513 0.640969 -0.279998
C16   C     C_3   0.251528 0.288807 0.709085 0.338821
C17   C     C_R   0.196536 0.443636 0.976111 0.021922
C18   C     C_R   0.023080 0.553287 0.968086 0.004595
C19   C     C_R   0.129993 0.498296 0.946700 0.049819
C20   C     C_R   0.307792 0.391341 0.953754 -0.094459
C21   C     C_R   0.349915 0.392126 0.904424 -0.021079
C22   C     C_R   0.283088 0.444935 0.874801 -0.028866
C23   C     C_3   0.515106 0.645012 0.626861 0.307971
C24   C     C_R   0.170994 0.498051 0.895599 -0.099060
C25   C     C_R   0.100290 0.550626 0.865416 -0.034312
C26   C     C_R   0.157163 0.551886 0.816318 0.581002
C27   C     C_R   0.326019 0.444990 0.824678 0.651958
C28   C     C_3   0.187438 0.317269 0.417233 0.314419
C29   C     C_2   0.462985 0.487116 0.729440 -0.108826
C30   C     C_3   0.505184 0.490618 0.675368 -0.059664
C31   C     C_1   0.213956 0.513488 0.656578 0.017006
C32   C     C_2   0.174983 0.511401 0.703573 -0.061573
C33   C     C_2   0.305586 0.497677 0.743444 0.228620
C34   C     C_3   0.506256 0.671717 0.681651 -0.384394
C35   C     C_R   0.150972 0.443376 0.026749 0.020509
C36   C     C_R   0.054857 0.501887 0.049007 0.052019
C37   C     C_R   0.995270 0.557974 0.020184 0.023147
C38   C     C_R   0.198010 0.386694 0.056247 -0.097479
C39   C     C_R   0.882151 0.621108 0.095357 -0.059323
C40   C     C_3   0.193109 0.237682 0.404281 -0.386267
C41   C     C_R   0.941989 0.600716 0.936306 -0.100816
C42   C     C_R   0.974925 0.599470 0.885617 0.073439
C43   C     C_R   0.912381 0.617984 0.044872 -0.105845
C44   C     C_R   0.394251 0.298388 0.520618 -0.280331
C45   C     C_3   0.058928 0.685734 0.338026 0.342531
C46   C     C_R   0.534658 0.275993 0.495227 0.067639
C47   C     C_R   0.586123 0.203927 0.489656 -0.118472
C48   C     C_R   0.496212 0.153649 0.509390 -0.013682
C49   C     C_R   0.351585 0.177234 0.534032 -0.142158
C50   C     C_R   0.299560 0.249444 0.538507 0.018608
C51   C     C_R   0.540414 0.033470 0.541758 -0.074804
C52   C     C_3   0.006083 0.680904 0.578938 0.308684
C53   C     C_R   0.591166 0.961407 0.535599 -0.074892
C54   C     C_R   0.652872 0.930648 0.490194 0.059245
C55   C     C_R   0.664829 0.974199 0.451366 -0.076698
C56   C     C_3   0.069092 0.707244 0.285445 -0.337491
C57   C     C_R   0.614188 0.046394 0.457557 -0.076583
C58   C     C_R   0.550680 0.076889 0.502789 0.060870
C59   C     C_R   0.844028 0.826971 0.458670 -0.134065
C60   C     C_R   0.890325 0.754032 0.454876 0.015794
C61   C     C_R   0.655163 0.732743 0.499851 0.045720
C62   C     C_R   0.607681 0.805058 0.504054 -0.117254
C63   C     C_R   0.700842 0.853243 0.483290 -0.012568
C64   C     C_3   0.986920 0.760642 0.591156 -0.383221
C65   C     C_R   0.791533 0.707366 0.473519 -0.285329
C66   C     C_3   0.671928 0.382132 0.375989 0.300497
C67   C     C_3   0.521056 0.721961 0.359334 0.369258
C68   C     C_3   0.671653 0.364770 0.319844 -0.359413
C69   C     C_3   0.864268 0.648159 0.854575 -0.155976
C70   C     C_3   0.750590 0.606251 0.818564 -0.378782
C71   C     C_3   0.483178 0.792718 0.337675 -0.363416
C72   C     C_R   0.026076 0.450424 0.179872 0.598932
H1    H     H_    0.810260 0.284461 0.632840 0.130992
H2    H     H_    0.794875 0.396020 0.389571 0.010915
H3    H     H_    0.582346 0.427804 0.384285 0.080883
H4    H     H_    0.702778 0.170112 0.627938 0.088913
H5    H     H_    0.765592 0.321156 0.310316 0.133303
H6    H     H_    0.698730 0.411782 0.301264 0.068497
H7    H     H_    0.549921 0.348470 0.305832 0.135005
H8    H     H_    0.611249 0.291369 0.601220 -0.006499
H9    H     H_    0.507234 0.206674 0.648580 0.071787
H10   H     H_    0.390617 0.632975 0.612695 0.030940
H11   H     H_    0.598850 0.596349 0.623289 0.033406
H12   H     H_    0.269467 0.222678 0.371607 0.129909
H13   H     H_    0.431467 0.722908 0.685580 0.140422
H14   H     H_    0.448886 0.633341 0.702525 0.071050
H15   H     H_    0.630833 0.679274 0.697968 0.121417
H16   H     H_    0.681973 0.206451 0.691810 0.190204
H17   H     H_    0.352464 0.319208 0.726233 0.069789
H18   H     H_    0.130197 0.634045 0.340717 0.083567
H19   H     H_    0.928933 0.680370 0.344873 -0.055315
H20   H     H_    0.193522 0.721928 0.278919 0.149668
H21   H     H_    0.041254 0.662148 0.258405 0.126320
H22   H     H_    0.980386 0.752986 0.279352 0.114662
H23   H     H_    0.245936 0.209431 0.436048 0.060550
H24   H     H_    0.655937 0.711789 0.361213 -0.071248
H25   H     H_    0.475341 0.726085 0.397651 0.079159
H26   H     H_    0.545585 0.834465 0.361034 0.066733
H27   H     H_    0.350030 0.807267 0.336858 0.150808
H28   H     H_    0.135245 0.367135 0.662645 0.080974
H29   H     H_    0.527085 0.789761 0.299205 0.120282
H30   H     H_    0.146948 0.468274 0.285409 0.140246
H31   H     H_    0.194951 0.343517 0.126552 0.123286
H32   H     H_    0.561796 0.480884 0.757187 0.102856
H33   H     H_    0.436705 0.350774 0.889520 0.137292
H34   H     H_    0.067831 0.221116 0.395347 0.125812
H35   H     H_    0.368169 0.349671 0.973843 0.073816
H36   H     H_    0.264653 0.338967 0.041614 0.075519
H37   H     H_    0.663335 0.561597 0.245110 0.124314
H38   H     H_    0.818440 0.668630 0.112195 0.123126
H39   H     H_    0.844467 0.637426 0.949919 0.065406
H40   H     H_    0.319349 0.320705 0.639453 -0.145900
H41   H     H_    0.048309 0.519350 0.713378 0.138348
H42   H     H_    0.874094 0.664824 0.026443 0.070580
H43   H     H_    0.838190 0.540177 0.399793 0.083398
H44   H     H_    0.364646 0.459900 0.603446 0.079910
H45   H     H_    0.886687 0.661400 0.566807 0.006065
H46   H     H_    0.500707 0.823633 0.524648 0.080100
H47   H     H_    0.583525 0.929843 0.566715 0.067500
H48   H     H_    0.495070 0.055471 0.577329 0.070577
H49   H     H_    0.695481 0.187269 0.469692 0.079682
H50   H     H_    0.710020 0.952108 0.415801 0.063817
H51   H     H_    0.621827 0.078105 0.426519 0.062371
H52   H     H_    0.922696 0.862999 0.444689 0.076662
H53   H     H_    0.277359 0.139723 0.548291 0.078743
H54   H     H_    0.828870 0.651435 0.471527 0.059949
H55   H     H_    0.354151 0.354037 0.524231 0.066809
H56   H     H_    0.091910 0.668949 0.548397 0.073823
H57   H     H_    0.295490 0.232052 0.704995 0.026794
H58   H     H_    0.312805 0.333036 0.425270 0.005184
H59   H     H_    0.112699 0.330807 0.450422 0.055651
H60   H     H_    0.819943 0.568968 0.791924 0.156067
H61   H     H_    0.672136 0.575704 0.839693 0.119076
H62   H     H_    0.670807 0.643284 0.796958 0.121446
H63   H     H_    0.785204 0.685360 0.878764 0.081687
H64   H     H_    0.935139 0.683168 0.834731 0.165704
H65   H     H_    0.930752 0.387489 0.782125 0.362676
H66   H     H_    0.894800 0.774172 0.619915 0.136452
H67   H     H_    0.946892 0.787435 0.557462 0.063027
H68   H     H_    0.105465 0.780284 0.605380 0.125121
N1    N     N_R   0.943530 0.510268 0.202766 -0.420862
N2    N     N_R   0.263415 0.498163 0.795775 -0.412714
O1    O     O_2   0.913240 0.537010 0.617740 -0.476604
O2    O     O_2   0.228085 0.750235 0.464663 -0.486546
O3    O     O_3   0.123702 0.737548 0.371942 -0.599372
O4    O     O_3   0.145240 0.536960 0.557560 -0.488615
O5    O     O_3   0.557280 0.416300 0.475860 -0.489047
O6    O     O_2   0.376710 0.670070 0.522470 -0.460349
O7    O     O_3   0.574421 0.697648 0.601124 -0.642281
O8    O     O_2   0.415444 0.531696 0.322191 -0.497613
O9    O     O_3   0.444460 0.668575 0.329330 -0.590916
O10   O     O_2   0.061862 0.399063 0.203319 -0.597076
O11   O     O_2   0.418716 0.397196 0.806731 -0.575464
O12   O     O_3   0.630762 0.322588 0.398038 -0.636222
O13   O     O_2   0.833064 0.621787 0.194446 -0.619549
O14   O     O_2   0.116757 0.602116 0.792311 -0.619365
O15   O     O_3   0.669960 0.410470 0.588880 -0.492229
O16   O     O_2   0.837323 0.435302 0.673905 -0.455465
O17   O     O_3   0.065141 0.649825 0.621856 -0.626569
O18   O     O_3   0.627439 0.338186 0.673932 -0.592395
O19   O     O_2   0.812980 0.329910 0.477500 -0.465839
O20   O     O_3   0.078660 0.374870 0.564770 -0.483654
O21   O     O_2   0.956995 0.249449 0.541775 -0.498099
O22   O     O_2   0.951076 0.256015 0.729332 -0.278229
O23   O     O_3   0.108231 0.265898 0.629948 -0.600823
O24   O     O_2   0.145608 0.275880 0.799934 -0.268084
O25   O     O_3   0.017093 0.385448 0.757600 -0.539784
O26   O     O_2   0.276450 0.462960 0.382230 -0.461982
O27   O     O_3   0.044470 0.462980 0.442430 -0.494746
O28   O     O_3   0.519740 0.589470 0.411120 -0.477993
O29   O     O_3   0.119701 0.350454 0.376204 -0.623000
O30   O     O_3   0.632420 0.583650 0.524140 -0.474814
O31   O     O_3   0.111040 0.625070 0.435230 -0.491273
P1    P     P_3+3 0.082480 0.557670 0.610090 0.994900
P2    P     P_3+3 0.635220 0.340300 0.462910 0.985009
P3    P     P_3+3 0.108148 0.283311 0.567287 0.951588
P4    P     P_3+3 0.107220 0.442270 0.389900 0.995684
P5    P     P_3+3 0.088906 0.717217 0.432202 0.945242
P6    P     P_3+3 0.663004 0.420600 0.653696 1.001458
P7    P     P_3+3 0.562371 0.672346 0.537160 0.950677
P8    P     P_3+3 0.529838 0.586914 0.346524 0.947573
S1    S     S_3+6 0.086213 0.299902 0.750234 -0.043063

loop_
_geom_bond_atom_site_label_1
_geom_bond_atom_site_label_2
_ccdc_geom_bond_type
C34   H15   S    
Ba2   O6    S    
C71   H26   S    
C53   C54   A    
C53   H47   S    
Ba1   P1    S    
C10   C72   A    
C45   H18   S    
Ba1   O1    S    
C43   H42   S    
C72   N1    Am   
O30   P7    S    
C44   H55   S    
O6    P7    D    
C64   H67   S    
C34   H14   S    
C24   C25   A    
O4    P1    S    
C60   C65   A    
C1    H16   S    
C16   H17   S    
C17   C19   A    
C22   C24   A    
C32   C33   S    
C35   C38   A    
C51   H48   S    
C60   P5    S    
C36   C37   A    
C55   C57   A    
O29   P4    S    
Ba2   O4    S    
C54   C63   S    
C47   H49   S    
C44   C50   A    
C54   C55   A    
C72   O10   D    
C42   C69   S    
Ba1   Ba2   S    
C31   P1    S    
C68   H7    S    
C56   H22   S    
C22   C27   A    
C4    H40   S    
C11   C38   A    
C17   C35   A    
C9    C13   A    
C25   C42   A    
O9    P8    S    
Ba1   O20   S    
C6    C7    D    
O24   S1    D    
C39   H38   S    
O19   P2    D    
C23   H10   S    
C21   C22   A    
C67   C71   S    
C59   H52   S    
C40   H12   S    
C7    C8    S    
C28   O29   S    
Ba2   O27   S    
C37   C43   A    
C67   H24   S    
C28   H59   S    
Ba2   O5    S    
C71   H27   S    
C57   C58   A    
C6    C14   D    
C61   P7    S    
C52   H45   S    
O21   P3    D    
O27   P4    S    
C16   H57   S    
C15   C31   D    
C2    N1    Am   
C52   H56   S    
O3    P5    S    
C23   H11   S    
C46   P2    S    
C51   C58   A    
C48   C49   A    
C69   H64   S    
C45   O3    S    
C51   C53   A    
C34   H13   S    
C4    C16   S    
C61   C65   A    
Ba1   O30   S    
C68   H6    S    
C49   C50   A    
C30   P6    S    
Ba1   O15   S    
C17   C20   A    
O22   S1    D    
C13   C39   A    
O18   P6    S    
C69   H63   S    
C40   H23   S    
C3    C5    S    
O17   P1    S    
C70   H61   S    
C38   H36   S    
C3    H37   S    
C32   H41   S    
C27   N2    Am   
Ba1   O27   S    
C67   O9    S    
C12   O18   S    
C9    C36   A    
C56   H21   S    
O25   S1    S    
O28   P8    S    
C35   C36   A    
Ba2   O31   S    
O12   P2    S    
C70   H60   S    
C2    O13   D    
O1    P1    D    
C16   S1    S    
C20   H35   S    
C21   H33   S    
C18   C19   A    
C26   O14   D    
C31   C32   D    
C45   H19   S    
O2    P5    D    
O15   P6    S    
O8    P8    D    
Ba1   O5    S    
C1    C12   S    
C15   H44   S    
Ba2   O26   S    
C26   N2    Am   
C67   H25   S    
C11   H31   S    
C46   C47   A    
C41   C42   A    
C1    H9    S    
C29   H32   S    
C29   C33   D    
C66   H2    S    
Ba2   P4    S    
C12   H8    S    
O16   P6    D    
C18   C41   A    
O20   P3    S    
O7    P7    S    
C66   H3    S    
C18   C37   A    
C4    O23   S    
C5    C14   S    
C68   H5    S    
C29   C30   S    
C66   O12   S    
C9    C10   A    
O31   P5    S    
C64   H68   S    
C5    P8    S    
C57   H51   S    
C33   N2    S    
C62   H46   S    
C27   O11   D    
O26   P4    D    
C23   O7    S    
C49   H53   S    
C62   C63   A    
C2    C13   A    
C56   H20   S    
C48   C58   S    
C3    C8    D    
C14   H43   S    
C41   H39   S    
C45   C56   S    
C6    P4    S    
C40   H34   S    
C7    H30   S    
C28   H58   S    
C19   C24   A    
H65   O25   S    
C8    N1    S    
C4    H28   S    
C52   O17   S    
C59   C60   A    
C50   P3    S    
C70   H62   S    
C23   C34   S    
C65   H54   S    
C61   C62   A    
C44   C46   A    
C59   C63   A    
C71   H29   S    
O23   P3    S    
C64   H66   S    
C10   C11   A    
Ba1   O19   S    
C66   C68   S    
C47   C48   A    
C25   C26   A    
C15   C30   S    
C39   C43   A    
C20   C21   A    
C28   C40   S    
Ba1   O4    S    
O5    P2    S    
C69   C70   S    
C52   C64   S    
C1    H4    S    
Ba1   P2    S    
Ba2   O30   S    
C12   H1    S    
Ba2   O28   S    
C55   H50   S    
