data_mof_unit_pretest_1288.cif
_audit_creation_date              2012-12-11T17:00:18-0500
_audit_creation_method            fapswitch 2.2
_symmetry_space_group_name_H-M    P1
_symmetry_Int_Tables_number       1
_space_group_crystal_system       triclinic
_cell_length_a                    6.992246
_cell_length_b                    13.672833
_cell_length_c                    20.326425
_cell_angle_alpha                 103.125349
_cell_angle_beta                  89.960815
_cell_angle_gamma                 89.81565
_cell_volume                      1892.50479036

loop_
_atom_site_label
_atom_site_type_symbol
_atom_type_description
_atom_site_fract_x
_atom_site_fract_y
_atom_site_fract_z
_atom_type_partial_charge
O1    O     O_R   0.506770 0.599700 0.449550 -0.542063
O2    O     O_R   0.179980 0.595740 0.587960 -0.542274
O3    O     O_R   0.004580 0.400300 0.550450 -0.537660
C1    C     C_R   0.347815 0.615900 0.615622 0.736889
O4    O     O_R   0.177380 0.611700 0.452380 -0.522706
O5    O     O_R   0.001970 0.416370 0.413900 -0.526532
C2    C     C_R   0.344140 0.639602 0.436706 0.816835
O6    O     O_R   0.509390 0.583630 0.586100 -0.539095
O7    O     O_3   0.337530 0.435890 0.487530 -0.355956
V1    V     V_3+5 0.064660 0.511890 0.502310 1.610477
O8    O     O_R   0.671950 0.404260 0.412040 -0.534952
C3    C     C_R   0.840889 0.386934 0.383546 0.721341
O9    O     O_R   0.674540 0.388300 0.547620 -0.547329
C4    C     C_R   0.843036 0.362576 0.564766 0.717092
V2    V     V_3+5 0.564030 0.488110 0.497690 1.578818
O10   O     O_3   0.841030 0.564110 0.512470 -0.358120
C5    C     C_R   0.756111 0.114798 0.609195 0.503532
H1    H     H_    0.740772 0.172401 0.519215 0.203607
H2    H     H_    0.729291 0.991654 0.695079 0.230679
C6    C     C_R   0.846712 0.283515 0.602824 -0.120682
C7    C     C_R   0.898935 0.312715 0.927403 -0.152137
C8    C     C_R   0.911977 0.387213 0.891390 -0.062607
C9    C     C_R   0.896635 0.363495 0.821373 -0.136396
C10   C     C_R   0.866333 0.263384 0.784979 0.063726
C11   C     C_R   0.846584 0.186609 0.822356 0.000363
C12   C     C_R   0.850577 0.237936 0.712686 0.035328
C13   C     C_R   0.793542 0.139231 0.679626 -0.081649
C14   C     C_R   0.771906 0.067067 0.717651 -0.103142
C15   C     C_R   0.807055 0.087264 0.786056 0.279688
C16   C     C_R   0.883556 0.308095 0.672220 -0.207351
C17   C     C_R   0.780620 0.188055 0.572039 -0.112752
C18   C     C_R   0.865922 0.212965 0.894192 -0.083826
H3    H     H_    0.932107 0.383451 0.693186 0.105356
H4    H     H_    0.915182 0.333004 0.981854 0.147626
H5    H     H_    0.904896 0.425996 0.797436 0.114723
H6    H     H_    0.935179 0.464321 0.918014 0.161143
C19   C     C_R   0.695827 0.204206 0.220689 0.041014
C20   C     C_R   0.859818 0.194980 0.180210 -0.029229
C21   C     C_R   0.011687 0.260017 0.204659 -0.027966
H7    H     H_    0.130139 0.263199 0.171687 0.154610
C22   C     C_R   0.004851 0.325411 0.269478 -0.026779
H8    H     H_    0.118104 0.379502 0.284537 0.149393
C23   C     C_R   0.850868 0.322517 0.313684 -0.107960
C24   C     C_R   0.695345 0.263726 0.286913 0.119456
C25   C     C_3   0.502920 0.304899 0.281024 0.100098
C26   C     C_3   0.504937 0.247387 0.207874 0.174097
H9    H     H_    0.499524 0.388197 0.289156 0.119442
H10   H     H_    0.395019 0.188713 0.194860 0.156883
C27   C     C_R   0.523746 0.705364 0.720344 0.164161
C28   C     C_R   0.354010 0.686424 0.683102 -0.125693
C29   C     C_R   0.188840 0.739215 0.711647 -0.187830
H11   H     H_    0.055427 0.730973 0.684008 0.174212
C30   C     C_R   0.192199 0.801754 0.777071 -0.167786
H12   H     H_    0.061667 0.837668 0.797723 0.201734
C31   C     C_R   0.360395 0.814879 0.816041 -0.109649
C32   C     C_R   0.526733 0.767762 0.785057 0.207529
C33   C     C_3   0.662809 0.699910 0.809991 -0.382714
C34   C     C_3   0.659791 0.632273 0.739512 -0.481884
H13   H     H_    0.597944 0.664529 0.848737 0.221797
H14   H     H_    0.803695 0.735757 0.823998 0.196439
H15   H     H_    0.593583 0.557814 0.737597 0.174470
H16   H     H_    0.798686 0.629330 0.712624 0.178338
C35   C     C_R   0.199210 0.880526 0.387187 0.331257
C36   C     C_R   0.337378 0.721747 0.400432 -0.223993
C37   C     C_R   0.451775 0.691626 0.076829 0.327233
C38   C     C_R   0.486280 0.620926 0.114909 -0.062453
C39   C     C_R   0.446320 0.642150 0.183616 -0.129807
C40   C     C_R   0.363109 0.734450 0.216488 0.051315
C41   C     C_R   0.320376 0.806668 0.177112 -0.110747
C42   C     C_R   0.325447 0.758805 0.287942 0.026816
C43   C     C_R   0.216986 0.846173 0.316034 -0.220341
C44   C     C_R   0.137502 0.900400 0.271795 0.449252
C45   C     C_R   0.221573 0.894666 0.209545 0.288170
C46   C     C_R   0.389063 0.698983 0.332051 -0.236943
C47   C     C_R   0.240385 0.813193 0.428927 0.316522
C48   C     C_R   0.371498 0.785927 0.106953 -0.138524
H17   H     H_    0.468087 0.630290 0.314018 0.130313
H18   H     H_    0.478592 0.583576 0.209414 0.189416
H19   H     H_    0.547654 0.548700 0.091112 0.214473
O11   O     O_R   0.203450 0.916320 0.913910 -0.541141
O12   O     O_R   0.535520 0.888300 0.047620 -0.529524
O13   O     O_R   0.710860 0.083650 0.086100 -0.526845
C49   C     C_R   0.368516 0.863103 0.065914 0.847792
O14   O     O_R   0.532860 0.904250 0.912040 -0.511891
O15   O     O_R   0.708190 0.099710 0.949550 -0.510157
C50   C     C_R   0.364970 0.881486 0.885164 0.755708
O16   O     O_R   0.206120 0.900260 0.050460 -0.525414
O17   O     O_3   0.375280 0.064080 0.012470 -0.376030
V3    V     V_3+5 0.648180 0.988110 0.997690 1.640587
O18   O     O_R   0.038220 0.111740 0.952370 -0.554206
C51   C     C_R   0.869710 0.138574 0.936110 0.796298
O19   O     O_R   0.040880 0.095790 0.087940 -0.534332
C52   C     C_R   0.870944 0.121326 0.113622 0.775255
V4    V     V_3+5 0.148800 0.011950 0.002300 1.567054
O20   O     O_3   0.871820 0.935920 0.987530 -0.362323
Cl1   Cl    Cl    0.351490 0.258048 0.336380 -0.549817
S1    S     S_3+6 0.515451 0.331523 0.150921 -0.082514
O21   O     O_2   0.345591 0.401000 0.162483 -0.382408
O22   O     O_2   0.693645 0.394193 0.163157 -0.346176
O23   O     O_3   0.515313 0.265755 0.070322 -0.496272
H20   H     H_    0.380114 0.264870 0.055694 0.346221
S2    S     S_3+6 0.154757 0.834473 0.514008 0.116447
O24   O     O_2   0.091167 0.940189 0.542998 -0.224947
O25   O     O_2   0.986658 0.767228 0.516156 -0.303338
O26   O     O_3   0.329907 0.804650 0.562510 -0.496299
H21   H     H_    0.292352 0.837176 0.609338 0.378912
Cl2   Cl    Cl    0.917362 0.966122 0.287983 -0.495616
S3    S     S_3+6 0.171951 0.012726 0.421066 0.173917
O27   O     O_2   0.965106 0.038493 0.434773 -0.239303
O28   O     O_2   0.282420 0.051427 0.484595 -0.239914
O29   O     O_3   0.253337 0.073561 0.364151 -0.412071
H22   H     H_    0.389864 0.053868 0.357821 0.375709
Cl3   Cl    Cl    0.510658 0.658364 0.990207 -0.710275
Cl4   Cl    Cl    0.233759 0.009737 0.185927 -0.632220
S4    S     S_3+6 0.640161 0.001767 0.568884 0.111205
O30   O     O_2   0.735417 0.910631 0.583730 -0.289780
O31   O     O_2   0.440657 0.008640 0.596674 -0.287100
O32   O     O_3   0.634726 0.988490 0.484673 -0.434079
H23   H     H_    0.609978 0.916244 0.465933 0.380023
Cl5   Cl    Cl    0.796186 0.979603 0.819352 -0.719274

loop_
_geom_bond_atom_site_label_1
_geom_bond_atom_site_label_2
_ccdc_geom_bond_type
C34   H16   S    
C49   O16   A    
C31   C32   A    
C22   H8    S    
O29   H22   S    
C1    O6    A    
S1    O21   D    
O15   C51   A    
C21   C22   A    
C6    C16   A    
C25   C26   S    
C32   C33   S    
C38   H19   S    
C12   C13   A    
C37   C48   A    
C41   C48   A    
C14   C15   A    
C10   C12   A    
C3    C23   S    
O5    C3    A    
C20   C21   A    
C33   H13   S    
C18   C51   S    
S4    O30   D    
O16   V4    S    
S3    O27   D    
S2    O26   S    
C27   C28   A    
O32   H23   S    
O23   H20   S    
O11   C50   A    
O12   C49   A    
O8    V2    S    
C40   C41   A    
S4    O31   D    
C46   H17   S    
C42   C46   A    
C47   S2    S    
C9    C10   A    
C41   C45   A    
C42   C43   A    
O1    V2    S    
O7    V1    S    
O18   C51   A    
O12   V3    S    
C11   C18   A    
C30   C31   A    
C38   C39   A    
O13   C52   A    
C7    C8    A    
C22   C23   A    
S2    O24   D    
C39   H18   S    
C48   C49   S    
S1    O22   D    
O18   V4    S    
O17   V4    S    
C25   H9    S    
C11   C15   A    
C15   Cl5   S    
C26   H10   S    
C39   C40   A    
C5    C13   A    
C31   C50   S    
C4    C6    S    
C10   C11   A    
C21   H7    S    
O4    C2    A    
O15   V3    S    
C33   H14   S    
C7    H4    S    
C30   H12   S    
C45   Cl4   S    
C29   H11   S    
C1    C28   S    
C29   C30   A    
V3    O20   S    
O2    C1    A    
C23   C24   A    
C19   C20   A    
C44   Cl2   S    
S4    O32   S    
O19   V4    S    
C28   C29   A    
C35   S3    S    
S2    O25   D    
H2    C14   S    
O13   V3    S    
O3    C4    A    
C26   S1    S    
C35   C43   A    
C12   C16   A    
O6    V2    S    
C9    H5    S    
O9    V2    S    
C5    C17   A    
O14   V3    S    
O11   V4    S    
O2    V1    S    
S1    O23   S    
C24   C25   S    
C5    S4    S    
C16   H3    S    
O1    C2    A    
C37   Cl3   S    
O14   C50   A    
C44   C45   A    
O5    V1    S    
O8    C3    A    
C27   C32   A    
C8    H6    S    
O26   H21   S    
S3    O29   S    
C19   C24   A    
O7    V2    S    
O4    V1    S    
O3    V1    S    
V1    O10   S    
C7    C18   A    
C33   C34   S    
C35   C47   A    
C34   H15   S    
C20   C52   S    
O19   C52   A    
C36   C47   A    
S3    O28   D    
V4    O20   S    
C2    C36   S    
C27   C34   S    
C43   C44   A    
O17   V3    S    
C40   C42   A    
C37   C38   A    
C13   C14   A    
C36   C46   A    
C8    C9    A    
H1    C17   S    
C19   C26   S    
O9    C4    A    
C25   Cl1   S    
V2    O10   S    
C6    C17   A    
