data_mof_unit_pretest_1405.cif
_audit_creation_date              2012-12-10T19:47:22-0500
_audit_creation_method            fapswitch 2.2
_symmetry_space_group_name_H-M    P1
_symmetry_Int_Tables_number       1
_space_group_crystal_system       triclinic
_cell_length_a                    10.925464
_cell_length_b                    10.883535
_cell_length_c                    12.737716
_cell_angle_alpha                 92.118601
_cell_angle_beta                  91.677479
_cell_angle_gamma                 89.120525
_cell_volume                      1512.77382869

loop_
_atom_site_label
_atom_site_type_symbol
_atom_type_description
_atom_site_fract_x
_atom_site_fract_y
_atom_site_fract_z
_atom_type_partial_charge
C1    C     C_R   0.261936 0.498395 0.501738 0.823562
C2    C     C_R   0.738063 0.501590 0.498263 0.823528
C3    C     C_R   0.496329 0.871679 0.496555 -0.035491
C4    C     C_R   0.503791 0.128318 0.503434 -0.035597
C5    C     C_R   0.465204 0.936570 0.405314 0.056046
C6    C     C_R   0.534952 0.063426 0.594668 0.055834
C7    C     C_R   0.218370 0.383592 0.847687 -0.107212
C8    C     C_R   0.781727 0.617124 0.152539 -0.107410
C9    C     C_R   0.177804 0.385262 0.741841 0.126317
C10   C     C_R   0.822257 0.615144 0.258382 0.126465
C11   C     C_R   0.122408 0.494490 0.703875 0.077813
C12   C     C_R   0.877590 0.505775 0.296141 0.078021
C13   C     C_R   0.110742 0.598460 0.771514 -0.153047
C14   C     C_R   0.889220 0.401976 0.228300 -0.153049
C15   C     C_R   0.150665 0.594600 0.876076 -0.140825
C16   C     C_R   0.849350 0.406153 0.123739 -0.140593
C17   C     C_R   0.203169 0.487084 0.914413 -0.169814
C18   C     C_R   0.796922 0.513810 0.085610 -0.169861
C19   C     C_R   0.936412 0.504914 0.592764 -0.137794
C20   C     C_R   0.063582 0.494984 0.407240 -0.137672
C21   C     C_R   0.871684 0.503241 0.496217 -0.130227
C22   C     C_R   0.128314 0.496696 0.503787 -0.130238
C23   C     C_R   0.502149 0.261949 0.501455 0.840665
C24   C     C_R   0.497889 0.738050 0.498543 0.840767
C25   C     C_R   0.936497 0.500771 0.402058 -0.042362
C26   C     C_R   0.063498 0.499205 0.597946 -0.042409
C27   C     C_2   0.481200 0.456164 0.031994 -0.275499
C28   C     C_2   0.518806 0.543855 0.968008 -0.275402
C29   C     C_1   0.519434 0.528339 0.852491 0.210252
C30   C     C_1   0.480570 0.471672 0.147510 0.210427
C31   C     C_R   0.729458 0.236595 0.803540 -0.003996
C32   C     C_R   0.270463 0.763701 0.196425 -0.004225
C33   C     C_R   0.690612 0.185721 0.704363 0.474332
C34   C     C_R   0.309446 0.814407 0.295627 0.474428
C35   C     C_R   0.578743 0.121515 0.695721 -0.009983
C36   C     C_R   0.421380 0.878499 0.304263 -0.009804
C37   C     C_R   0.511415 0.103893 0.786011 -0.166081
C38   C     C_R   0.488692 0.896111 0.213963 -0.166331
C39   C     C_R   0.550641 0.153739 0.883121 -0.168330
C40   C     C_R   0.449357 0.846401 0.116837 -0.168495
C41   C     C_R   0.658367 0.220468 0.891787 -0.288197
C42   C     C_R   0.341528 0.779838 0.108163 -0.288143
C43   C     C_R   0.530041 0.936090 0.589770 -0.292056
C44   C     C_R   0.470116 0.063904 0.410212 -0.291961
Cu1   Cu    Cu3+1 0.492140 0.492110 0.395880 0.996514
Cu2   Cu    Cu3+1 0.507860 0.507890 0.604120 0.996398
H1    H     H_    0.686676 0.258849 0.968044 0.150058
H2    H     H_    0.313135 0.741580 0.031887 0.149998
H3    H     H_    0.067610 0.681918 0.743597 0.129158
H4    H     H_    0.932294 0.318413 0.256058 0.129114
H5    H     H_    0.138661 0.674805 0.927512 0.122262
H6    H     H_    0.861343 0.326086 0.072140 0.122311
H7    H     H_    0.887872 0.509043 0.665807 0.190551
H8    H     H_    0.112123 0.490847 0.334197 0.190707
H9    H     H_    0.550670 0.630572 0.002490 0.160010
H10   H     H_    0.449320 0.369454 0.997514 0.159964
H11   H     H_    0.427888 0.051437 0.781006 0.191355
H12   H     H_    0.572274 0.948477 0.218967 0.191398
H13   H     H_    0.497430 0.140340 0.952045 0.145897
H14   H     H_    0.502550 0.859795 0.047902 0.145864
H15   H     H_    0.556558 0.886923 0.659596 0.161765
H16   H     H_    0.443600 0.113069 0.340384 0.161776
H17   H     H_    0.231610 0.483623 0.996239 0.134875
H18   H     H_    0.768545 0.517532 0.003783 0.134731
H19   H     H_    0.259748 0.301407 0.879540 0.153544
H20   H     H_    0.740414 0.699426 0.120838 0.153573
N1    N     N_1   0.480320 0.480250 0.239400 -0.164585
N2    N     N_1   0.519680 0.519750 0.760600 -0.164627
O1    O     O_R   0.313000 0.493330 0.412070 -0.571149
O2    O     O_R   0.687000 0.506670 0.587930 -0.571273
O3    O     O_R   0.326280 0.506660 0.587930 -0.590412
O4    O     O_R   0.673720 0.493340 0.412070 -0.590387
O5    O     O_R   0.493370 0.312980 0.412070 -0.599461
O6    O     O_R   0.506630 0.687020 0.587930 -0.599462
O7    O     O_R   0.506650 0.326310 0.587930 -0.560139
O8    O     O_R   0.493350 0.673690 0.412070 -0.560064
C45   C     C_2   0.844352 0.305710 0.818066 0.346802
H21   H     H_    0.861219 0.361672 0.888843 0.052504
O9    O     O_2   0.923408 0.298361 0.752681 -0.556188
C46   C     C_2   0.155438 0.694793 0.181871 0.346483
H22   H     H_    0.138141 0.639494 0.110794 0.052709
O10   O     O_2   0.076744 0.701568 0.247593 -0.556086
O11   O     O_3   0.751375 0.214982 0.614871 -0.565652
C47   C     C_3   0.825949 0.114970 0.581092 0.072501
H23   H     H_    0.771865 0.030612 0.563871 0.135491
H24   H     H_    0.898512 0.094423 0.641320 0.176885
C48   C     C_3   0.886679 0.148869 0.480304 -0.752295
H25   H     H_    0.948493 0.227859 0.496144 0.248898
H26   H     H_    0.940726 0.069645 0.448426 0.194950
H27   H     H_    0.815779 0.174635 0.420447 0.250248
O12   O     O_3   0.248720 0.785135 0.385135 -0.565446
C49   C     C_3   0.174191 0.885157 0.418969 0.072449
H28   H     H_    0.101519 0.905646 0.358821 0.176866
H29   H     H_    0.228278 0.969537 0.436075 0.135268
C50   C     C_3   0.113657 0.851308 0.519861 -0.752402
H30   H     H_    0.184670 0.825583 0.579635 0.250246
H31   H     H_    0.059660 0.930544 0.551783 0.194985
H32   H     H_    0.051832 0.772301 0.504141 0.248875
C51   C     C_2   0.188575 0.271906 0.673713 0.401504
H33   H     H_    0.157024 0.270991 0.592276 0.042982
O13   O     O_2   0.232065 0.177050 0.708097 -0.586561
C52   C     C_2   0.811561 0.728346 0.326718 0.400843
H34   H     H_    0.843241 0.729079 0.408116 0.043181
O14   O     O_2   0.767984 0.823277 0.292551 -0.586658

loop_
_geom_bond_atom_site_label_1
_geom_bond_atom_site_label_2
_ccdc_geom_bond_type
C48   H25   S    
C8    H20   S    
C40   H14   S    
C50   H30   S    
C47   C48   S    
C24   O6    A    
C50   H32   S    
C39   C41   A    
C45   H21   S    
C3    C43   A    
C1    O3    A    
Cu1   O8    S    
C28   C29   S    
C19   C21   A    
C47   H24   S    
C32   C46   S    
C20   C25   A    
C5    C36   S    
C6    C35   S    
Cu1   O5    S    
C19   C26   A    
C34   O12   S    
C38   H12   S    
O11   C47   S    
C7    C17   A    
Cu1   N1    S    
C31   C33   A    
C15   H5    S    
C30   N1    T    
C19   H7    S    
C40   C42   A    
C1    C22   S    
C9    C51   S    
Cu1   O4    S    
C3    C24   S    
C23   O5    A    
C2    O4    A    
Cu2   O7    S    
C28   H9    S    
C31   C45   S    
C45   O9    D    
Cu1   O1    S    
C10   C52   S    
C47   H23   S    
C20   H8    S    
C23   O7    A    
O12   C49   S    
C4    C23   S    
C27   H10   S    
C24   O8    A    
C4    C44   A    
C11   C26   S    
C44   H16   S    
Cu1   Cu2   S    
C49   C50   S    
C8    C18   A    
C32   C34   A    
Cu2   N2    S    
C7    H19   S    
C29   N2    T    
C33   O11   S    
C51   H33   S    
C39   H13   S    
C2    C21   S    
C49   H29   S    
C41   H1    S    
C16   C18   A    
C42   H2    S    
C52   O14   D    
C9    C11   A    
Cu2   O3    S    
C10   C12   A    
C13   H3    S    
C4    C6    A    
C51   O13   D    
C5    C44   A    
C20   C22   A    
C6    C43   A    
C13   C15   A    
C14   C16   A    
Cu2   O6    S    
C43   H15   S    
C15   C17   A    
C21   C25   A    
C31   C41   A    
C35   C37   A    
C16   H6    S    
C12   C14   A    
C46   H22   S    
C3    C5    A    
C50   H31   S    
C12   C25   S    
C36   C38   A    
C37   C39   A    
C17   H17   S    
C38   C40   A    
C11   C13   A    
C18   H18   S    
C14   H4    S    
C49   H28   S    
C33   C35   A    
C46   O10   D    
C34   C36   A    
C52   H34   S    
C1    O1    A    
Cu2   O2    S    
C7    C9    A    
C8    C10   A    
C22   C26   A    
C48   H27   S    
C27   C28   D    
C48   H26   S    
C32   C42   A    
C2    O2    A    
C37   H11   S    
C27   C30   S    
