data_mof_unit_pretest_347.cif
_audit_creation_date              2013-03-05T15:42:25-0500
_audit_creation_method            fapswitch 2.2
_symmetry_space_group_name_H-M    P1
_symmetry_Int_Tables_number       1
_space_group_crystal_system       triclinic
_cell_length_a                    11.025565
_cell_length_b                    11.025951
_cell_length_c                    18.82059
_cell_angle_alpha                 90.345041
_cell_angle_beta                  89.738222
_cell_angle_gamma                 59.965898
_cell_volume                      1980.64617787

loop_
_atom_site_label
_atom_site_type_symbol
_atom_site_description
_atom_site_fract_x
_atom_site_fract_y
_atom_site_fract_z
_atom_type_partial_charge
O1    O     O_R   0.507340 0.255690 0.581430 -0.521657
O2    O     O_R   0.280360 0.527380 0.578910 -0.507740
C1    C     C_R   0.241167 0.643861 0.611300 0.536811
O3    O     O_R   0.260600 0.739610 0.584580 -0.532362
O4    O     O_R   0.532370 0.695050 0.573830 -0.505640
C2    C     C_R   0.653266 0.621901 0.601059 0.549639
O5    O     O_R   0.744850 0.503430 0.576380 -0.524812
O6    O     O_R   0.699080 0.276500 0.571950 -0.513680
C3    C     C_R   0.629502 0.226093 0.601900 0.536960
O7    O     O_R   0.498860 0.256520 0.419860 -0.534428
O8    O     O_R   0.272490 0.528150 0.429140 -0.502185
C4    C     C_R   0.219651 0.652723 0.402510 0.540597
O9    O     O_R   0.252110 0.740440 0.423010 -0.537071
O10   O     O_R   0.524510 0.695820 0.424050 -0.502166
C5    C     C_R   0.616193 0.587322 0.385814 0.553160
O11   O     O_R   0.736370 0.504260 0.414810 -0.521425
O12   O     O_R   0.691220 0.277270 0.422180 -0.537281
C6    C     C_R   0.614103 0.228961 0.395119 0.537365
Cr1   Cr    Cr6+3 0.392940 0.397950 0.502230 0.996584
Cr2   Cr    Cr6+3 0.398400 0.708500 0.501260 0.996776
Cr3   Cr    Cr6+3 0.708640 0.393530 0.496460 0.987916
O13   O     O_3   0.499990 0.499990 0.499980 -0.262751
C7    C     C_3   0.576643 0.813116 0.781816 -0.228977
H1    H     H_    0.595589 0.901896 0.791315 0.142939
H2    H     H_    0.476877 0.838645 0.809301 0.119662
C8    C     C_3   0.561872 0.798663 0.701394 -0.242905
H3    H     H_    0.453212 0.823365 0.690210 0.129519
H4    H     H_    0.579819 0.875912 0.672222 0.118682
H5    H     H_    0.859131 0.727508 0.777149 0.119044
H6    H     H_    0.837520 0.696025 0.658571 0.112962
C9    C     C_3   0.835040 0.641489 0.769652 -0.220409
C10   C     C_3   0.667550 0.555622 0.800540 -0.247458
C11   C     C_3   0.700038 0.674760 0.811918 0.050407
H7    H     H_    0.755366 0.454984 0.820277 0.138146
H8    H     H_    0.571422 0.577931 0.830776 0.133417
C12   C     C_3   0.669321 0.647810 0.676425 0.054116
C13   C     C_3   0.818023 0.622350 0.690162 -0.244035
C14   C     C_3   0.646181 0.541767 0.720920 -0.214722
H9    H     H_    0.538532 0.559863 0.712338 0.131891
H10   H     H_    0.720738 0.432413 0.703541 0.153931
H11   H     H_    0.925740 0.543940 0.789750 0.159694
H12   H     H_    0.896985 0.513963 0.673607 0.145627
H13   H     H_    0.463944 0.194856 0.692932 0.159247
C15   C     C_R   0.691337 0.152252 0.822382 0.004303
C16   C     C_R   0.805217 0.141440 0.781342 0.010223
C17   C     C_R   0.796976 0.141142 0.705747 0.014674
C18   C     C_R   0.561137 0.178370 0.715419 -0.170471
C19   C     C_R   0.569957 0.175154 0.787496 -0.144790
C20   C     C_R   0.926696 0.130504 0.812299 -0.095274
C21   C     C_R   0.041010 0.106367 0.770259 -0.137058
C22   C     C_R   0.036514 0.095144 0.696906 -0.134436
C23   C     C_R   0.916295 0.111447 0.664743 -0.086974
C24   C     C_R   0.669828 0.168872 0.673475 -0.009363
H14   H     H_    0.934775 0.144024 0.868486 0.147487
H15   H     H_    0.482051 0.181003 0.815763 0.173000
H16   H     H_    0.135441 0.091593 0.794951 0.096034
H17   H     H_    0.127428 0.071593 0.664709 0.098330
H18   H     H_    0.919920 0.095716 0.607868 0.131926
H19   H     H_    0.243645 0.827695 0.702333 0.139676
C25   C     C_R   0.198296 0.657124 0.838301 0.029249
C26   C     C_R   0.210046 0.539516 0.801165 0.009756
C27   C     C_R   0.196938 0.546372 0.725788 -0.012360
C28   C     C_R   0.225329 0.751216 0.728066 -0.156229
C29   C     C_R   0.218778 0.754706 0.801329 -0.161613
C30   C     C_R   0.229552 0.417614 0.836827 0.231020
C31   C     C_R   0.208478 0.319603 0.799716 -0.140041
C32   C     C_R   0.177097 0.336112 0.727833 -0.208623
C33   C     C_R   0.172336 0.447189 0.690954 -0.122938
C34   C     C_R   0.208615 0.652415 0.688490 0.000526
H20   H     H_    0.221385 0.839740 0.828952 0.138283
H21   H     H_    0.223131 0.226770 0.826228 0.135159
H22   H     H_    0.160810 0.260115 0.699659 0.122612
H23   H     H_    0.143380 0.456336 0.635765 0.146028
H24   H     H_    0.493270 0.831813 0.320279 0.145554
C35   C     C_R   0.633378 0.665818 0.162362 0.042304
C36   C     C_R   0.686135 0.526939 0.184814 0.046380
C37   C     C_R   0.698553 0.497884 0.258715 0.053467
C38   C     C_R   0.548721 0.745756 0.283014 -0.095252
C39   C     C_R   0.563869 0.776142 0.212806 -0.004206
C40   C     C_R   0.750028 0.415159 0.135332 -0.077374
C41   C     C_R   0.855359 0.285567 0.157091 -0.076346
C42   C     C_R   0.882844 0.261688 0.228831 -0.103654
C43   C     C_R   0.798782 0.361291 0.279350 -0.070820
C44   C     C_R   0.621350 0.608878 0.308234 -0.002117
H25   H     H_    0.729528 0.431572 0.078948 0.110462
H26   H     H_    0.915487 0.203542 0.118583 0.130256
H27   H     H_    0.960588 0.160385 0.245782 0.114988
H28   H     H_    0.821660 0.329109 0.333493 0.158146
H29   H     H_    0.853943 0.047757 0.327641 0.113494
C45   C     C_R   0.658668 0.148064 0.177376 -0.005448
C46   C     C_R   0.523941 0.226298 0.206209 -0.002197
C47   C     C_R   0.508258 0.217129 0.279440 0.039202
C48   C     C_R   0.761717 0.092330 0.294534 -0.169079
C49   C     C_R   0.774762 0.070890 0.222016 -0.130390
C50   C     C_R   0.404478 0.292461 0.162653 -0.107316
C51   C     C_R   0.277294 0.312230 0.187180 -0.108209
C52   C     C_R   0.264004 0.282817 0.257429 -0.151208
C53   C     C_R   0.375755 0.240284 0.303832 -0.102544
C54   C     C_R   0.629509 0.173686 0.323374 0.013937
H30   H     H_    0.411618 0.316613 0.107646 0.170249
H31   H     H_    0.877949 0.998997 0.200632 0.170770
H32   H     H_    0.190003 0.348280 0.151181 0.181756
H33   H     H_    0.166105 0.295151 0.276735 0.154057
H34   H     H_    0.358405 0.211496 0.355926 0.147223
H35   H     H_    0.083539 0.540285 0.335499 0.149183
C55   C     C_R   0.142836 0.676365 0.185941 -0.030493
C56   C     C_R   0.197894 0.755054 0.217905 -0.013966
C57   C     C_R   0.172831 0.783840 0.290451 0.027660
C58   C     C_R   0.113428 0.601198 0.302276 -0.119117
C59   C     C_R   0.086148 0.613386 0.230347 0.189234
C60   C     C_R   0.249193 0.828859 0.178268 -0.077602
C61   C     C_R   0.236462 0.952276 0.205392 -0.124346
C62   C     C_R   0.200413 0.988234 0.276062 -0.156771
C63   C     C_R   0.163905 0.908268 0.317649 -0.085536
C64   C     C_R   0.157123 0.686278 0.332935 -0.036364
H36   H     H_    0.285195 0.800206 0.123863 0.132287
H37   H     H_    0.249672 0.022778 0.171048 0.115286
H38   H     H_    0.191821 0.082808 0.297874 0.098644
H39   H     H_    0.121490 0.949520 0.369905 0.133423
O14   O     O_R   0.089570 0.825450 0.930590 -0.536934
O15   O     O_R   0.818700 0.054260 0.929860 -0.524077
C65   C     C_R   0.703294 0.101083 0.895732 0.563055
O16   O     O_R   0.606310 0.077010 0.915520 -0.484023
O17   O     O_R   0.646730 0.806540 0.917560 -0.518014
C66   C     C_R   0.724650 0.688586 0.887899 0.527075
O18   O     O_R   0.837290 0.593240 0.915240 -0.530398
O19   O     O_R   0.065320 0.635310 0.931580 -0.472284
C67   C     C_R   0.121845 0.703730 0.906782 0.577017
O20   O     O_R   0.068470 0.828620 0.091850 -0.541249
O21   O     O_R   0.799150 0.057200 0.079350 -0.518150
C68   C     C_R   0.676663 0.104912 0.104052 0.543709
O22   O     O_R   0.585220 0.080180 0.076770 -0.511815
O23   O     O_R   0.627170 0.809480 0.067050 -0.524660
C69   C     C_R   0.691432 0.689194 0.095771 0.576357
O24   O     O_R   0.816200 0.596410 0.076500 -0.463150
O25   O     O_R   0.045770 0.638240 0.081070 -0.450398
C70   C     C_R   0.092730 0.709682 0.113001 0.562485
Cr4   Cr    Cr6+3 0.937880 0.938320 0.007620 1.002986
Cr5   Cr    Cr6+3 0.625560 0.937220 0.994510 1.046702
Cr6   Cr    Cr6+3 0.938080 0.625010 0.001190 1.103529
O26   O     O_3   0.833840 0.833520 0.001110 -0.263377
N1    N     N_R   0.286067 0.383925 0.907538 0.078713
O27   O     O_R   0.375784 0.420045 0.928885 -0.378453
O28   O     O_R   0.260911 0.303258 0.947766 -0.371472
C71   C     C_3   0.526105 0.924627 0.197914 -0.331755
H40   H     H_    0.622807 0.929453 0.191884 0.206010
H41   H     H_    0.462898 0.965110 0.149411 0.159626
H42   H     H_    0.464930 0.995426 0.242132 0.114918
N2    N     N_R   0.967356 0.605619 0.208891 0.090716
O29   O     O_R   0.852110 0.724075 0.202290 -0.381983
O30   O     O_R   0.960895 0.493507 0.221377 -0.389813

loop_
_geom_bond_atom_site_label_1
_geom_bond_atom_site_label_2
_geom_bond_distance
_ccdc_geom_bond_type
C19   H15   1.076501 S    
C48   C49   1.378278 A    
C51   H32   1.081460 S    
O17   Cr5   1.965483 S    
C50   C51   1.383440 A    
O25   Cr6   1.969338 S    
C59   N2    1.415110 S    
C41   C42   1.382873 A    
C35   C69   1.486121 S    
C47   C53   1.424543 A    
C39   C71   1.502171 S    
O4    Cr2   1.967444 S    
C16   C17   1.426148 A    
O22   Cr5   2.083704 S    
O8    Cr1   1.961845 S    
C8    H3    1.109114 S    
O11   Cr3   2.082665 S    
C66   O18   1.271898 A    
C57   C64   1.421992 A    
C12   C13   1.541986 S    
C1    C34   1.485905 S    
N2    O30   1.296088 A    
C71   H40   1.099207 S    
C61   H37   1.077875 S    
C55   C56   1.416831 A    
C37   C43   1.408968 A    
C20   H14   1.077327 S    
C52   C53   1.391809 A    
C32   H22   1.077824 S    
C7    C8    1.538907 S    
C57   C63   1.417686 A    
C13   H12   1.111195 S    
C20   C21   1.392115 A    
O20   Cr4   2.085612 S    
C28   C34   1.402830 A    
C49   H31   1.083459 S    
O6    C3    1.281310 A    
C7    C11   1.561712 S    
C56   C57   1.394579 A    
C9    C11   1.556273 S    
C60   H36   1.082896 S    
C22   H17   1.082302 S    
C29   H20   1.082315 S    
C8    H4    1.113280 S    
C48   C54   1.379154 A    
C41   H26   1.081769 S    
O9    Cr2   2.086572 S    
C18   C24   1.391034 A    
C4    C64   1.444151 S    
C31   C32   1.388269 A    
Cr3   O13   1.992236 S    
C26   C27   1.425255 A    
C61   C62   1.383928 A    
C71   H41   1.103420 S    
C45   C49   1.412955 A    
C2    O5    1.268740 A    
O24   Cr6   2.079991 S    
O1    Cr1   2.082787 S    
C5    O11   1.300042 A    
C28   C29   1.379709 A    
C32   C33   1.389507 A    
C10   H8    1.113315 S    
O10   Cr2   1.961874 S    
C25   C67   1.477904 S    
Cr1   O13   1.997525 S    
O1    C3    1.278806 A    
Cr6   O26   1.990342 S    
C46   C47   1.398805 A    
C50   H30   1.082788 S    
C40   C41   1.381435 A    
C55   C70   1.461008 S    
C37   C44   1.423760 A    
C21   C22   1.388669 A    
C33   H23   1.078435 S    
O5    Cr3   2.087578 S    
C21   H16   1.077987 S    
C1    O3    1.282648 A    
C9    C13   1.535023 S    
H6    C13   1.113133 S    
C25   C26   1.416649 A    
C10   H7    1.113318 S    
O15   Cr4   1.965002 S    
C35   C36   1.407165 A    
C31   H21   1.078955 S    
C40   H25   1.083281 S    
C38   C44   1.395196 A    
C18   C19   1.359854 A    
C16   C20   1.412173 A    
O7    Cr1   2.080911 S    
C7    H1    1.112078 S    
O18   Cr6   2.091319 S    
C51   C52   1.387661 A    
C11   C66   1.477879 S    
O12   C6    1.311520 A    
O20   C70   1.267248 A    
C36   C37   1.420926 A    
O15   C65   1.285307 A    
C52   H33   1.079116 S    
C23   H18   1.080711 S    
C45   C68   1.437107 S    
C8    C12   1.550433 S    
Cr2   O13   1.990477 S    
O23   Cr5   1.961199 S    
C10   C14   1.536501 S    
O23   C69   1.274624 A    
O16   Cr5   2.081782 S    
C42   H27   1.064190 S    
C3    C24   1.464662 S    
O19   Cr6   1.960064 S    
O19   C67   1.283573 A    
O21   Cr4   1.957817 S    
C71   H42   1.103111 S    
C15   C16   1.423913 A    
C62   C63   1.383022 A    
C55   C59   1.417037 A    
H35   C58   1.084145 S    
C9    H11   1.109779 S    
C60   C61   1.389906 A    
O2    Cr1   1.961029 S    
C38   C39   1.394795 A    
C56   C60   1.415219 A    
C36   C40   1.411954 A    
O25   C70   1.286516 A    
Cr4   O26   1.998126 S    
O6    Cr3   1.962550 S    
C6    C54   1.451856 S    
O8    C4    1.298899 A    
O14   C67   1.281331 A    
C5    C44   1.486124 S    
C69   O24   1.285583 A    
H19   C28   1.077461 S    
C27   C33   1.410410 A    
C25   C29   1.394136 A    
C10   C11   1.538854 S    
C12   C14   1.562663 S    
O21   C68   1.263664 A    
C22   C23   1.387714 A    
H5    C9    1.113961 S    
N2    O29   1.295369 A    
C17   C23   1.410659 A    
C14   H10   1.112268 S    
C30   N1    1.441941 S    
Cr5   O26   1.993031 S    
C45   C46   1.396217 A    
O4    C2    1.274721 A    
C63   H39   1.081813 S    
H13   C18   1.081932 S    
O7    C6    1.236949 A    
C53   H34   1.077696 S    
C14   H9    1.113418 S    
C17   C24   1.417256 A    
C15   C65   1.475800 S    
C2    C12   1.474083 S    
O2    C1    1.280790 A    
N1    O28   1.301683 A    
C7    H2    1.113487 S    
H29   C48   1.083034 S    
C68   O22   1.277788 A    
O12   Cr3   1.965149 S    
C58   C64   1.376034 A    
C46   C50   1.412188 A    
C62   H38   1.077243 S    
O3    Cr2   2.082090 S    
C26   C30   1.423411 A    
O14   Cr4   2.078530 S    
C4    O9    1.247232 A    
C27   C34   1.426948 A    
C42   C43   1.389084 A    
H24   C38   1.083213 S    
N1    O27   1.301747 A    
O10   C5    1.320331 A    
C65   O16   1.278376 A    
C58   C59   1.380798 A    
C43   H28   1.070060 S    
C35   C39   1.419362 A    
C30   C31   1.397641 A    
C15   C19   1.399148 A    
C47   C54   1.440208 A    
O17   C66   1.268678 A    
