data_mof_unit_pretest_1600.cif
_audit_creation_date              2012-10-26T18:01:51-0400
_audit_creation_method            fapswitch 2.2
_symmetry_space_group_name_H-M    P1
_symmetry_Int_Tables_number       1
_space_group_crystal_system       triclinic
_cell_length_a                    30.73369
_cell_length_b                    30.72978
_cell_length_c                    22.328272
_cell_angle_alpha                 89.979472
_cell_angle_beta                  46.199272
_cell_angle_gamma                 89.945487
_cell_volume                      15220.0714973

loop_
_atom_site_label
_atom_site_type_symbol
_atom_type_description
_atom_site_fract_x
_atom_site_fract_y
_atom_site_fract_z
_atom_type_partial_charge
C1    C     C_R   0.190600 0.190640 0.499975 0.546631
C2    C     C_R   0.842198 0.156658 0.499653 0.017489
C3    C     C_R   0.940224 0.940913 0.500293 0.553356
C4    C     C_R   0.059876 0.059210 0.499892 0.561568
C5    C     C_R   0.940464 0.059513 0.500069 0.560947
C6    C     C_R   0.559616 0.559426 0.499984 0.552781
C7    C     C_R   0.440364 0.559458 0.500184 0.547237
C8    C     C_R   0.170491 0.250009 0.658820 0.546225
C9    C     C_R   0.829438 0.250105 0.341174 0.548717
C10   C     C_R   0.670419 0.749945 0.658830 0.547219
C11   C     C_R   0.329460 0.750057 0.341182 0.549003
C12   C     C_R   0.523325 0.209798 0.956277 0.221973
C13   C     C_R   0.657617 0.656626 0.500842 0.017435
C14   C     C_R   0.478023 0.209817 0.043716 0.221422
C15   C     C_R   0.023579 0.708430 0.955945 0.220484
C16   C     C_R   0.977900 0.708322 0.043416 0.221586
C17   C     C_R   0.543442 0.249417 0.912621 -0.042402
C18   C     C_R   0.455521 0.249498 0.087308 -0.042896
C19   C     C_R   0.045020 0.748174 0.912548 -0.040981
C20   C     C_R   0.955803 0.747982 0.087223 -0.041805
C21   C     C_R   0.520510 0.289075 0.956213 0.218813
C22   C     C_R   0.475266 0.289059 0.043659 0.220317
C23   C     C_R   0.023508 0.787710 0.956340 0.218529
C24   C     C_R   0.344866 0.657631 0.496246 0.013174
C25   C     C_R   0.977010 0.787608 0.043707 0.216684
C26   C     C_1   0.588248 0.249490 0.822855 0.024140
C27   C     C_1   0.411130 0.249600 0.177089 0.024128
C28   C     C_1   0.089563 0.748553 0.822796 0.027085
C29   C     C_1   0.910912 0.748277 0.177037 0.027016
C30   C     C_1   0.373938 0.249713 0.252003 -0.011660
C31   C     C_1   0.625819 0.249714 0.747948 -0.007720
C32   C     C_1   0.873599 0.748965 0.251964 -0.007088
C33   C     C_1   0.126602 0.749118 0.747910 -0.011641
C34   C     C_3   0.408861 0.156134 0.098326 0.009686
C35   C     C_R   0.134352 0.120846 0.553839 -0.161779
C36   C     C_3   0.380394 0.116932 0.155844 -0.375997
C37   C     C_3   0.594255 0.157518 0.902535 0.008271
C38   C     C_3   0.621700 0.116415 0.849927 -0.365716
C39   C     C_3   0.908570 0.654940 0.096585 0.009282
C40   C     C_3   0.882411 0.613622 0.148531 -0.366205
C41   C     C_3   0.094637 0.655948 0.900157 0.008662
C42   C     C_3   0.123031 0.616031 0.844271 -0.371586
C43   C     C_3   0.280984 0.506757 0.648211 0.008069
C44   C     C_3   0.248685 0.538060 0.636660 -0.388980
C45   C     C_3   0.711982 0.476858 0.306504 0.011806
C46   C     C_R   0.812226 0.119410 0.549543 -0.147489
C47   C     C_3   0.758346 0.506381 0.232947 -0.378799
C48   C     C_3   0.764562 0.953183 0.675293 -0.005792
C49   C     C_3   0.718232 0.979271 0.754556 -0.376006
C50   C     C_3   0.241586 0.011264 0.394619 -0.008643
C51   C     C_3   0.297350 0.028304 0.309656 -0.357880
C52   C     C_3   0.334981 0.426830 0.414512 -0.008028
C53   C     C_3   0.343080 0.407749 0.344505 -0.354376
C54   C     C_3   0.680833 0.433502 0.555515 -0.004628
C55   C     C_3   0.675481 0.420525 0.626134 -0.355783
C56   C     C_3   0.842740 0.915792 0.381633 0.007691
C57   C     C_R   0.686653 0.617926 0.455795 -0.148712
C58   C     C_3   0.845193 0.936911 0.317802 -0.372156
C59   C     C_3   0.144388 0.921532 0.613457 -0.013949
C60   C     C_3   0.133164 0.900224 0.684527 -0.350852
C61   C     C_3   0.587019 0.344595 0.903246 0.008508
C62   C     C_3   0.611978 0.385233 0.849577 -0.371460
C63   C     C_3   0.404715 0.341095 0.094000 0.009603
C64   C     C_3   0.373657 0.380581 0.150623 -0.376243
C65   C     C_3   0.088770 0.842453 0.915164 0.009751
C66   C     C_3   0.125329 0.878755 0.851849 -0.382451
C67   C     C_3   0.908672 0.840593 0.089333 0.007574
C68   C     C_R   0.361155 0.618788 0.451619 -0.153927
C69   C     C_3   0.875842 0.879364 0.147412 -0.379443
C70   C     C_1   0.182951 0.105851 0.309724 0.209304
C71   C     C_1   0.977270 0.163198 0.495093 0.187136
C72   C     C_1   0.529056 0.663047 0.492069 0.190327
C73   C     C_1   0.324476 0.613608 0.688143 0.199104
C74   C     C_3   0.091071 0.344359 0.904524 -0.014713
C75   C     C_3   0.119211 0.384124 0.848292 -0.348338
C76   C     C_3   0.913579 0.154319 0.088672 -0.008161
C77   C     C_3   0.887036 0.113481 0.141945 -0.362594
C78   C     C_3   0.606189 0.834821 0.904774 -0.005091
C79   C     C_R   0.101761 0.088825 0.554126 -0.167178
C80   C     C_3   0.641623 0.873731 0.848080 -0.370087
C81   C     C_3   0.396711 0.662859 0.089372 -0.007961
C82   C     C_3   0.363020 0.622651 0.142766 -0.363447
C83   C     C_R   0.844277 0.087375 0.550311 -0.151117
C84   C     C_R   0.654711 0.585849 0.455093 -0.161624
C85   C     C_R   0.808967 0.190567 0.500736 0.550217
C86   C     C_R   0.393384 0.586689 0.451984 -0.163368
C87   C     C_R   0.092519 0.092625 0.500831 0.024514
C88   C     C_R   0.906681 0.091837 0.499288 0.018054
C89   C     C_R   0.593244 0.591800 0.501034 0.023823
C90   C     C_R   0.407231 0.592557 0.499687 0.016304
C91   C     C_R   0.109233 0.131270 0.456510 0.036135
C92   C     C_R   0.936640 0.126493 0.443364 0.017838
C93   C     C_R   0.563672 0.627964 0.553166 0.017226
C94   C     C_R   0.395066 0.632775 0.537752 0.036741
C95   C     C_3   0.142505 0.141040 0.367961 -0.130049
C96   C     C_R   0.690991 0.690557 0.499351 0.548475
C97   C     C_3   0.980754 0.158715 0.426150 -0.141208
C98   C     C_3   0.522430 0.660575 0.563974 -0.141777
C99   C     C_3   0.366003 0.646076 0.623297 -0.126486
C100  C     C_3   0.175234 0.176745 0.371374 -0.275804
C101  C     C_3   0.945488 0.193853 0.426559 -0.257893
C102  C     C_3   0.557766 0.695734 0.563208 -0.257396
C103  C     C_3   0.333567 0.681579 0.618945 -0.271933
C104  C     C_R   0.979070 0.289829 0.043567 -0.144686
C105  C     C_R   0.021510 0.211088 0.956237 -0.147400
C106  C     C_R   0.485446 0.788676 0.043529 -0.144907
C107  C     C_R   0.309584 0.690621 0.499624 0.548541
C108  C     C_R   0.514072 0.711346 0.956411 -0.147784
C109  C     C_R   0.956718 0.250375 0.087215 -0.002815
C110  C     C_R   0.043712 0.250509 0.912625 -0.003056
C111  C     C_R   0.456303 0.749935 0.087279 -0.002149
C112  C     C_R   0.543156 0.750086 0.912690 -0.003624
C113  C     C_R   0.329438 0.249937 0.341201 0.534451
C114  C     C_R   0.670541 0.249948 0.658766 0.537222
C115  C     C_R   0.829307 0.749750 0.341187 0.540033
C116  C     C_R   0.170727 0.749793 0.658756 0.534754
C117  C     C_R   0.977503 0.210784 0.043435 0.270265
C118  C     C_R   0.138610 0.163720 0.459470 0.021824
C119  C     C_R   0.023036 0.290115 0.956383 0.271924
C120  C     C_R   0.470090 0.711138 0.043629 0.270562
C121  C     C_R   0.529346 0.788874 0.956377 0.270860
C122  C     C_1   0.911806 0.250593 0.176921 -0.013825
C123  C     C_1   0.088305 0.250154 0.822977 -0.015866
C124  C     C_1   0.411668 0.750235 0.176959 -0.013172
C125  C     C_1   0.587860 0.749798 0.823019 -0.017328
C126  C     C_1   0.125748 0.250076 0.748044 -0.011907
C127  C     C_1   0.874183 0.250399 0.251890 -0.011153
C128  C     C_1   0.625478 0.749845 0.748074 -0.014517
C129  C     C_R   0.904873 0.158434 0.443681 0.000101
C130  C     C_1   0.374187 0.750214 0.251917 -0.009820
C131  C     C_R   0.313635 0.378770 0.550634 -0.021690
C132  C     C_R   0.686970 0.374987 0.441572 -0.016225
C133  C     C_R   0.826553 0.885919 0.514081 -0.052662
C134  C     C_R   0.184230 0.881805 0.457988 -0.011267
C135  C     C_R   0.343059 0.342121 0.500353 0.008403
C136  C     C_R   0.656527 0.342026 0.500658 0.014231
C137  C     C_R   0.843347 0.842353 0.499505 -0.012262
C138  C     C_R   0.157131 0.842300 0.498959 0.006927
C139  C     C_R   0.404080 0.335793 0.456907 -0.161250
C140  C     C_R   0.595398 0.659923 0.552793 -0.004825
C141  C     C_R   0.593899 0.338462 0.552905 -0.160221
C142  C     C_R   0.894586 0.831350 0.485343 -0.149570
C143  C     C_R   0.098878 0.833541 0.532514 -0.163356
C144  C     C_R   0.436026 0.368493 0.456460 -0.160888
C145  C     C_R   0.562251 0.371070 0.552528 -0.157133
C146  C     C_R   0.926956 0.863834 0.485187 -0.152185
C147  C     C_R   0.066529 0.865921 0.533083 -0.170688
C148  C     C_R   0.406511 0.406881 0.502230 -0.019510
C149  C     C_R   0.593479 0.406147 0.496804 -0.023307
C150  C     C_R   0.907552 0.907373 0.501239 0.004140
C151  C     C_R   0.365869 0.665076 0.534109 0.019984
C152  C     C_R   0.093025 0.906671 0.497624 -0.015662
C153  C     C_R   0.344071 0.410075 0.554210 0.016281
C154  C     C_R   0.656787 0.405450 0.435907 -0.007951
C155  C     C_R   0.855866 0.916728 0.518323 -0.066654
C156  C     C_R   0.153340 0.913130 0.455159 0.040205
C157  C     C_3   0.306256 0.446551 0.565603 0.148147
C158  C     C_3   0.701975 0.440699 0.407554 0.135996
C159  C     C_3   0.817715 0.953522 0.531371 0.158606
C160  C     C_3   0.181861 0.950377 0.460596 0.135482
C161  C     C_R   0.310043 0.309346 0.498804 0.554895
C162  C     C_R   0.155427 0.157753 0.503035 0.016073
C163  C     C_R   0.689791 0.309310 0.501623 0.554019
C164  C     C_R   0.809692 0.809378 0.499516 0.544417
C165  C     C_R   0.190061 0.809405 0.500901 0.558494
C166  C     C_3   0.273644 0.411805 0.559472 0.194094
C167  C     C_3   0.733030 0.407095 0.418469 0.200442
C168  C     C_3   0.783546 0.918315 0.527697 0.191287
C169  C     C_3   0.215713 0.915652 0.464942 0.168291
C170  C     C_R   0.560301 0.440842 0.499391 0.540842
C171  C     C_R   0.439694 0.441049 0.500397 0.545184
C172  C     C_R   0.059755 0.940621 0.499619 0.553118
Cu1   Cu    Cu3+1 0.219120 0.280920 0.500000 0.973188
Cu2   Cu    Cu3+1 0.458970 0.500000 0.582030 0.951650
Cu3   Cu    Cu3+1 0.041030 1.000000 0.417970 0.992709
Cu4   Cu    Cu3+1 0.958970 0.000000 0.582030 0.928045
Cu5   Cu    Cu3+1 0.780880 0.280920 0.500000 0.957713
Cu6   Cu    Cu3+1 0.719120 0.780920 0.500000 0.958656
Cu7   Cu    Cu3+1 0.280880 0.780920 0.500000 0.966951
Cu8   Cu    Cu3+1 0.280880 0.219080 0.500020 0.935458
Cu9   Cu    Cu3+1 0.719120 0.219080 0.499980 0.949965
Cu10  Cu    Cu3+1 0.780880 0.719080 0.500020 0.939830
Cu11  Cu    Cu3+1 0.219120 0.719080 0.499980 0.934937
Cu12  Cu    Cu3+1 0.541030 0.500000 0.417970 0.909597
H1    H     H_    0.962541 0.320430 0.077014 0.130023
H2    H     H_    0.513537 0.369321 0.596500 0.137973
H3    H     H_    0.139421 0.864441 0.675006 0.177940
H4    H     H_    0.624489 0.320569 0.871805 0.117993
H5    H     H_    0.570542 0.353596 0.964404 0.167746
H6    H     H_    0.575919 0.410124 0.879432 0.161020
H7    H     H_    0.649193 0.398861 0.841558 0.097052
H8    H     H_    0.629651 0.377016 0.787598 0.155531
H9    H     H_    0.370336 0.314879 0.121675 0.114605
H10   H     H_    0.422304 0.350251 0.032275 0.171807
H11   H     H_    0.406652 0.407340 0.125615 0.160958
H12   H     H_    0.337199 0.391970 0.155074 0.095758
H13   H     H_    0.966731 0.855027 0.472738 0.116016
H14   H     H_    0.353636 0.371764 0.213603 0.154604
H15   H     H_    0.120988 0.816638 0.899189 0.114257
H16   H     H_    0.065042 0.855837 0.977617 0.177973
H17   H     H_    0.094888 0.904755 0.864051 0.158729
H18   H     H_    0.156591 0.892906 0.855646 0.100264
H19   H     H_    0.152177 0.865486 0.788497 0.155730
H20   H     H_    0.874663 0.814603 0.113103 0.116635
H21   H     H_    0.929265 0.850863 0.026496 0.169544
H22   H     H_    0.908210 0.906118 0.125626 0.156876
H23   H     H_    0.840898 0.891198 0.149015 0.096097
H24   H     H_    0.020734 0.859512 0.562357 0.123413
H25   H     H_    0.853680 0.869517 0.210997 0.159526
H26   H     H_    0.127008 0.319198 0.875330 0.130277
H27   H     H_    0.074152 0.353881 0.965740 0.128671
H28   H     H_    0.084927 0.410231 0.875887 0.166155
H29   H     H_    0.156800 0.396467 0.840575 0.117237
H30   H     H_    0.137175 0.375365 0.786321 0.165351
H31   H     H_    0.934110 0.145307 0.025310 0.124457
H32   H     H_    0.876104 0.177913 0.116775 0.133985
H33   H     H_    0.865542 0.121556 0.205964 0.169207
H34   H     H_    0.852489 0.099419 0.144538 0.094245
H35   H     H_    0.332800 0.470979 0.514559 0.069863
H36   H     H_    0.923088 0.088968 0.115094 0.159505
H37   H     H_    0.637223 0.806232 0.876083 0.129217
H38   H     H_    0.590572 0.842006 0.966014 0.127154
H39   H     H_    0.612650 0.903228 0.875539 0.161652
H40   H     H_    0.681168 0.879594 0.839797 0.086361
H41   H     H_    0.657765 0.867331 0.786436 0.157969
H42   H     H_    0.415629 0.655961 0.026125 0.124768
H43   H     H_    0.363763 0.690208 0.117590 0.133457
H44   H     H_    0.342989 0.628740 0.206673 0.166238
H45   H     H_    0.326358 0.614682 0.145670 0.095478
H46   H     H_    0.682966 0.469835 0.448394 0.083443
H47   H     H_    0.394390 0.594536 0.115807 0.159356
H48   H     H_    0.844231 0.976382 0.477979 0.141831
H49   H     H_    0.147617 0.971053 0.516106 0.071976
H50   H     H_    0.225958 0.407023 0.618818 0.159705
H51   H     H_    0.778662 0.397641 0.358920 0.167604
H52   H     H_    0.736427 0.912847 0.587663 0.148550
H53   H     H_    0.038220 0.180507 0.922719 0.123696
H54   H     H_    0.264992 0.915368 0.408822 0.156637
H55   H     H_    0.143785 0.116525 0.592079 0.127391
H56   H     H_    0.763866 0.116124 0.590565 0.133688
H57   H     H_    0.734415 0.613383 0.418327 0.129771
H58   H     H_    0.348232 0.613028 0.417834 0.133345
H59   H     H_    0.086548 0.060193 0.592556 0.114507
H60   H     H_    0.820387 0.059743 0.591528 0.169942
H61   H     H_    0.678219 0.557013 0.417939 0.106077
H62   H     H_    0.404992 0.556617 0.418362 0.113007
H63   H     H_    0.112708 0.153599 0.360298 0.112748
H64   H     H_    0.474337 0.818778 0.076872 0.128081
H65   H     H_    0.027265 0.153768 0.364642 0.112065
H66   H     H_    0.475123 0.657265 0.624612 0.108530
H67   H     H_    0.398504 0.659114 0.625420 0.111831
H68   H     H_    0.224361 0.171157 0.331532 0.124308
H69   H     H_    0.921721 0.217675 0.478438 0.156892
H70   H     H_    0.584139 0.717994 0.508748 0.157161
H71   H     H_    0.283791 0.677614 0.662747 0.125513
H72   H     H_    0.163447 0.209993 0.366839 0.135898
H73   H     H_    0.971463 0.208696 0.364472 0.130789
H74   H     H_    0.530784 0.712359 0.624078 0.128812
H75   H     H_    0.525419 0.681235 0.922981 0.124249
H76   H     H_    0.348528 0.714898 0.617046 0.137159
H77   H     H_    0.424650 0.146142 0.037987 0.172207
H78   H     H_    0.373353 0.181644 0.127440 0.111427
H79   H     H_    0.363283 0.126296 0.217088 0.156706
H80   H     H_    0.342153 0.104805 0.164905 0.119408
H81   H     H_    0.414188 0.090486 0.128634 0.163864
H82   H     H_    0.579099 0.150192 0.963453 0.166933
H83   H     H_    0.630008 0.182981 0.869862 0.114773
H84   H     H_    0.638076 0.122927 0.788167 0.162465
H85   H     H_    0.660288 0.105535 0.841119 0.092290
H86   H     H_    0.427667 0.306713 0.420151 0.136396
H87   H     H_    0.587451 0.090091 0.881152 0.165045
H88   H     H_    0.924080 0.647483 0.035482 0.167553
H89   H     H_    0.871982 0.679810 0.129546 0.114625
H90   H     H_    0.865671 0.620223 0.210482 0.160358
H91   H     H_    0.844285 0.601936 0.156940 0.090612
H92   H     H_    0.917512 0.587858 0.116994 0.167480
H93   H     H_    0.079894 0.647141 0.960315 0.169577
H94   H     H_    0.129829 0.681775 0.869256 0.113384
H95   H     H_    0.139143 0.624127 0.783147 0.157916
H96   H     H_    0.161965 0.604841 0.834401 0.122746
H97   H     H_    0.569284 0.311895 0.596794 0.131887
H98   H     H_    0.089461 0.589319 0.873418 0.164753
H99   H     H_    0.330238 0.513075 0.601227 0.151629
H100  H     H_    0.264846 0.513148 0.709767 0.188531
H101  H     H_    0.199275 0.532443 0.685579 0.163487
H102  H     H_    0.258113 0.572153 0.641226 0.125161
H103  H     H_    0.264621 0.533374 0.574796 0.144346
H104  H     H_    0.676122 0.497857 0.359807 0.148368
H105  H     H_    0.691985 0.455617 0.290570 0.170305
H106  H     H_    0.794311 0.486559 0.177353 0.165770
H107  H     H_    0.736227 0.526703 0.219228 0.102405
H108  H     H_    0.910202 0.798015 0.473232 0.142161
H109  H     H_    0.778892 0.528087 0.247495 0.152021
H110  H     H_    0.804581 0.948474 0.666275 0.170059
H111  H     H_    0.744567 0.921040 0.683275 0.110948
H112  H     H_    0.676576 0.983390 0.767218 0.160681
H113  H     H_    0.706828 0.962026 0.807614 0.090731
H114  H     H_    0.736703 0.011848 0.748217 0.157729
H115  H     H_    0.254088 0.004886 0.430327 0.128119
H116  H     H_    0.206006 0.036729 0.426984 0.148828
H117  H     H_    0.287223 0.034587 0.271439 0.195243
H118  H     H_    0.312330 0.059079 0.316723 0.095384
H119  H     H_    0.077340 0.802556 0.561703 0.139533
H120  H     H_    0.334328 0.004013 0.277458 0.152149
H121  H     H_    0.373578 0.415669 0.405438 0.123284
H122  H     H_    0.336370 0.462869 0.409357 0.124469
H123  H     H_    0.306059 0.418844 0.349944 0.155615
H124  H     H_    0.386819 0.418524 0.283734 0.096889
H125  H     H_    0.342710 0.371641 0.347195 0.176429
H126  H     H_    0.638916 0.422867 0.572646 0.124320
H127  H     H_    0.684167 0.469535 0.549985 0.131626
H128  H     H_    0.715942 0.431417 0.612731 0.160572
H129  H     H_    0.634852 0.435864 0.684852 0.090975
H130  H     H_    0.483731 0.364159 0.419570 0.134598
H131  H     H_    0.671350 0.384610 0.633900 0.171895
H132  H     H_    0.848315 0.880070 0.370821 0.163120
H133  H     H_    0.881104 0.928816 0.371602 0.113378
H134  H     H_    0.840372 0.972750 0.326744 0.160175
H135  H     H_    0.889137 0.929586 0.254365 0.100184
H136  H     H_    0.808151 0.924278 0.324539 0.160242
H137  H     H_    0.110400 0.908556 0.614011 0.126854
H138  H     H_    0.137781 0.957173 0.625030 0.120683
H139  H     H_    0.165215 0.913388 0.687599 0.153579
H140  H     H_    0.086387 0.907051 0.744147 0.102915
N1    N     N_1   0.214610 0.078214 0.263740 -0.309196
N2    N     N_1   0.974369 0.166721 0.549373 -0.290641
N3    N     N_1   0.534375 0.664970 0.435511 -0.286647
N4    N     N_1   0.291773 0.588325 0.739691 -0.343715
O1    O     O_R   0.178830 0.231030 0.500000 -0.502042
O2    O     O_R   0.920260 0.045080 0.569280 -0.503928
O3    O     O_R   0.579740 0.545080 0.430720 -0.519334
O4    O     O_R   0.420260 0.545080 0.569280 -0.513962
O5    O     O_R   0.010480 0.045040 0.569280 -0.508395
O6    O     O_R   0.989520 0.045040 0.430720 -0.513439
O7    O     O_R   0.510480 0.545040 0.569280 -0.506783
O8    O     O_R   0.489520 0.545040 0.430720 -0.495769
O9    O     O_R   0.230990 0.178800 0.500020 -0.517389
O10   O     O_R   0.769010 0.178800 0.499980 -0.508275
O11   O     O_R   0.730990 0.678800 0.500020 -0.512149
O12   O     O_R   0.821170 0.231030 0.500000 -0.513689
O13   O     O_R   0.269010 0.678800 0.499980 -0.516428
O14   O     O_R   0.283780 0.276120 0.380310 -0.516235
O15   O     O_R   0.716220 0.276120 0.619690 -0.514216
O16   O     O_R   0.783780 0.776120 0.380310 -0.509043
O17   O     O_R   0.216220 0.776120 0.619690 -0.512854
O18   O     O_R   0.335940 0.223900 0.380320 -0.501205
O19   O     O_R   0.664060 0.223900 0.619680 -0.501828
O20   O     O_R   0.835940 0.723900 0.380320 -0.500906
O21   O     O_R   0.164060 0.723900 0.619680 -0.500713
O22   O     O_R   0.269010 0.321200 0.499990 -0.470524
O23   O     O_R   0.678830 0.731030 0.500000 -0.512926
O24   O     O_R   0.730990 0.321200 0.500010 -0.472792
O25   O     O_R   0.769010 0.821200 0.499990 -0.493141
O26   O     O_R   0.230990 0.821200 0.500010 -0.469632
O27   O     O_R   0.321170 0.268970 0.500010 -0.516258
O28   O     O_R   0.678830 0.268970 0.499990 -0.514998
O29   O     O_R   0.821170 0.768970 0.500010 -0.515955
O30   O     O_R   0.178830 0.768970 0.499990 -0.519443
O31   O     O_R   0.164060 0.276100 0.619690 -0.494823
O32   O     O_R   0.835940 0.276100 0.380310 -0.504012
O33   O     O_R   0.664060 0.776100 0.619690 -0.498123
O34   O     O_R   0.321170 0.731030 0.500000 -0.502876
O35   O     O_R   0.335940 0.776100 0.380310 -0.504697
O36   O     O_R   0.216220 0.223880 0.619710 -0.508450
O37   O     O_R   0.783780 0.223880 0.380290 -0.502118
O38   O     O_R   0.716220 0.723880 0.619710 -0.505596
O39   O     O_R   0.283780 0.723880 0.380290 -0.504490
O40   O     O_R   0.579750 0.454880 0.430680 -0.533219
O41   O     O_R   0.420250 0.454880 0.569320 -0.496279
O42   O     O_R   0.079750 0.954880 0.430680 -0.480292
O43   O     O_R   0.920250 0.954880 0.569320 -0.523894
O44   O     O_3   0.457795 0.170893 0.086654 -0.541255
O45   O     O_R   0.510480 0.454840 0.569230 -0.509174
O46   O     O_3   0.545138 0.170782 0.913484 -0.539859
O47   O     O_3   0.957135 0.669290 0.086066 -0.539646
O48   O     O_3   0.044845 0.669499 0.912851 -0.540918
O49   O     O_3   0.266999 0.463141 0.647537 -0.580178
O50   O     O_3   0.740918 0.450594 0.322064 -0.577352
O51   O     O_3   0.780437 0.976735 0.608044 -0.575838
O52   O     O_3   0.220979 0.973413 0.384849 -0.550381
O53   O     O_3   0.278072 0.413931 0.491473 -0.550168
O54   O     O_3   0.733880 0.414686 0.480795 -0.550464
O55   O     O_3   0.786042 0.924921 0.462082 -0.551454
O56   O     O_R   0.489520 0.454840 0.430770 -0.516687
O57   O     O_3   0.204591 0.913048 0.538426 -0.556070
O58   O     O_3   0.539538 0.327932 0.913257 -0.547720
O59   O     O_3   0.452276 0.327980 0.086663 -0.546695
O60   O     O_3   0.046653 0.826574 0.913173 -0.551753
O61   O     O_3   0.953581 0.826435 0.086943 -0.551324
O62   O     O_3   0.043235 0.329203 0.914030 -0.543408
O63   O     O_3   0.957404 0.171742 0.085934 -0.546209
O64   O     O_3   0.556500 0.827493 0.913962 -0.543547
O65   O     O_3   0.443138 0.672514 0.086245 -0.546122
O66   O     O_R   0.010480 0.954840 0.569230 -0.526708
O67   O     O_R   0.989520 0.954840 0.430770 -0.511697
O68   O     O_R   0.079740 0.045080 0.430720 -0.489975

loop_
_geom_bond_atom_site_label_1
_geom_bond_atom_site_label_2
_ccdc_geom_bond_type
Cu3   O68   S    
C99   C103  S    
C105  C110  A    
C133  C137  A    
C64   H14   S    
C142  C146  A    
C82   H47   S    
C47   H107  S    
C79   C87   A    
C159  O51   S    
C62   H6    S    
C4    C87   S    
C171  O41   A    
C135  C139  A    
C69   H22   S    
Cu7   O34   S    
C154  C158  S    
C87   C91   A    
C138  C143  A    
Cu5   O24   S    
C40   H92   S    
C64   H11   S    
C65   O60   S    
C36   H81   S    
C108  C120  A    
C54   H127  S    
C50   H116  S    
C41   H94   S    
C65   H15   S    
C66   H17   S    
Cu12  O40   S    
C152  C156  A    
C131  C166  S    
C134  C169  S    
C101  H73   S    
C7    O4    A    
C79   H59   S    
C45   O50   S    
C38   H87   S    
Cu5   O15   S    
Cu10  O29   S    
C67   H21   S    
C141  C145  A    
C1    O1    A    
C83   C88   A    
C111  C124  S    
C59   C60   S    
C3    O43   A    
C21   C22   A    
C61   H5    S    
C165  O30   A    
C9    O32   A    
C39   O47   S    
C107  O34   A    
C158  C167  S    
C10   O38   A    
C70   N1    T    
C45   C47   S    
Cu6   O23   S    
C8    O31   A    
C75   H28   S    
C85   O12   A    
C35   H55   S    
C60   H140  S    
C99   H67   S    
C86   C90   A    
Cu2   Cu12  S    
C19   C23   A    
C123  C126  T    
C97   H65   S    
C120  O65   S    
C98   C102  S    
C82   H44   S    
C83   H60   S    
C61   H4    S    
C17   C21   A    
Cu9   O19   S    
C167  H51   S    
C43   C44   S    
C37   C38   S    
C24   C151  A    
C110  C123  S    
Cu3   Cu4   S    
C16   C20   A    
C48   O51   S    
C91   C118  A    
C124  C130  T    
C24   C107  S    
C81   O65   S    
C54   O54   S    
C112  C125  S    
Cu6   Cu10  S    
C113  O14   A    
C43   H99   S    
C8    C126  S    
C165  O26   A    
C67   O61   S    
C82   H45   S    
C115  O16   A    
C169  H54   S    
C138  C165  S    
C148  C153  A    
C34   O44   S    
Cu4   O2    S    
C48   H110  S    
C118  C162  A    
C33   C116  S    
C116  O17   A    
C164  O29   A    
C62   H8    S    
C63   O59   S    
C74   H27   S    
C96   O23   A    
C144  H130  S    
C80   H39   S    
C76   H31   S    
C77   H33   S    
C8    O36   A    
C37   H82   S    
C38   H85   S    
C163  O28   A    
C113  O18   A    
C71   N2    T    
C16   O47   S    
C105  H53   S    
C84   H61   S    
Cu2   O41   S    
C100  H72   S    
C56   H132  S    
C30   C113  S    
C137  C142  A    
C170  O45   A    
C103  H76   S    
Cu1   O14   S    
C72   N3    T    
C44   H101  S    
C71   C97   S    
C45   H104  S    
C61   O58   S    
C12   O46   S    
Cu12  O56   S    
C11   O35   A    
Cu8   O9    S    
C152  C172  S    
C78   C80   S    
C13   C57   A    
C2    C129  A    
Cu7   O35   S    
C122  C127  T    
C95   H63   S    
Cu3   O42   S    
C132  C154  A    
C52   O53   S    
C40   H90   S    
Cu8   O18   S    
C104  C119  A    
C161  O22   A    
Cu5   O32   S    
C4    O5    A    
C146  C150  A    
C58   H136  S    
C135  C161  S    
Cu11  O30   S    
C6    O7    A    
C10   C128  S    
Cu5   O12   S    
C137  C164  S    
C92   C97   S    
C106  C111  A    
C121  O64   S    
C142  H108  S    
C81   H42   S    
C13   C96   S    
C155  C159  S    
C36   H79   S    
C156  C160  S    
C133  C168  S    
C39   C40   S    
C51   H117  S    
C170  O40   A    
C56   H133  S    
C10   O33   A    
C5    O6    A    
C7    C90   S    
C78   O64   S    
C75   H29   S    
C102  H74   S    
C7    O8    A    
C157  O49   S    
Cu6   O33   S    
C42   H96   S    
C132  C136  A    
C63   H10   S    
Cu12  O3    S    
C19   C28   S    
C78   H38   S    
C53   H125  S    
C150  C155  A    
C59   H138  S    
C80   H41   S    
C52   C53   S    
C56   O55   S    
Cu3   O67   S    
C44   H103  S    
C54   C55   S    
C45   H105  S    
C31   C114  S    
C34   H77   S    
C18   C22   A    
C37   O46   S    
C161  O27   A    
C110  C119  A    
Cu11  O13   S    
C62   H7    S    
C25   O61   S    
C112  C121  A    
Cu9   O28   S    
Cu5   Cu9   S    
C64   H12   S    
C35   C79   A    
C56   C58   S    
C34   C36   S    
C89   C93   A    
C61   C62   S    
C47   H109  S    
C41   H93   S    
C91   C95   S    
C63   C64   S    
C66   H18   S    
C116  O21   A    
C52   H121  S    
C108  H75   S    
C163  O24   A    
C114  O15   A    
C101  C129  S    
C166  H50   S    
C4    O68   A    
C103  H71   S    
C41   C42   S    
Cu12  O8    S    
C132  C167  S    
C109  C117  A    
C15   C19   A    
C9    C127  S    
C53   H123  S    
C29   C32   T    
C20   C25   A    
C117  O63   S    
C148  C171  S    
C2    C85   S    
C59   O57   S    
C57   H57   S    
Cu3   O6    S    
C134  C156  A    
C12   C17   A    
C160  C169  S    
C58   H135  S    
C103  C151  S    
C114  O19   A    
C39   H89   S    
Cu2   O4    S    
C105  C117  A    
C14   O44   S    
C23   O60   S    
C90   C94   A    
C139  H86   S    
C21   O58   S    
C69   H23   S    
C13   C140  A    
Cu1   O1    S    
C98   H66   S    
C95   C100  S    
Cu1   O31   S    
Cu1   Cu8   S    
C94   C151  A    
C2    C46   A    
C108  C112  A    
C102  H70   S    
Cu4   O5    S    
C149  C154  A    
C54   H126  S    
C134  C138  A    
C50   H115  S    
C55   H131  S    
C80   H40   S    
C65   H16   S    
C76   H32   S    
Cu7   O26   S    
C50   C51   S    
C57   C84   A    
C6    O3    A    
C167  O54   S    
C102  C140  S    
C169  O57   S    
Cu10  O38   S    
Cu1   O22   S    
C48   C49   S    
C60   H3    S    
C160  H49   S    
C100  C118  S    
C11   C130  S    
C15   O48   S    
C5    O2    A    
C3    C150  S    
C168  O55   S    
C60   H139  S    
C44   H102  S    
C40   H91   S    
C159  H48   S    
C92   C129  A    
C93   C140  A    
C104  C109  A    
C76   O63   S    
C70   C95   S    
C32   C115  S    
C153  C157  S    
C49   H114  S    
C77   H34   S    
C119  O62   S    
C24   C68   A    
C46   C83   A    
C166  O53   S    
C50   O52   S    
C5    C88   S    
C106  H64   S    
C47   H106  S    
C145  C149  A    
C55   H128  S    
C136  C163  S    
C171  O56   A    
C68   C86   A    
C14   C18   A    
Cu8   O27   S    
C101  H69   S    
C144  C148  A    
C158  H46   S    
C81   C82   S    
C72   C98   S    
Cu7   O17   S    
C143  C147  A    
C104  H1    S    
C136  C141  A    
C74   H26   S    
C17   C26   S    
C36   H80   S    
C131  C135  A    
C55   H129  S    
C28   C33   T    
C51   H120  S    
C22   O59   S    
C109  C122  S    
C3    O67   A    
C15   C16   A    
C157  H35   S    
C159  C168  S    
Cu8   O36   S    
C49   H112  S    
C37   H83   S    
C38   H84   S    
C67   H20   S    
C88   C92   A    
C68   H58   S    
C125  C128  T    
C63   H9    S    
C46   H56   S    
C160  O52   S    
C107  O13   A    
C143  H119  S    
Cu11  O21   S    
C26   C31   T    
C86   H62   S    
C59   H137  S    
C27   C30   T    
C147  H24   S    
C74   O62   S    
C42   H98   S    
Cu7   Cu11  S    
C20   C29   S    
C41   O48   S    
Cu2   O7    S    
C115  O20   A    
C35   C162  A    
C74   C75   S    
C34   H78   S    
C149  C170  S    
C131  C153  A    
C76   C77   S    
C172  O66   A    
C158  O50   S    
C111  C120  A    
C67   C69   S    
C58   H134  S    
C49   H113  S    
C164  O25   A    
C43   H100  S    
C139  C144  A    
Cu6   O16   S    
C141  H97   S    
C172  O42   A    
C96   O11   A    
Cu4   O66   S    
C48   H111  S    
C66   H19   S    
Cu10  O11   S    
C12   C14   A    
C65   C66   S    
C52   H122  S    
C69   H25   S    
C84   C89   A    
C1    O9    A    
C39   H88   S    
C73   C99   S    
C81   H43   S    
C133  C155  A    
C18   C27   S    
Cu2   O45   S    
Cu9   O10   S    
C100  H68   S    
C157  C166  S    
C1    C162  S    
C51   H118  S    
C77   H36   S    
Cu10  O20   S    
C6    C89   S    
C43   O49   S    
C75   H30   S    
C168  H52   S    
C145  H2    S    
C85   O10   A    
C146  H13   S    
C147  C152  A    
C42   H95   S    
C94   C99   S    
Cu4   O43   S    
C106  C121  A    
C23   C25   A    
C9    O37   A    
C78   H37   S    
C11   O39   A    
C73   N4    T    
C53   H124  S    
Cu9   O37   S    
Cu6   O25   S    
Cu11  O39   S    
C93   C98   S    
C97   C101  S    
