data_mof_unit_pretest_416.cif
_audit_creation_date              2012-12-10T18:10:22-0500
_audit_creation_method            fapswitch 2.2
_symmetry_space_group_name_H-M    P1
_symmetry_Int_Tables_number       1
_space_group_crystal_system       triclinic
_cell_length_a                    10.736738
_cell_length_b                    9.484448
_cell_length_c                    15.868029
_cell_angle_alpha                 90.01472
_cell_angle_beta                  88.588813
_cell_angle_gamma                 89.756476
_cell_volume                      1615.36886622

loop_
_atom_site_label
_atom_site_type_symbol
_atom_type_description
_atom_site_fract_x
_atom_site_fract_y
_atom_site_fract_z
_atom_type_partial_charge
C1    C     C_R   0.259835 0.499999 0.497776 0.789058
C2    C     C_3   0.592836 0.600022 0.950448 -0.357475
C3    C     C_3   0.587639 0.603650 0.048055 -0.437859
C4    C     C_1   0.495372 0.499169 0.824832 -0.061973
C5    C     C_1   0.496299 0.497150 0.175429 -0.034127
C6    C     C_1   0.498398 0.499390 0.250905 -0.130762
C7    C     C_3   0.066948 0.537090 0.584040 -0.369319
C8    C     C_3   0.072643 0.351813 0.469562 -0.366326
C9    C     C_3   0.923622 0.535033 0.584170 -0.393197
C10   C     C_3   0.929692 0.351312 0.469606 -0.381576
C11   C     C_3   0.073783 0.608609 0.431046 -0.383422
C12   C     C_3   0.121530 0.499340 0.495607 0.151625
C13   C     C_3   0.877707 0.498688 0.495240 0.167219
C14   C     C_R   0.499951 0.499948 0.340446 0.817599
C15   C     C_3   0.929900 0.608727 0.431129 -0.375816
C16   C     C_3   0.611488 0.082436 0.543259 -0.190048
C17   C     C_3   0.614381 0.916212 0.539703 -0.182666
C18   C     C_3   0.385219 0.084352 0.544747 -0.089546
C19   C     C_3   0.387950 0.916612 0.547932 -0.090138
C20   C     C_3   0.502295 0.083400 0.414860 -0.215068
C21   C     C_3   0.497901 0.916576 0.414945 -0.225330
C22   C     C_R   0.739788 0.499600 0.496942 0.746987
C23   C     C_R   0.499215 0.500020 0.659653 0.843674
C24   C     C_3   0.361741 0.537915 0.050524 -0.148380
C25   C     C_3   0.536329 0.346158 0.046431 -0.154784
C26   C     C_3   0.521449 0.346311 0.949135 -0.365345
C27   C     C_3   0.364046 0.543191 0.952227 -0.440120
C28   C     C_1   0.497201 0.499927 0.749275 -0.125210
C29   C     C_3   0.493042 0.493095 0.083124 0.157576
C30   C     C_3   0.493673 0.497335 0.916991 0.243491
Cu1   Cu    Cu3+1 0.499860 0.642410 0.500040 0.921460
Cu2   Cu    Cu3+1 0.499860 0.357590 0.500040 0.928871
H1    H     H_    0.290915 0.475346 0.924997 0.192279
H2    H     H_    0.444445 0.275213 0.930600 0.210908
H3    H     H_    0.886648 0.639849 0.604516 0.167751
H4    H     H_    0.897313 0.322139 0.405833 0.158797
H5    H     H_    0.106860 0.716171 0.447094 0.175026
H6    H     H_    0.111134 0.582894 0.366779 0.175545
H7    H     H_    0.895203 0.716201 0.447704 0.168122
H8    H     H_    0.897353 0.583985 0.366755 0.154219
H9    H     H_    0.616866 0.118847 0.609389 0.196649
H10   H     H_    0.630106 0.871438 0.602985 0.192391
H11   H     H_    0.697801 0.121715 0.511381 0.134692
H12   H     H_    0.697992 0.883513 0.501619 0.131455
H13   H     H_    0.421930 0.124653 0.379271 0.170160
H14   H     H_    0.412690 0.881042 0.382669 0.154618
H15   H     H_    0.587611 0.118801 0.379798 0.157857
H16   H     H_    0.578377 0.875431 0.376713 0.159371
H17   H     H_    0.304596 0.112027 0.504905 0.098649
H18   H     H_    0.304069 0.881951 0.513690 0.105734
H19   H     H_    0.637847 0.335730 0.058147 0.113644
H20   H     H_    0.343312 0.647526 0.073067 0.130892
H21   H     H_    0.608477 0.304883 0.918366 0.173290
H22   H     H_    0.343446 0.652701 0.931247 0.174127
H23   H     H_    0.560570 0.711407 0.069792 0.187241
H24   H     H_    0.682371 0.582478 0.072274 0.176892
H25   H     H_    0.576707 0.708121 0.925543 0.197306
H26   H     H_    0.687335 0.565856 0.928144 0.171308
H27   H     H_    0.097036 0.644135 0.601943 0.220441
H28   H     H_    0.109870 0.323381 0.405661 0.161896
H29   H     H_    0.101453 0.462144 0.632097 0.183714
H30   H     H_    0.104460 0.269337 0.513857 0.217255
H31   H     H_    0.888532 0.455774 0.630636 0.162947
H32   H     H_    0.895231 0.269458 0.514620 0.171499
N1    N     N_3   0.500250 0.143650 0.501830 -0.165074
N2    N     N_3   0.500250 0.856350 0.501830 -0.162597
O1    O     O_R   0.317570 0.620260 0.500050 -0.589805
O2    O     O_R   0.317570 0.379740 0.500050 -0.584764
O3    O     O_R   0.499890 0.620310 0.379470 -0.595674
O4    O     O_R   0.499890 0.379690 0.379470 -0.582297
O5    O     O_R   0.682190 0.620260 0.500020 -0.601964
O6    O     O_R   0.682190 0.379740 0.500020 -0.602531
O7    O     O_R   0.499870 0.620210 0.620600 -0.562742
O8    O     O_R   0.499870 0.379790 0.620600 -0.558189
C31   C     C_2   0.351843 0.152101 0.629575 0.906155
O9    O     O_2   0.422978 0.145668 0.688486 -0.572442
O10   O     O_R   0.235703 0.216993 0.641501 -0.809416
H33   H     H_    0.223273 0.256937 0.700399 0.321966
C32   C     C_2   0.367997 0.857771 0.636590 0.915828
O11   O     O_2   0.447402 0.870240 0.690013 -0.576293
O12   O     O_R   0.255074 0.793620 0.658267 -0.811503
H34   H     H_    0.251855 0.758865 0.718708 0.322912
C33   C     C_2   0.255011 0.450503 0.086087 0.898424
O13   O     O_2   0.223357 0.341684 0.051312 -0.582191
O14   O     O_R   0.192059 0.495894 0.159420 -0.779780
H35   H     H_    0.122981 0.429306 0.177859 0.328804
C34   C     C_2   0.479671 0.214459 0.085978 0.874266
O15   O     O_2   0.411359 0.220783 0.148659 -0.585172
O16   O     O_R   0.511152 0.082945 0.051513 -0.768067
H36   H     H_    0.469818 0.001974 0.082986 0.326398

loop_
_geom_bond_atom_site_label_1
_geom_bond_atom_site_label_2
_ccdc_geom_bond_type
C24   H20   S    
Cu1   N2    S    
C34   O15   D    
C18   C31   S    
C21   N2    S    
C24   C27   S    
O12   H34   S    
C2    H25   S    
Cu2   O6    S    
O10   H33   S    
C27   H1    S    
C18   N1    S    
Cu1   O1    S    
C17   N2    S    
C24   C33   S    
Cu2   O8    S    
C5    C6    T    
Cu1   O7    S    
C25   C34   S    
C1    O2    A    
C19   N2    S    
C11   H5    S    
C18   C19   S    
C22   O6    A    
C3    C29   S    
C9    C13   S    
C24   C29   S    
C7    H29   S    
C17   H10   S    
C11   C15   S    
C26   H2    S    
C33   O13   D    
C16   C17   S    
C20   H13   S    
Cu2   O2    S    
C21   H16   S    
Cu1   O5    S    
C27   C30   S    
C14   O4    A    
C1    C12   S    
C3    H23   S    
C23   O7    A    
C7    H27   S    
C4    C28   T    
C5    C29   S    
C25   C29   S    
C7    C12   S    
C27   H22   S    
C20   N1    S    
C32   O12   S    
Cu2   O4    S    
C25   C26   S    
O14   H35   S    
C11   H6    S    
C31   O9    D    
C25   H19   S    
C6    C14   S    
C3    H24   S    
Cu1   Cu2   S    
C8    C12   S    
C23   C28   S    
C19   C32   S    
C31   O10   S    
C16   H11   S    
C15   H7    S    
C33   O14   S    
C26   C30   S    
C13   C15   S    
C14   O3    A    
C23   O8    A    
C26   H21   S    
C22   O5    A    
C21   H14   S    
C7    C9    S    
C9    H31   S    
C10   H32   S    
C10   C13   S    
C11   C12   S    
C2    H26   S    
C2    C30   S    
C34   O16   S    
C2    C3    S    
C17   H12   S    
C8    H28   S    
C19   H18   S    
C1    O1    A    
C13   C22   S    
C15   H8    S    
C20   H15   S    
C32   O11   D    
Cu1   O3    S    
C20   C21   S    
C8    C10   S    
C9    H3    S    
C10   H4    S    
C16   N1    S    
O16   H36   S    
C16   H9    S    
C4    C30   S    
C18   H17   S    
C8    H30   S    
Cu2   N1    S    
