data_mof_unit_pretest_1414.cif
_audit_creation_date              2012-10-26T20:23:54-0400
_audit_creation_method            fapswitch 2.2
_symmetry_space_group_name_H-M    P1
_symmetry_Int_Tables_number       1
_space_group_crystal_system       triclinic
_cell_length_a                    12.749647
_cell_length_b                    13.890001
_cell_length_c                    15.906814
_cell_angle_alpha                 90.400543
_cell_angle_beta                  92.812329
_cell_angle_gamma                 97.82066
_cell_volume                      2787.15092428

loop_
_atom_site_label
_atom_site_type_symbol
_atom_type_description
_atom_site_fract_x
_atom_site_fract_y
_atom_site_fract_z
_atom_type_partial_charge
C1    C     C_R   0.483684 0.315925 0.499322 0.545430
C2    C     C_1   0.145360 0.479105 0.484336 0.181015
C3    C     C_R   0.500589 0.499604 0.339656 0.544277
C4    C     C_R   0.499397 0.500249 0.660299 0.542510
C5    C     C_3   0.417122 0.434549 0.968429 0.256821
C6    C     C_3   0.582905 0.558334 0.031039 0.232208
C7    C     C_3   0.507903 0.405716 0.027104 0.251463
C8    C     C_3   0.491238 0.586858 0.973575 0.251596
C9    C     C_1   0.501594 0.498088 0.250337 0.001174
C10   C     C_1   0.498261 0.500185 0.749515 -0.012876
C11   C     C_3   0.410126 0.523317 0.025027 0.069579
C12   C     C_R   0.516320 0.684090 0.500999 0.547786
C13   C     C_3   0.589940 0.468952 0.974723 0.019533
C14   C     C_3   0.500720 0.495467 0.083690 0.018665
C15   C     C_3   0.498732 0.497961 0.915989 -0.012514
C16   C     C_1   0.501477 0.496645 0.175060 0.030649
C17   C     C_1   0.498228 0.499687 0.824725 -0.004127
C18   C     C_1   0.525508 0.787248 0.501554 -0.029858
C19   C     C_1   0.474564 0.212799 0.499077 -0.032084
C20   C     C_3   0.575900 0.258775 0.021813 0.018189
C21   C     C_3   0.551805 0.152055 0.046071 -0.267873
C22   C     C_3   0.623714 0.089906 0.002721 -0.488983
C23   C     C_2   0.545014 0.979398 0.502127 0.290137
C24   C     C_3   0.470271 0.746954 0.005578 0.035396
C25   C     C_3   0.372677 0.796923 0.984743 -0.252228
C26   C     C_3   0.356877 0.870692 0.052936 -0.488287
C27   C     C_3   0.350972 0.292976 0.894827 0.023640
C28   C     C_3   0.259055 0.251781 0.834072 -0.257942
C29   C     C_3   0.283026 0.160829 0.788438 -0.493275
C30   C     C_3   0.726020 0.677239 0.009389 0.024862
C31   C     C_3   0.844684 0.674800 0.026216 -0.261596
C32   C     C_3   0.910087 0.737655 0.964079 -0.488286
C33   C     C_3   0.269018 0.010501 0.476408 0.012531
C34   C     C_2   0.455289 0.020687 0.497785 0.289789
C35   C     C_3   0.227524 0.049822 0.556955 -0.266224
C36   C     C_3   0.137691 0.109505 0.536687 -0.485127
C37   C     C_3   0.732108 0.989100 0.502857 0.010238
C38   C     C_3   0.766990 0.954208 0.589850 -0.264184
C39   C     C_3   0.860772 0.897280 0.584390 -0.483256
C40   C     C_1   0.465743 0.125798 0.498655 -0.016837
C41   C     C_1   0.534477 0.874270 0.501953 -0.016436
C42   C     C_2   0.027700 0.468663 0.480119 0.099616
C43   C     C_2   0.972302 0.531271 0.520188 0.099679
C44   C     C_1   0.854642 0.520876 0.515814 0.181371
Cu1   Cu    Cu3+1 0.395330 0.493960 0.494680 1.004112
Cu2   Cu    Cu3+1 0.604670 0.506040 0.505320 1.005546
H1    H     H_    0.659253 0.285788 0.042744 0.167030
H2    H     H_    0.382063 0.834756 0.923660 0.170807
H3    H     H_    0.301083 0.741534 0.978508 0.181830
H4    H     H_    0.344114 0.833894 0.114097 0.162035
H5    H     H_    0.286243 0.906321 0.035315 0.145878
H6    H     H_    0.427134 0.927405 0.059956 0.143337
H7    H     H_    0.363419 0.237298 0.942734 0.166836
H8    H     H_    0.423371 0.308896 0.858087 0.122046
H9    H     H_    0.186210 0.233298 0.869565 0.174361
H10   H     H_    0.244285 0.307593 0.786784 0.181856
H11   H     H_    0.353681 0.178361 0.750317 0.149536
H12   H     H_    0.565835 0.263493 0.952053 0.141709
H13   H     H_    0.214235 0.132073 0.745741 0.146939
H14   H     H_    0.297772 0.103789 0.834466 0.145994
H15   H     H_    0.710146 0.753347 0.016847 0.141419
H16   H     H_    0.704052 0.654478 0.942729 0.141695
H17   H     H_    0.868399 0.701673 0.091304 0.179446
H18   H     H_    0.861853 0.598784 0.020736 0.166296
H19   H     H_    0.889398 0.710649 0.898647 0.148545
H20   H     H_    0.995714 0.734607 0.978281 0.151256
H21   H     H_    0.895387 0.814439 0.969248 0.145850
H22   H     H_    0.742185 0.443675 0.996114 0.241127
H23   H     H_    0.563449 0.145547 0.115413 0.181601
H24   H     H_    0.718195 0.492860 0.902176 0.232719
H25   H     H_    0.263140 0.559916 0.000334 0.253745
H26   H     H_    0.274407 0.493466 0.087101 0.250202
H27   H     H_    0.204982 0.956920 0.446802 0.155902
H28   H     H_    0.285525 0.068184 0.428670 0.125069
H29   H     H_    0.198145 0.987919 0.597325 0.170129
H30   H     H_    0.292195 0.096351 0.593134 0.165056
H31   H     H_    0.167077 0.174567 0.499986 0.160496
H32   H     H_    0.106756 0.134022 0.596087 0.146936
H33   H     H_    0.071970 0.065094 0.499780 0.137838
H34   H     H_    0.467816 0.124353 0.027717 0.159080
H35   H     H_    0.798194 0.041334 0.480113 0.156690
H36   H     H_    0.719331 0.928926 0.455257 0.124668
H37   H     H_    0.790059 0.018161 0.632441 0.171461
H38   H     H_    0.700625 0.906971 0.617684 0.166983
H39   H     H_    0.838457 0.831596 0.543739 0.157213
H40   H     H_    0.884815 0.873900 0.648266 0.148358
H41   H     H_    0.929268 0.943352 0.558236 0.142542
H42   H     H_    0.004645 0.605217 0.630027 0.226282
H43   H     H_    0.006878 0.675255 0.543775 0.224594
H44   H     H_    0.995229 0.394535 0.370385 0.229314
H45   H     H_    0.610792 0.092902 0.933266 0.150327
H46   H     H_    0.993138 0.324651 0.456750 0.223782
H47   H     H_    0.605493 0.013185 0.022436 0.139304
H48   H     H_    0.708220 0.115993 0.020419 0.152323
H49   H     H_    0.541276 0.803028 0.007997 0.127077
H50   H     H_    0.464069 0.714982 0.069636 0.162161
N1    N     N_1   0.238040 0.484880 0.486690 -0.192540
N2    N     N_1   0.761960 0.515120 0.513310 -0.192367
N3    N     N_3   0.687659 0.440612 0.944646 -0.662126
N4    N     N_3   0.311962 0.551798 0.053787 -0.632941
N5    N     N_3   0.029284 0.611028 0.568325 -0.636576
N6    N     N_3   0.970684 0.388821 0.432115 -0.636109
O1    O     O_R   0.399110 0.356330 0.494860 -0.505304
O2    O     O_3   0.480991 0.679413 0.940550 -0.571637
O3    O     O_3   0.324594 0.376481 0.935295 -0.560799
O4    O     O_3   0.669402 0.619776 0.069725 -0.572160
O5    O     O_3   0.357127 0.960885 0.495373 -0.589450
O6    O     O_3   0.643080 0.039403 0.508139 -0.590170
O7    O     O_R   0.600890 0.643670 0.505140 -0.504046
O8    O     O_R   0.575890 0.366540 0.503840 -0.473275
O9    O     O_R   0.424110 0.633460 0.496160 -0.472508
O10   O     O_R   0.411620 0.494890 0.374590 -0.494491
O11   O     O_R   0.588380 0.505110 0.625410 -0.496583
O12   O     O_R   0.588400 0.505100 0.383570 -0.483732
O13   O     O_R   0.411600 0.494900 0.616430 -0.487134
O14   O     O_3   0.507100 0.312677 0.062890 -0.569555

loop_
_geom_bond_atom_site_label_1
_geom_bond_atom_site_label_2
_ccdc_geom_bond_type
C38   H37   S    
C4    O13   A    
C35   C36   S    
C33   O5    S    
C39   H41   S    
H42   N5    S    
C28   H10   S    
C27   H8    S    
C5    O3    S    
Cu1   Cu2   S    
C35   H29   S    
Cu2   O7    S    
C34   C40   S    
C34   O5    S    
C32   H20   S    
C28   C29   S    
C9    C16   T    
C5    C11   S    
C36   H31   S    
C24   H50   S    
C38   C39   S    
C11   C14   S    
C27   O3    S    
C10   C17   T    
H44   N6    S    
Cu1   O1    S    
C44   N2    T    
C7    C14   S    
C29   H13   S    
C2    N1    T    
C22   H45   S    
C1    O1    A    
H46   N6    S    
H43   N5    S    
Cu2   N2    S    
C21   C22   S    
C30   O4    S    
C22   H48   S    
C37   H35   S    
C42   N6    S    
C12   O7    A    
C28   H9    S    
C35   H30   S    
Cu1   O10   S    
C1    C19   S    
Cu2   O12   S    
C31   H17   S    
C4    O11   A    
C24   C25   S    
C37   O6    S    
C18   C41   T    
C5    C7    S    
C6    C8    S    
C25   C26   S    
C3    O12   A    
C21   H23   S    
C11   N4    S    
C24   O2    S    
C7    O14   S    
C13   N3    S    
C43   C44   S    
C43   N5    S    
C37   C38   S    
C3    C9    S    
C26   H6    S    
C1    O8    A    
C6    C14   S    
Cu1   O13   S    
C31   C32   S    
C29   H14   S    
C3    O10   A    
C23   C34   D    
Cu1   O9    S    
C6    O4    S    
C8    O2    S    
C25   H2    S    
C32   H21   S    
C33   H27   S    
C29   H11   S    
C8    C15   S    
C30   H16   S    
C13   C15   S    
C22   H47   S    
C14   C16   S    
C37   H36   S    
C24   H49   S    
C42   C43   D    
C39   H39   S    
C20   H12   S    
H24   N3    S    
C20   O14   S    
H26   N4    S    
C15   C17   S    
Cu2   O11   S    
C38   H38   S    
C31   H18   S    
C36   H33   S    
C27   H7    S    
H25   N4    S    
C23   C41   S    
C26   H4    S    
H22   N3    S    
Cu2   O8    S    
C36   H32   S    
C26   H5    S    
C6    C13   S    
C30   C31   S    
C2    C42   S    
C8    C11   S    
C23   O6    S    
C21   H34   S    
C33   C35   S    
C25   H3    S    
C5    C15   S    
C20   H1    S    
C19   C40   T    
C33   H28   S    
C7    C13   S    
C20   C21   S    
C30   H15   S    
C12   C18   S    
C27   C28   S    
Cu1   N1    S    
C39   H40   S    
C4    C10   S    
C12   O9    A    
C32   H19   S    
