data_mof_unit_pretest_856.cif
_audit_creation_date              2013-03-05T16:09:06-0500
_audit_creation_method            fapswitch 2.2
_symmetry_space_group_name_H-M    P1
_symmetry_Int_Tables_number       1
_space_group_crystal_system       triclinic
_cell_length_a                    18.188041
_cell_length_b                    7.095865
_cell_length_c                    13.098433
_cell_angle_alpha                 90.639472
_cell_angle_beta                  72.268036
_cell_angle_gamma                 89.774027
_cell_volume                      1610.02219597

loop_
_atom_site_label
_atom_site_type_symbol
_atom_site_description
_atom_site_fract_x
_atom_site_fract_y
_atom_site_fract_z
_atom_type_partial_charge
O1    O     O_R   0.453880 0.506200 0.150010 -0.595862
O2    O     O_R   0.546120 0.006200 0.849990 -0.594357
O3    O     O_R   0.604080 0.177770 0.007280 -0.584272
O4    O     O_R   0.395920 0.677770 0.992720 -0.583632
C1    C     C_R   0.635993 0.344283 0.001560 0.972209
C2    C     C_R   0.364013 0.844696 0.998391 0.973208
O5    O     O_R   0.458010 0.176640 0.159130 -0.596555
O6    O     O_R   0.541990 0.676640 0.840870 -0.598309
O7    O     O_R   0.399010 0.004010 0.002930 -0.586639
O8    O     O_R   0.600990 0.504010 0.997070 -0.586468
C3    C     C_R   0.443032 0.346577 0.200993 0.943500
C4    C     C_R   0.557139 0.843778 0.798912 0.943897
O9    O     O_3   0.480810 0.338440 0.948570 -0.279740
O10   O     O_3   0.519190 0.838440 0.051430 -0.280494
V1    V     V_3+5 0.503560 0.064490 0.009540 1.203190
V2    V     V_3+5 0.496440 0.564490 0.990460 1.203135
C5    C     C_R   0.577272 0.825293 0.505192 -0.181260
C6    C     C_R   0.422516 0.406876 0.493466 -0.180326
H1    H     H_    0.651243 0.836839 0.300296 0.170919
H2    H     H_    0.348702 0.409669 0.698662 0.171832
H3    H     H_    0.540700 0.817708 0.453450 0.132277
H4    H     H_    0.458948 0.425564 0.544790 0.132271
C7    C     C_R   0.590360 0.846497 0.682656 -0.149348
C8    C     C_R   0.409748 0.360952 0.317048 -0.149522
C9    C     C_R   0.950275 0.861269 0.382022 -0.175350
C10   C     C_R   0.050048 0.345767 0.618359 -0.175096
C11   C     C_R   0.920591 0.845982 0.493119 0.473541
C12   C     C_R   0.079700 0.347722 0.506837 0.474043
C13   C     C_R   0.840477 0.835887 0.540315 -0.252114
C14   C     C_R   0.159723 0.359268 0.459229 -0.252487
C15   C     C_R   0.788685 0.843096 0.478490 0.043077
C16   C     C_R   0.211493 0.366174 0.521154 0.043646
C17   C     C_R   0.819878 0.854664 0.364431 -0.067643
C18   C     C_R   0.180360 0.366050 0.635489 -0.068090
C19   C     C_R   0.706621 0.839835 0.526947 0.127566
C20   C     C_R   0.293464 0.373264 0.472538 0.127250
C21   C     C_R   0.657843 0.830682 0.460775 0.097736
C22   C     C_R   0.342063 0.396612 0.538223 0.097004
C23   C     C_R   0.689104 0.835402 0.350314 -0.280037
C24   C     C_R   0.310849 0.401033 0.648773 -0.279854
C25   C     C_R   0.767918 0.856070 0.302187 0.325424
C26   C     C_R   0.232278 0.377219 0.697640 0.323066
C27   C     C_R   0.670792 0.849806 0.638996 -0.235332
C28   C     C_R   0.329421 0.353525 0.360921 -0.234865
C29   C     C_R   0.543278 0.832650 0.615746 0.030698
C30   C     C_R   0.456617 0.389676 0.383211 0.029870
C31   C     C_R   0.901715 0.863980 0.317423 -0.193601
C32   C     C_R   0.098584 0.356381 0.682846 -0.192766
H5    H     H_    0.703326 0.862666 0.695042 0.118219
H6    H     H_    0.297132 0.328578 0.305499 0.117914
H7    H     H_    0.012194 0.868113 0.344684 0.151672
H8    H     H_    0.988157 0.339100 0.656003 0.151046
H9    H     H_    0.820239 0.818843 0.625767 0.158004
H10   H     H_    0.179836 0.366694 0.373260 0.157885
C33   C     C_1   0.216028 0.858240 0.001580 -0.083876
C34   C     C_1   0.783978 0.359449 0.998295 -0.085959
C35   C     C_1   0.283455 0.852723 0.999956 -0.194104
C36   C     C_1   0.716563 0.352459 0.999959 -0.195360
O11   O     O_R   0.899030 0.205490 0.002790 -0.553633
O12   O     O_R   0.100970 0.705490 0.997210 -0.570101
O13   O     O_R   0.042000 0.536370 0.840840 -0.583209
O14   O     O_R   0.958000 0.036370 0.159160 -0.568795
C37   C     C_R   0.060508 0.367476 0.799053 0.986701
C38   C     C_R   0.939741 0.869622 0.201133 0.988916
O15   O     O_R   0.895930 0.535070 0.992690 -0.569572
O16   O     O_R   0.104070 0.035070 0.007310 -0.555738
O17   O     O_R   0.953870 0.707520 0.150040 -0.589853
O18   O     O_R   0.046130 0.207520 0.849960 -0.574255
C39   C     C_R   0.864399 0.367034 0.997607 0.997470
C40   C     C_R   0.135604 0.866374 0.002375 0.999620
O19   O     O_3   0.019200 0.374340 0.051340 -0.265322
O20   O     O_3   0.980800 0.874340 0.948660 -0.264570
V3    V     V_3+5 0.996440 0.648350 0.990470 1.307364
V4    V     V_3+5 0.003560 0.148350 0.009530 1.326327
C41   C     C_1   0.460098 0.829010 0.658935 0.018795
N1    N     N_1   0.393487 0.826441 0.693560 -0.055773
C42   C     C_1   0.539689 0.398610 0.339698 0.020279
N2    N     N_1   0.606217 0.405530 0.304825 -0.054852
N3    N     N_R   0.971911 0.839184 0.558059 0.231871
O21   O     O_R   0.046352 0.847325 0.514063 -0.415662
O22   O     O_R   0.944823 0.824992 0.661781 -0.414074
N4    N     N_R   0.028408 0.340506 0.441831 0.231733
O23   O     O_R   0.953929 0.336665 0.486208 -0.415033
O24   O     O_R   0.055564 0.337332 0.337678 -0.414976
N5    N     N_R   0.791291 0.906302 0.192227 0.216941
O25   O     O_R   0.789911 0.084284 0.171204 -0.422025
O26   O     O_R   0.784219 0.783877 0.121320 -0.407081
N6    N     N_R   0.209327 0.337677 0.809119 0.218313
O27   O     O_R   0.209689 0.162210 0.835816 -0.418069
O28   O     O_R   0.218019 0.466613 0.875652 -0.412521

loop_
_geom_bond_atom_site_label_1
_geom_bond_atom_site_label_2
_geom_bond_distance
_ccdc_geom_bond_type
C22   C24   1.384973 A    
C7    C29   1.402493 A    
C11   C13   1.401277 A    
C3    C8    1.457123 S    
O1    C3    1.306218 A    
O2    C4    1.309729 A    
C2    O7    1.309155 A    
O15   V3    1.992131 S    
C23   C25   1.388168 A    
C42   N2    1.157367 T    
O5    C3    1.311725 A    
C14   H10   1.074788 S    
C4    C7    1.457593 S    
C1    C36   1.460568 S    
C16   C20   1.433109 A    
C19   C21   1.417795 A    
C5    C29   1.390913 A    
C11   N3    1.442679 S    
H2    C24   1.085479 S    
O15   C39   1.318850 A    
O18   V4    2.044688 S    
O16   V4    1.986039 S    
O12   V3    1.973387 S    
C7    C27   1.399516 A    
O13   C37   1.311154 A    
O14   C38   1.311090 A    
C18   C26   1.424124 A    
C15   C17   1.430891 A    
O17   V3    2.033828 S    
C19   C27   1.413655 A    
C9    C31   1.397095 A    
C10   C32   1.397057 A    
C24   C26   1.388378 A    
O6    V2    2.051852 S    
C2    C35   1.459952 S    
C6    C30   1.391055 A    
N5    O26   1.299790 A    
C12   N4    1.442632 S    
C38   O17   1.308716 A    
O20   V4    2.181811 S    
C31   C38   1.469695 S    
N3    O22   1.301691 A    
C27   H5    1.077462 S    
C32   C37   1.468828 S    
O13   V3    2.032260 S    
N5    O25   1.297381 A    
C5    H3    1.085717 S    
C16   C18   1.430716 A    
O4    V2    1.986066 S    
C41   N1    1.157358 T    
C9    H7    1.084115 S    
C10   H8    1.084124 S    
O19   V4    1.741044 S    
O12   C40   1.317027 A    
O6    C4    1.307443 A    
O1    V2    2.043085 S    
C5    C21   1.403220 A    
O2    V1    2.032377 S    
O11   V4    1.970708 S    
H1    C23   1.085562 S    
O11   C39   1.318121 A    
O4    C2    1.308303 A    
N6    O28   1.299535 A    
C34   C39   1.461190 S    
N4    O24   1.301695 A    
C33   C35   1.220532 T    
C8    C28   1.399069 A    
C15   C19   1.433442 A    
C20   C28   1.413191 A    
C26   N6    1.422665 S    
C20   C22   1.417825 A    
O3    V1    1.992160 S    
O19   V3    2.194722 S    
C28   H6    1.077418 S    
C37   O18   1.309323 A    
C6    H4    1.085654 S    
O20   V3    1.750213 S    
O3    C1    1.311291 A    
C30   C42   1.445250 S    
C9    C11   1.395081 A    
C25   N5    1.421940 S    
C10   C12   1.394821 A    
C29   C41   1.445280 S    
C17   C25   1.423857 A    
C12   C14   1.401125 A    
C6    C22   1.403370 A    
C8    C30   1.402393 A    
C1    O8    1.308416 A    
C21   C23   1.384901 A    
O8    V2    1.975420 S    
C14   C16   1.418306 A    
O16   C40   1.317694 A    
C13   H9    1.074867 S    
C17   C31   1.429130 A    
O5    V1    2.032259 S    
C34   C36   1.220883 T    
O7    V1    1.978254 S    
C33   C40   1.460522 S    
N3    O21   1.301788 A    
C18   C32   1.428790 A    
N6    O27   1.297548 A    
C13   C15   1.418086 A    
N4    O23   1.301788 A    
O9    V2    1.741760 S    
O10   V1    1.750949 S    
O14   V4    2.051829 S    
