data_mof_unit_pretest_31.cif
_audit_creation_date              2012-12-11T15:20:41-0500
_audit_creation_method            fapswitch 2.2
_symmetry_space_group_name_H-M    P1
_symmetry_Int_Tables_number       1
_space_group_crystal_system       triclinic
_cell_length_a                    12.912667
_cell_length_b                    13.03564
_cell_length_c                    15.234064
_cell_angle_alpha                 117.065477
_cell_angle_beta                  63.444958
_cell_angle_gamma                 97.394365
_cell_volume                      2033.55346861

loop_
_atom_site_label
_atom_site_type_symbol
_atom_type_description
_atom_site_fract_x
_atom_site_fract_y
_atom_site_fract_z
_atom_type_partial_charge
C1    C     C_R   0.999557 0.833280 0.056370 -0.120261
C2    C     C_R   0.294985 0.602162 0.794335 -0.142734
C3    C     C_R   0.260384 0.412203 0.041712 -0.169351
C4    C     C_R   0.677635 0.477072 0.221344 -0.128459
C5    C     C_R   0.062774 0.279176 0.684342 -0.124194
C6    C     C_R   0.363638 0.429450 0.967144 0.148600
C7    C     C_R   0.055934 0.168588 0.676372 0.037074
C8    C     C_R   0.289345 0.580696 0.699041 0.069551
C9    C     C_R   0.991923 0.157254 0.057511 0.050763
C10   C     C_R   0.167904 0.971576 0.379957 -0.170640
C11   C     C_R   0.164495 0.065455 0.473979 -0.164244
C12   C     C_R   0.669681 0.551784 0.325281 0.059689
C13   C     C_R   0.106219 0.061295 0.574987 0.142807
C14   C     C_R   0.076887 0.954673 0.576551 -0.163012
C15   C     C_R   0.080741 0.860528 0.482418 -0.176879
C16   C     C_R   0.756635 0.518458 0.891224 -0.166627
C17   C     C_R   0.114487 0.873170 0.386854 0.141267
C18   C     C_R   0.571932 0.644543 0.527472 -0.162518
C19   C     C_R   0.475818 0.653771 0.621118 -0.228026
C20   C     C_R   0.369451 0.620374 0.617803 0.091642
C21   C     C_R   0.354719 0.604844 0.525833 0.328286
C22   C     C_R   0.453994 0.589646 0.429472 -0.215095
C23   C     C_R   0.663867 0.456479 0.921792 0.157453
C24   C     C_R   0.563844 0.599826 0.428376 0.093475
C25   C     C_2   0.478445 0.385413 0.935958 -0.195709
C26   C     C_2   0.571457 0.432494 0.887991 -0.200205
C27   C     C_2   0.828526 0.957383 0.097645 -0.213859
C28   C     C_R   0.015840 0.700063 0.303807 -0.138305
C29   C     C_2   0.815327 0.040557 0.195819 -0.133483
C30   C     C_R   0.676745 0.419940 0.988143 -0.126019
C31   C     C_R   0.097368 0.799577 0.208386 -0.144984
C32   C     C_R   0.781819 0.562210 0.316023 -0.116356
C33   C     C_R   0.899197 0.748090 0.958591 -0.147367
C34   C     C_R   0.076034 0.795426 0.304024 0.051596
C35   C     C_R   0.910530 0.852941 0.036344 0.139046
C36   C     C_3   0.061475 0.296488 0.196835 -1.089026
C37   C     C_3   0.237809 0.606623 0.527076 -1.088367
C38   C     C_R   0.339192 0.513472 0.946241 -0.109095
C39   C     C_R   0.979523 0.178430 0.779849 -0.119449
C40   C     C_R   0.197025 0.514161 0.696461 -0.144649
C41   C     C_R   0.039016 0.259716 0.098992 0.322700
C42   C     C_R   0.944055 0.174157 0.999395 -0.208768
H1    H     H_    0.028439 0.895295 0.115518 0.097617
H2    H     H_    0.039488 0.946199 0.651873 0.109749
H3    H     H_    0.607059 0.448508 0.198723 0.094840
H4    H     H_    0.046084 0.782932 0.488815 0.110497
H5    H     H_    0.653907 0.660676 0.532058 0.114399
H6    H     H_    0.490148 0.674581 0.691765 0.122612
H7    H     H_    0.445438 0.566594 0.355311 0.129405
H8    H     H_    0.481992 0.336620 0.976385 0.123805
H9    H     H_    0.569497 0.477011 0.843468 0.125392
H10   H     H_    0.772249 0.964485 0.064561 0.133538
H11   H     H_    0.866214 0.037678 0.235380 0.130345
H12   H     H_    0.950921 0.109376 0.802942 0.090902
H13   H     H_    0.780759 0.546604 0.828426 0.093404
H14   H     H_    0.999193 0.660480 0.357029 0.086279
H15   H     H_    0.629979 0.356590 0.014628 0.083471
H16   H     H_    0.155704 0.852790 0.173971 0.086707
H17   H     H_    0.809475 0.613312 0.379179 0.091885
H18   H     H_    0.834377 0.731446 0.928409 0.100981
H19   H     H_    0.398079 0.550893 0.894193 0.088813
H20   H     H_    0.986116 0.280776 0.261439 0.260943
H21   H     H_    0.140203 0.245713 0.173325 0.246989
H22   H     H_    0.072853 0.390345 0.231667 0.255609
H23   H     H_    0.160112 0.488723 0.639459 0.114477
H24   H     H_    0.219763 0.517323 0.481301 0.251872
H25   H     H_    0.167693 0.648104 0.612176 0.255275
H26   H     H_    0.237160 0.659232 0.486839 0.264708
H27   H     H_    0.885903 0.118230 0.969397 0.113240
H28   H     H_    0.344596 0.664574 0.831669 0.085403
H29   H     H_    0.251213 0.353688 0.076050 0.127686
H30   H     H_    0.112370 0.304961 0.620274 0.092616
H31   H     H_    0.201535 0.981673 0.305684 0.107558
H32   H     H_    0.196198 0.144128 0.468351 0.109537
N1    N     N_R   0.037310 0.720000 0.995790 -0.044537
N2    N     N_R   0.824890 0.517960 0.936420 -0.038828
N3    N     N_R   0.003210 0.648190 0.211380 -0.036860
N4    N     N_R   0.774330 0.457010 0.995840 -0.042815
N5    N     N_R   0.053760 0.709140 0.151960 -0.037641
N6    N     N_R   0.853860 0.498840 0.211410 -0.039189
N7    N     N_R   0.974240 0.667310 0.936390 -0.040651
N8    N     N_R   0.225670 0.542990 0.004160 -0.045377
N9    N     N_R   0.946240 0.290860 0.848040 -0.038072
N10   N     N_R   0.146140 0.501160 0.788590 -0.039440
N11   N     N_R   0.025760 0.332690 0.063610 -0.055497
N12   N     N_R   0.962690 0.280000 0.004210 -0.053461
N13   N     N_R   0.209210 0.553840 0.847990 -0.038108
N14   N     N_R   0.175110 0.482040 0.063580 -0.040255
N15   N     N_R   0.996790 0.351810 0.788620 -0.039492
N16   N     N_R   0.790790 0.446160 0.152010 -0.039838
Ni1   Ni    Ni4+2 0.130310 0.630310 0.999970 0.207823
Ni2   Ni    Ni4+2 0.869690 0.369690 0.000030 0.211309
Ni3   Ni    Ni4+2 0.985640 0.509470 0.863740 0.210392
Ni4   Ni    Ni4+2 0.014360 0.490530 0.136260 0.213722

loop_
_geom_bond_atom_site_label_1
_geom_bond_atom_site_label_2
_ccdc_geom_bond_type
C37   H26   S    
N13   Ni1   S    
C27   C29   D    
C40   N10   A    
C36   H22   S    
C19   C20   A    
N10   N13   A    
C3    C6    A    
C18   H5    S    
C28   H14   S    
N11   N12   A    
N9    Ni2   S    
C9    C42   A    
C8    C20   S    
C18   C24   A    
C31   H16   S    
N2    N4    A    
C5    H30   S    
C10   H31   S    
C39   H12   S    
C10   C17   A    
C30   H15   S    
N3    Ni4   S    
C18   C19   A    
C23   C26   S    
C25   H8    S    
C1    H1    S    
C6    C38   A    
C42   N12   A    
C4    C12   A    
C36   H21   S    
N5    Ni1   S    
N1    Ni1   S    
C38   H19   S    
C28   C34   A    
C13   C14   A    
C12   C32   A    
N15   Ni3   S    
C36   C41   S    
C36   H20   S    
C4    N16   A    
C4    H3    S    
N3    N5    A    
N9    N15   A    
N14   Ni4   S    
C1    N1    A    
C23   C30   A    
C5    C7    A    
C19   H6    S    
N1    N7    A    
C27   C35   S    
C25   C26   D    
C42   H27   S    
N8    Ni1   S    
C30   N4    A    
C3    H29   S    
N2    Ni3   S    
C32   N6    A    
N7    Ni3   S    
N11   Ni4   S    
N16   Ni2   S    
C37   H24   S    
C31   C34   A    
C2    N13   A    
C28   N3    A    
C22   H7    S    
C33   H18   S    
C40   H23   S    
C22   C24   A    
C17   C34   S    
N6    Ni4   S    
C27   H10   S    
C1    C35   A    
C14   H2    S    
C15   C17   A    
C3    N14   A    
C16   N2    A    
C2    C8    A    
C11   H32   S    
C31   N5    A    
C16   C23   A    
C41   N11   A    
C12   C24   S    
C9    C41   A    
C15   H4    S    
N4    Ni2   S    
C16   H13   S    
C39   N9    A    
C2    H28   S    
C26   H9    S    
C11   C13   A    
C29   H11   S    
N8    N14   A    
C37   H25   S    
C33   C35   A    
N10   Ni3   S    
N6    N16   A    
C5    N15   A    
C10   C11   A    
C6    C25   S    
C7    C13   S    
C21   C37   S    
C20   C21   A    
C7    C39   A    
C14   C15   A    
N12   Ni2   S    
C8    C40   A    
C32   H17   S    
C21   C22   A    
C33   N7    A    
C38   N8    A    
