data_mof_unit_pretest_121.cif
_audit_creation_date              2012-12-10T22:10:15-0500
_audit_creation_method            fapswitch 2.2
_symmetry_space_group_name_H-M    P1
_symmetry_Int_Tables_number       1
_space_group_crystal_system       triclinic
_cell_length_a                    16.098981
_cell_length_b                    16.189647
_cell_length_c                    29.622586
_cell_angle_alpha                 90.511715
_cell_angle_beta                  90.442963
_cell_angle_gamma                 89.983461
_cell_volume                      7720.19776618

loop_
_atom_site_label
_atom_site_type_symbol
_atom_type_description
_atom_site_fract_x
_atom_site_fract_y
_atom_site_fract_z
_atom_type_partial_charge
C1    C     C_R   0.614790 0.999396 0.563678 0.926714
C2    C     C_R   0.386121 0.000356 0.435870 0.927363
C3    C     C_R   0.916274 0.729458 0.104072 0.241314
C4    C     C_R   0.081845 0.267823 0.897287 0.239658
C5    C     C_R   0.064558 0.779920 0.148960 0.275936
C6    C     C_R   0.934004 0.218092 0.852060 0.275158
C7    C     C_R   0.070415 0.720620 0.113568 -0.007851
C8    C     C_R   0.928402 0.278710 0.886877 -0.007108
C9    C     C_R   0.911086 0.228880 0.148022 0.089569
C10   C     C_R   0.089025 0.768109 0.850346 0.088633
C11   C     C_R   0.913699 0.289886 0.113257 0.070965
C12   C     C_R   0.086523 0.707970 0.885711 0.070487
C13   C     C_R   0.226403 0.919946 0.347661 0.077896
C14   C     C_R   0.774294 0.078554 0.651848 0.078824
C15   C     C_R   0.289419 0.919189 0.382107 0.050368
C16   C     C_R   0.712778 0.079700 0.616667 0.046887
C17   C     C_R   0.761744 0.070716 0.349917 0.296853
C18   C     C_R   0.238730 0.928669 0.650539 0.296836
C19   C     C_R   0.703165 0.069879 0.383485 -0.260075
C20   C     C_R   0.297491 0.929575 0.616998 -0.261856
C21   C     C_3   0.992684 0.004022 0.250242 0.002476
C22   C     C_3   0.007068 0.995531 0.749938 0.002287
C23   C     C_R   0.616248 0.999751 0.438589 0.943234
C24   C     C_R   0.383393 0.000087 0.561282 0.945512
C25   C     C_R   0.197365 0.998493 0.332657 -0.018714
C26   C     C_R   0.803201 0.999875 0.667032 -0.019481
C27   C     C_R   0.325381 0.996833 0.397215 -0.221246
C28   C     C_R   0.676813 0.002031 0.601623 -0.225604
C29   C     C_R   0.795082 0.996101 0.334117 -0.025698
C30   C     C_R   0.205096 0.003266 0.666262 -0.025514
C31   C     C_R   0.679881 0.995609 0.403417 -0.199029
C32   C     C_R   0.319590 0.003552 0.596462 -0.197704
C33   C     C_R   0.988606 0.201126 0.165560 0.034801
C34   C     C_R   0.011546 0.796672 0.833296 0.034936
C35   C     C_R   0.993927 0.323186 0.099151 -0.173091
C36   C     C_R   0.006268 0.675626 0.900229 -0.175586
C37   C     C_R   0.986180 0.807529 0.163152 -0.045933
C38   C     C_R   0.012468 0.190978 0.837710 -0.045435
C39   C     C_R   0.993734 0.692210 0.092466 -0.246585
C40   C     C_R   0.005153 0.306671 0.908153 -0.244955
C41   C     C_1   0.067010 0.002614 0.278013 0.031390
C42   C     C_1   0.932387 0.996725 0.722341 0.030867
C43   C     C_1   0.993082 0.076800 0.222039 0.026100
C44   C     C_1   0.007022 0.922398 0.777790 0.027599
C45   C     C_R   0.234722 0.074354 0.346236 0.066613
C46   C     C_R   0.768087 0.923719 0.652361 0.064146
C47   C     C_1   0.920324 0.004160 0.278381 -0.017397
C48   C     C_1   0.079243 0.995815 0.721640 -0.018822
C49   C     C_1   0.988410 0.931266 0.221431 0.010782
C50   C     C_1   0.011102 0.068027 0.778916 0.011285
C51   C     C_1   0.127025 0.001428 0.302352 -0.055836
C52   C     C_1   0.872463 0.997411 0.697982 -0.055066
C53   C     C_1   0.985008 0.873320 0.196173 0.034132
C54   C     C_1   0.014169 0.125706 0.804445 0.033783
C55   C     C_1   0.992241 0.134820 0.197316 -0.053152
C56   C     C_1   0.008002 0.863686 0.802094 -0.052503
C57   C     C_1   0.861886 0.001038 0.302923 0.022190
C58   C     C_1   0.137922 0.998731 0.697276 0.022477
C59   C     C_R   0.994221 0.623199 0.058186 0.938645
C60   C     C_R   0.005557 0.376490 0.941996 0.938804
C61   C     C_R   0.998642 0.388783 0.063786 0.876190
C62   C     C_R   0.001388 0.610935 0.936081 0.876329
C63   C     C_R   0.306089 0.070861 0.374206 0.233847
C64   C     C_R   0.697958 0.926867 0.623428 0.234195
C65   C     C_R   0.770798 0.918147 0.351794 0.033022
C66   C     C_R   0.229163 0.080835 0.648210 0.036132
C67   C     C_R   0.716346 0.918707 0.389546 0.255422
C68   C     C_R   0.281407 0.079500 0.609848 0.255572
C69   C     C_R   0.064638 0.231794 0.151226 -0.170030
C70   C     C_R   0.935593 0.766362 0.847807 -0.168876
C71   C     C_R   0.069351 0.292798 0.118666 0.055586
C72   C     C_R   0.930865 0.705901 0.880677 0.053765
C73   C     C_R   0.911016 0.781649 0.142623 0.036095
C74   C     C_R   0.087418 0.216945 0.858388 0.037271
H1    H     H_    0.120694 0.206404 0.165833 0.148015
H2    H     H_    0.879482 0.791854 0.833212 0.147853
H3    H     H_    0.677543 0.128434 0.394856 0.213998
H4    H     H_    0.323785 0.871241 0.605852 0.213551
O1    O     O_R   0.588360 0.066690 0.547410 -0.646372
O2    O     O_R   0.411640 0.933310 0.452590 -0.646598
O3    O     O_R   0.586040 0.933310 0.452590 -0.574264
O4    O     O_R   0.413960 0.066690 0.547410 -0.577206
O5    O     O_R   0.587420 0.068270 0.453900 -0.621347
O6    O     O_R   0.412580 0.931730 0.546100 -0.619611
O7    O     O_R   0.586980 0.931730 0.546100 -0.544047
O8    O     O_R   0.413020 0.068270 0.453900 -0.547218
O9    O     O_R   0.063560 0.593880 0.045280 -0.658215
O10   O     O_R   0.936440 0.406120 0.954720 -0.657347
O11   O     O_R   0.931210 0.414910 0.046840 -0.621198
O12   O     O_R   0.068790 0.585090 0.953160 -0.620948
O13   O     O_R   0.067840 0.419730 0.049340 -0.624861
O14   O     O_R   0.932160 0.580270 0.950660 -0.624640
O15   O     O_R   0.926930 0.589050 0.042780 -0.552982
O16   O     O_R   0.073070 0.410950 0.957220 -0.557441
Zn1   Zn    Zn3+2 0.500930 0.090750 0.500880 1.019743
Zn2   Zn    Zn3+2 0.499070 0.909250 0.499120 1.029634
Zn3   Zn    Zn3+2 0.091890 0.503230 0.001680 0.934133
Zn4   Zn    Zn3+2 0.908110 0.496770 0.998320 0.941362
Br1   Br    Br    0.390946 0.155137 0.370665 -0.526723
Br2   Br    Br    0.618339 0.836581 0.622356 -0.523942
C75   C     C_3   0.807762 0.840589 0.328523 -0.402791
C76   C     C_3   0.780792 0.752820 0.341825 -0.289054
C77   C     C_3   0.818719 0.686643 0.311098 -0.902784
H5    H     H_    0.796628 0.693590 0.275730 0.261887
H6    H     H_    0.887768 0.690614 0.312325 0.262855
H7    H     H_    0.800464 0.624371 0.323211 0.268065
H8    H     H_    0.805618 0.738859 0.376011 0.273754
H9    H     H_    0.711539 0.747103 0.340377 0.251060
H10   H     H_    0.793695 0.846046 0.291841 0.200884
H11   H     H_    0.876348 0.843526 0.332785 0.206015
C78   C     C_3   0.194589 0.158930 0.672022 -0.399703
C79   C     C_3   0.224041 0.246074 0.658772 -0.290008
C80   C     C_3   0.192410 0.311833 0.691944 -0.905603
H12   H     H_    0.123397 0.310130 0.693515 0.263535
H13   H     H_    0.218549 0.301923 0.726224 0.259826
H14   H     H_    0.211042 0.374331 0.680393 0.267794
H15   H     H_    0.293139 0.248965 0.657984 0.248029
H16   H     H_    0.196967 0.262764 0.625654 0.272774
H17   H     H_    0.125830 0.157941 0.668451 0.205802
H18   H     H_    0.209607 0.152422 0.708577 0.200746
C81   C     C_3   0.830431 0.815760 0.164047 -0.386982
C82   C     C_3   0.743972 0.786459 0.148257 -0.294200
C83   C     C_3   0.675815 0.820211 0.179177 -0.905937
H19   H     H_    0.683002 0.795995 0.213984 0.262714
H20   H     H_    0.678025 0.888988 0.180423 0.263977
H21   H     H_    0.613718 0.801586 0.165931 0.263073
H22   H     H_    0.730096 0.812115 0.114464 0.272216
H23   H     H_    0.740890 0.717720 0.147732 0.247587
H24   H     H_    0.834261 0.801167 0.200815 0.197009
H25   H     H_    0.831433 0.884201 0.161040 0.204450
C84   C     C_3   0.168422 0.185169 0.836657 -0.387796
C85   C     C_3   0.253816 0.217275 0.852575 -0.294456
C86   C     C_3   0.322166 0.189733 0.819982 -0.907801
H26   H     H_    0.323223 0.121081 0.816987 0.265045
H27   H     H_    0.311829 0.216490 0.785986 0.260921
H28   H     H_    0.383881 0.210401 0.832887 0.263050
H29   H     H_    0.253666 0.285974 0.854876 0.245080
H30   H     H_    0.269906 0.189622 0.885625 0.271018
H31   H     H_    0.169450 0.116660 0.839254 0.204770
H32   H     H_    0.163710 0.200616 0.800032 0.197781
Br3   Br    Br    0.159213 0.828612 0.181113 -0.621845
Br4   Br    Br    0.839209 0.166394 0.821284 -0.619201
C87   C     C_3   0.832873 0.189866 0.170748 -0.385933
C88   C     C_3   0.741626 0.204025 0.155614 -0.402007
C89   C     C_3   0.678665 0.163410 0.186920 -0.818566
H33   H     H_    0.688210 0.095444 0.187830 0.258768
H34   H     H_    0.683263 0.189897 0.221582 0.289972
H35   H     H_    0.614730 0.175405 0.173806 0.247133
H36   H     H_    0.726375 0.270970 0.155552 0.241054
H37   H     H_    0.731209 0.174246 0.121904 0.225276
H38   H     H_    0.840820 0.121639 0.169073 0.206372
H39   H     H_    0.835955 0.207784 0.207263 0.238228
C90   C     C_3   0.166936 0.805756 0.826803 -0.389707
C91   C     C_3   0.258142 0.788044 0.840229 -0.387358
C92   C     C_3   0.320843 0.827993 0.808065 -0.807255
H40   H     H_    0.314665 0.802171 0.773081 0.290128
H41   H     H_    0.312605 0.896628 0.807530 0.255729
H42   H     H_    0.384967 0.814911 0.820446 0.244671
H43   H     H_    0.271468 0.817941 0.873877 0.221768
H44   H     H_    0.270458 0.719853 0.840227 0.234817
H45   H     H_    0.161381 0.789144 0.790306 0.240475
H46   H     H_    0.160994 0.874111 0.829348 0.205159
C93   C     C_3   0.185223 0.843996 0.323347 -0.368951
C94   C     C_3   0.200996 0.752931 0.335768 -0.403300
C95   C     C_3   0.155399 0.692195 0.304678 -0.840572
H47   H     H_    0.087467 0.703258 0.305746 0.262146
H48   H     H_    0.177946 0.697214 0.269555 0.287074
H49   H     H_    0.167496 0.628108 0.316482 0.247991
H50   H     H_    0.268098 0.738110 0.332968 0.242729
H51   H     H_    0.175573 0.741634 0.370028 0.229507
H52   H     H_    0.116851 0.851485 0.326572 0.207798
H53   H     H_    0.200159 0.849280 0.286904 0.250980
C96   C     C_3   0.814503 0.154585 0.676645 -0.368411
C97   C     C_3   0.797975 0.245494 0.664455 -0.396262
C98   C     C_3   0.841281 0.306345 0.696578 -0.840661
H54   H     H_    0.818639 0.299303 0.731867 0.283862
H55   H     H_    0.909757 0.297274 0.695796 0.260807
H56   H     H_    0.827534 0.370448 0.685653 0.248383
H57   H     H_    0.825613 0.258133 0.630989 0.229361
H58   H     H_    0.730355 0.259397 0.665952 0.239750
H59   H     H_    0.798953 0.148622 0.713126 0.248395
H60   H     H_    0.882863 0.147604 0.673760 0.206898
Br5   Br    Br    0.795816 0.176286 0.326912 -0.540465
Br6   Br    Br    0.204967 0.823272 0.673734 -0.546685
Br7   Br    Br    0.702527 0.819323 0.427577 -0.545392
Br8   Br    Br    0.284374 0.172789 0.568904 -0.543915
C99   C     C_3   0.154380 0.325014 0.103361 -0.365727
C100  C     C_3   0.232962 0.288296 0.124519 -0.399470
C101  C     C_3   0.310287 0.329112 0.104599 -0.840507
H61   H     H_    0.312479 0.319226 0.067465 0.272147
H62   H     H_    0.310128 0.396716 0.111643 0.252347
H63   H     H_    0.366889 0.301727 0.119846 0.254575
H64   H     H_    0.232863 0.299340 0.161524 0.228525
H65   H     H_    0.235552 0.220964 0.117121 0.241418
H66   H     H_    0.159688 0.313064 0.066486 0.255673
H67   H     H_    0.156906 0.392623 0.110672 0.218040
C102  C     C_3   0.845893 0.674431 0.896334 -0.365824
C103  C     C_3   0.767462 0.711600 0.875359 -0.401672
C104  C     C_3   0.690207 0.672419 0.896163 -0.840286
H68   H     H_    0.689678 0.604511 0.890010 0.252416
H69   H     H_    0.688845 0.684001 0.933181 0.273163
H70   H     H_    0.633671 0.699736 0.880848 0.254388
H71   H     H_    0.765969 0.779143 0.882228 0.241269
H72   H     H_    0.766618 0.699525 0.838419 0.228351
H73   H     H_    0.842830 0.606749 0.889277 0.217929
H74   H     H_    0.841142 0.687012 0.933169 0.254469
Br9   Br    Br    0.826064 0.725618 0.060512 -0.574878
Br10  Br    Br    0.168479 0.265176 0.942837 -0.574582
C105  C     C_3   0.154743 0.687420 0.095472 -0.352712
C106  C     C_3   0.238773 0.720644 0.111297 -0.331157
C107  C     C_3   0.310730 0.680146 0.085759 -0.914332
H75   H     H_    0.312247 0.612486 0.091595 0.259810
H76   H     H_    0.306090 0.691695 0.048854 0.259404
H77   H     H_    0.370149 0.707239 0.098142 0.267395
H78   H     H_    0.241588 0.788042 0.104768 0.273776
H79   H     H_    0.247746 0.705474 0.147340 0.270165
H80   H     H_    0.157373 0.619984 0.102608 0.222255
H81   H     H_    0.154965 0.699024 0.058426 0.227988
C108  C     C_3   0.844413 0.314018 0.904030 -0.353311
C109  C     C_3   0.760328 0.282534 0.887317 -0.331854
C110  C     C_3   0.688545 0.326990 0.910884 -0.914759
H82   H     H_    0.690830 0.317568 0.948047 0.259857
H83   H     H_    0.689994 0.394258 0.903839 0.259620
H84   H     H_    0.628913 0.301259 0.897952 0.267369
H85   H     H_    0.753970 0.295526 0.850841 0.269259
H86   H     H_    0.754825 0.215739 0.895095 0.274141
H87   H     H_    0.842563 0.303123 0.941122 0.228128
H88   H     H_    0.843797 0.381349 0.896507 0.221707
C111  C     C_3   0.833264 0.319133 0.090463 -0.341790
C112  C     C_3   0.803132 0.403600 0.109665 -0.288486
C113  C     C_3   0.734444 0.441754 0.080574 -0.825020
H89   H     H_    0.756704 0.452677 0.045740 0.265179
H90   H     H_    0.679327 0.400299 0.079259 0.240063
H91   H     H_    0.715391 0.502374 0.095453 0.250904
H92   H     H_    0.780450 0.396294 0.144682 0.196715
H93   H     H_    0.855336 0.448996 0.112603 0.233034
H94   H     H_    0.839085 0.317441 0.053189 0.205445
H95   H     H_    0.783117 0.274432 0.089483 0.160184
C114  C     C_3   0.167212 0.678413 0.908661 -0.336654
C115  C     C_3   0.195574 0.592450 0.890231 -0.281768
C116  C     C_3   0.257235 0.549499 0.921932 -0.810802
H96   H     H_    0.315472 0.586281 0.925363 0.235600
H97   H     H_    0.229865 0.540444 0.955919 0.269755
H98   H     H_    0.273033 0.487214 0.907752 0.246459
H99   H     H_    0.140986 0.550310 0.884618 0.226329
H100  H     H_    0.224232 0.599274 0.856341 0.190234
H101  H     H_    0.218867 0.722052 0.909529 0.154954
H102  H     H_    0.161142 0.682116 0.945983 0.203540
C117  C     C_3   0.323014 0.838324 0.401533 -0.336560
C118  C     C_3   0.409700 0.816230 0.382380 -0.303714
C119  C     C_3   0.451571 0.746189 0.408202 -0.786343
H103  H     H_    0.463478 0.764347 0.444047 0.270717
H104  H     H_    0.411786 0.690147 0.407340 0.240656
H105  H     H_    0.512418 0.730919 0.392611 0.257877
H106  H     H_    0.403376 0.798225 0.346375 0.202684
H107  H     H_    0.452255 0.870415 0.382832 0.238852
H108  H     H_    0.319983 0.839029 0.438859 0.212181
H109  H     H_    0.282806 0.785541 0.399404 0.162091
C120  C     C_3   0.682317 0.161105 0.595758 -0.332120
C121  C     C_3   0.595382 0.187406 0.613766 -0.296527
C122  C     C_3   0.551784 0.250712 0.583641 -0.779107
H110  H     H_    0.588422 0.308661 0.581862 0.238499
H111  H     H_    0.541926 0.226176 0.548675 0.270406
H112  H     H_    0.489559 0.265683 0.597586 0.251069
H113  H     H_    0.553537 0.133080 0.617378 0.234094
H114  H     H_    0.601990 0.213749 0.648226 0.195124
H115  H     H_    0.724096 0.212961 0.596928 0.160255
H116  H     H_    0.686106 0.157219 0.558436 0.209943
C123  C     C_3   0.192743 0.154642 0.329626 -0.383318
C124  C     C_3   0.221223 0.240721 0.346074 -0.298746
C125  C     C_3   0.159497 0.306747 0.330094 -0.879792
H117  H     H_    0.154673 0.305288 0.292674 0.260647
H118  H     H_    0.096810 0.295583 0.344368 0.275418
H119  H     H_    0.180192 0.369369 0.340925 0.259377
H120  H     H_    0.225888 0.243630 0.383526 0.257697
H121  H     H_    0.281894 0.256399 0.330878 0.267664
H122  H     H_    0.193716 0.154690 0.292231 0.207472
H123  H     H_    0.126379 0.150066 0.339832 0.216122
C126  C     C_3   0.809374 0.843201 0.669903 -0.381539
C127  C     C_3   0.786421 0.757360 0.649897 -0.298311
C128  C     C_3   0.844754 0.690208 0.667781 -0.884136
H124  H     H_    0.910142 0.703258 0.658381 0.278243
H125  H     H_    0.839762 0.687036 0.705150 0.260625
H126  H     H_    0.827028 0.628804 0.653333 0.259505
H127  H     H_    0.724092 0.738468 0.661681 0.271503
H128  H     H_    0.789195 0.757734 0.612321 0.257220
H129  H     H_    0.877321 0.849766 0.663424 0.216167
H130  H     H_    0.801017 0.840667 0.706886 0.207238

loop_
_geom_bond_atom_site_label_1
_geom_bond_atom_site_label_2
_ccdc_geom_bond_type
C16   C28   A    
C125  H119  S    
C66   C68   A    
C33   C55   S    
C95   H47   S    
C40   C60   S    
C5    C37   A    
C99   H67   S    
C92   H41   S    
C17   C29   A    
C102  H73   S    
C114  C115  S    
C65   C75   S    
C81   H25   S    
C19   C31   A    
C21   C49   S    
C89   H33   S    
C60   O10   A    
O14   Zn4   S    
C119  H103  S    
C98   H55   S    
C22   C42   S    
C96   C97   S    
C128  H126  S    
C34   C56   S    
C117  C118  S    
C111  C112  S    
C23   O5    A    
C105  H81   S    
C114  H101  S    
C94   C95   S    
C14   C96   S    
C26   C52   S    
O2    Zn2   S    
C2    O2    A    
C20   C32   A    
C79   H15   S    
O7    Zn2   S    
C49   C53   T    
C119  H104  S    
C47   C57   T    
C96   H60   S    
C111  H95   S    
C25   C45   A    
C75   H10   S    
C106  H78   S    
C30   C58   S    
C78   H17   S    
C116  H96   S    
O6    Zn2   S    
C2    O8    A    
C82   H22   S    
C69   C71   A    
C24   O4    A    
C97   C98   S    
C109  C110  S    
C88   H37   S    
C120  H116  S    
C89   H34   S    
C72   C102  S    
C21   C43   S    
C3    C73   A    
C94   H51   S    
C11   C35   A    
C12   C114  S    
C22   C44   S    
C36   C72   A    
C78   C79   S    
C85   C86   S    
C65   C67   A    
C62   O14   A    
C123  H123  S    
C86   H28   S    
C63   Br1   S    
C126  C127  S    
C6    C38   A    
C76   H9    S    
C103  C104  S    
C18   C30   A    
C108  H88   S    
C6    Br4   S    
C93   H52   S    
O9    Zn3   S    
C117  H109  S    
O12   Zn3   S    
C4    C74   A    
C33   C69   A    
C22   C50   S    
C80   H14   S    
C37   C53   S    
C87   H38   S    
C125  H117  S    
C68   Br8   S    
C104  H68   S    
C11   C111  S    
C123  C124  S    
C92   H42   S    
C9    C33   A    
C103  H71   S    
C35   C71   A    
C13   C25   A    
C102  H74   S    
C76   C77   S    
C36   C62   S    
C10   C90   S    
C79   C80   S    
C7    C105  S    
C61   O11   A    
C13   C93   S    
C98   H56   S    
C59   O9    A    
C118  H107  S    
C105  C106  S    
C92   H40   S    
C70   C72   A    
C109  H86   S    
C75   C76   S    
C4    C40   A    
C59   O15   A    
C83   H19   S    
C94   H50   S    
C127  C128  S    
C10   C34   A    
C21   C41   S    
C81   H24   S    
C108  C109  S    
C5    C7    A    
C84   H31   S    
C122  H110  S    
C88   C89   S    
C4    Br10  S    
C6    C8    A    
C15   C117  S    
O16   Zn3   S    
C128  H124  S    
C115  H100  S    
C101  H61   S    
O13   Zn3   S    
C46   C64   A    
C114  H102  S    
C116  H97   S    
C23   C31   S    
O1    Zn1   S    
C101  H63   S    
C31   C67   A    
C110  H84   S    
C25   C51   S    
C91   H44   S    
C88   H36   S    
C124  H121  S    
C104  H70   S    
C110  H82   S    
C19   H3    S    
C79   H16   S    
C44   C56   T    
C15   C27   A    
C107  H75   S    
C38   C54   S    
C18   Br6   S    
C39   C59   S    
C8    C108  S    
C46   C126  S    
C91   C92   S    
C123  H122  S    
C112  H92   S    
C77   H6    S    
C1    C28   S    
C50   C54   T    
O5    Zn1   S    
C14   C26   A    
C112  H93   S    
C93   H53   S    
C9    C11   A    
C81   C82   S    
C30   C66   A    
C10   C12   A    
C112  C113  S    
C29   C65   A    
C28   C64   A    
C43   C55   T    
C87   H39   S    
C107  H76   S    
C29   C57   S    
C22   C48   S    
C95   H49   S    
C73   C81   S    
C113  H90   S    
C2    C27   S    
C103  H72   S    
C86   H26   S    
C1    O1    A    
C14   C16   A    
C1    O7    A    
C12   C36   A    
C66   C78   S    
C121  H114  S    
C120  C121  S    
C76   H8    S    
C77   H5    S    
C89   H35   S    
C122  H111  S    
C80   H12   S    
C38   C74   A    
C85   H30   S    
C118  H106  S    
C16   C120  S    
C34   C70   A    
C42   C52   T    
O4    Zn1   S    
C23   O3    A    
C99   H66   S    
C84   H32   S    
C124  H120  S    
C5    Br3   S    
C127  H127  S    
C75   H11   S    
C71   C99   S    
C121  C122  S    
C83   H21   S    
C100  H64   S    
C122  H112  S    
C125  H118  S    
C115  C116  S    
C82   H23   S    
C48   C58   T    
C78   H18   S    
C128  H125  S    
C8    C40   A    
O11   Zn4   S    
C97   H58   S    
C37   C73   A    
C17   Br5   S    
C20   H4    S    
C90   H46   S    
C116  H98   S    
C117  H108  S    
C126  H130  S    
O15   Zn4   S    
C13   C15   A    
C87   C88   S    
C82   C83   S    
C105  H80   S    
C91   H43   S    
C110  H83   S    
C98   H54   S    
C84   C85   S    
C32   C68   A    
C70   H2    S    
C24   C32   S    
C115  H99   S    
C80   H13   S    
O8    Zn1   S    
C35   C61   S    
C120  H115  S    
C106  H79   S    
C62   O12   A    
C45   C123  S    
C3    Br9   S    
C17   C19   A    
C45   C63   A    
C109  H85   S    
C69   H1    S    
C77   H7    S    
C18   C20   A    
C96   H59   S    
C85   H29   S    
C24   O6    A    
C102  C103  S    
C119  H105  S    
C127  H128  S    
C118  C119  S    
C93   C94   S    
C83   H20   S    
C113  H91   S    
C26   C46   A    
C9    C87   S    
C100  H65   S    
C121  H113  S    
C67   Br7   S    
C64   Br2   S    
C107  H77   S    
C95   H48   S    
C106  C107  S    
O3    Zn2   S    
C90   H45   S    
C113  H89   S    
C104  H69   S    
C86   H27   S    
C7    C39   A    
C124  C125  S    
C100  C101  S    
C99   C100  S    
C27   C63   A    
C108  H87   S    
C90   C91   S    
C74   C84   S    
C111  H94   S    
C97   H57   S    
C41   C51   T    
O10   Zn4   S    
C3    C39   A    
C61   O13   A    
C126  H129  S    
C101  H62   S    
C21   C47   S    
C60   O16   A    
