data_mof_unit_pretest_906.cif
_audit_creation_date              2012-12-10T20:51:27-0500
_audit_creation_method            fapswitch 2.2
_symmetry_space_group_name_H-M    P1
_symmetry_Int_Tables_number       1
_space_group_crystal_system       triclinic
_cell_length_a                    17.563224
_cell_length_b                    8.91696
_cell_length_c                    8.110258
_cell_angle_alpha                 89.999903
_cell_angle_beta                  90.010781
_cell_angle_gamma                 89.994959
_cell_volume                      1270.1520674

loop_
_atom_site_label
_atom_site_type_symbol
_atom_type_description
_atom_site_fract_x
_atom_site_fract_y
_atom_site_fract_z
_atom_type_partial_charge
C1    C     C_R   0.500000 0.218031 0.500000 0.971386
C2    C     C_R   0.847100 0.378848 0.428639 0.162793
C3    C     C_R   0.767659 0.621245 0.571399 0.296797
C4    C     C_R   0.232285 0.620904 0.428176 0.296773
C5    C     C_R   0.232341 0.378993 0.571793 0.296969
C6    C     C_R   0.767683 0.378794 0.428824 0.296801
C7    C     C_R   0.728517 0.500028 0.500065 -0.292696
C8    C     C_R   0.271473 0.499935 0.499960 -0.292608
C9    C     C_R   0.885891 0.500013 0.500257 -0.161131
C10   C     C_R   0.114101 0.500092 0.500217 -0.161043
C11   C     C_1   0.966200 0.500061 0.500287 0.114935
C12   C     C_R   0.499999 0.781968 0.500000 0.971364
C13   C     C_1   0.033790 0.500090 0.500280 0.114949
C14   C     C_1   0.500000 0.065228 0.500000 -0.075179
C15   C     C_1   0.500000 0.934772 0.500001 -0.075187
C16   C     C_R   0.353544 0.500000 0.499984 1.017143
C17   C     C_R   0.646452 0.500006 0.500015 1.017379
C18   C     C_R   0.847075 0.621156 0.571793 0.162777
C19   C     C_R   0.152874 0.620977 0.428098 0.162851
C20   C     C_R   0.152930 0.379131 0.572170 0.162635
Cl1   Cl    Cl    0.717098 0.775364 0.654877 -0.505039
Cl2   Cl    Cl    0.282780 0.774535 0.343668 -0.505136
Cl3   Cl    Cl    0.282908 0.225208 0.655983 -0.505167
Cl4   Cl    Cl    0.717156 0.224852 0.344997 -0.505012
I1    I     I_    0.908429 0.803994 0.679823 -0.089053
I2    I     I_    0.091469 0.803687 0.319628 -0.089037
I3    I     I_    0.091590 0.196551 0.680672 -0.089198
I4    I     I_    0.908480 0.195940 0.320725 -0.088972
N1    N     N_1   0.500000 0.500000 0.073640 0.005177
N2    N     N_1   0.500000 0.500000 0.926360 0.005168
O1    O     O_R   0.500000 0.285350 0.636850 -0.607877
O2    O     O_R   0.500000 0.714650 0.363150 -0.607904
O3    O     O_R   0.500000 0.714650 0.636850 -0.607962
O4    O     O_R   0.500000 0.285350 0.363150 -0.607969
O5    O     O_R   0.389120 0.500000 0.636930 -0.594281
O6    O     O_R   0.610880 0.500000 0.363070 -0.594347
O7    O     O_R   0.610880 0.500000 0.636930 -0.594448
O8    O     O_R   0.389120 0.500000 0.363070 -0.594206
Zn1   Zn    Zn3+2 0.500000 0.500000 0.682780 1.093757
Zn2   Zn    Zn3+2 0.500000 0.500000 0.317220 1.093799

loop_
_geom_bond_atom_site_label_1
_geom_bond_atom_site_label_2
_ccdc_geom_bond_type
C1    O4    A    
C5    C8    A    
O5    Zn1   S    
C6    C7    A    
C20   I3    S    
C4    C19   A    
C11   C13   T    
C5    Cl3   S    
C12   C15   S    
O6    Zn2   S    
C10   C19   A    
C4    C8    A    
C6    Cl4   S    
C8    C16   S    
C5    C20   A    
C17   O7    A    
C12   O2    A    
O8    Zn2   S    
C9    C11   S    
N1    N2    T    
C18   I1    S    
O4    Zn2   S    
N1    Zn2   S    
C17   O6    A    
O1    Zn1   S    
N2    Zn1   S    
C3    C7    A    
O2    Zn2   S    
C16   O5    A    
C3    Cl1   S    
C9    C18   A    
C1    O1    A    
C4    Cl2   S    
C3    C18   A    
O7    Zn1   S    
C10   C20   A    
C19   I2    S    
C14   C15   T    
C2    I4    S    
C1    C14   S    
C12   O3    A    
C2    C9    A    
O3    Zn1   S    
C2    C6    A    
C16   O8    A    
C7    C17   S    
C10   C13   S    
