data_mof_unit_pretest_1919.cif
_audit_creation_date              2012-12-10T19:34:18-0500
_audit_creation_method            fapswitch 2.2
_symmetry_space_group_name_H-M    P1
_symmetry_Int_Tables_number       1
_space_group_crystal_system       triclinic
_cell_length_a                    18.731415
_cell_length_b                    18.733739
_cell_length_c                    18.69088
_cell_angle_alpha                 109.421347
_cell_angle_beta                  109.963537
_cell_angle_gamma                 109.323021
_cell_volume                      5030.41647726

loop_
_atom_site_label
_atom_site_type_symbol
_atom_type_description
_atom_site_fract_x
_atom_site_fract_y
_atom_site_fract_z
_atom_type_partial_charge
C1    C     C_R   0.620004 0.619936 0.500339 0.884591
C2    C     C_R   0.731632 0.757910 0.429688 0.141680
C3    C     C_3   0.673288 0.730499 0.336621 -0.466742
C4    C     C_R   0.379555 0.499803 0.378913 0.897666
C5    C     C_3   0.603367 0.658534 0.336967 -0.509416
C6    C     C_R   0.676153 0.424259 0.686996 0.001824
C7    C     C_R   0.687121 0.502960 0.691156 -0.215064
C8    C     C_R   0.756184 0.582700 0.768410 0.478877
C9    C     C_R   0.822423 0.581161 0.830485 -0.292512
C10   C     C_R   0.815255 0.501006 0.819217 -0.169662
C11   C     C_R   0.738629 0.423239 0.751144 0.077308
C12   C     C_3   0.181923 0.420153 0.202768 0.525664
C13   C     C_3   0.724252 0.339279 0.685658 -0.095762
C14   C     C_3   0.655246 0.341314 0.614815 -0.429337
C15   C     C_R   0.272147 0.226517 0.439305 0.062570
C16   C     C_R   0.379587 0.379779 0.499863 0.886513
C17   C     C_R   0.313485 0.314524 0.500570 -0.098552
C18   C     C_R   0.288543 0.338218 0.564321 -0.205958
C19   C     C_R   0.224261 0.273547 0.564614 -0.224120
C20   C     C_R   0.184962 0.185567 0.501187 -0.093064
C21   C     C_R   0.210650 0.164844 0.439905 0.093642
C22   C     C_3   0.197205 0.090796 0.364277 0.282418
C23   C     C_3   0.222848 0.479492 0.302193 -0.251377
C24   C     C_3   0.267050 0.161553 0.362244 -0.541943
C25   C     C_R   0.003251 0.620169 0.122919 0.875604
C26   C     C_R   0.124555 0.498855 0.123237 0.900385
C27   C     C_R   0.004699 0.380165 0.884792 0.883166
C28   C     C_R   0.622294 0.501809 0.621767 0.925788
C29   C     C_R   0.882711 0.499207 0.882262 0.891668
C30   C     C_R   0.999289 0.119945 0.619472 0.883034
C31   C     C_R   0.879934 0.880216 0.500305 0.893266
C32   C     C_R   0.001164 0.880283 0.380182 0.885466
C33   C     C_R   0.119774 0.119309 0.499717 0.896805
C34   C     C_3   0.312922 0.498856 0.310966 -0.068167
C35   C     C_R   0.938342 0.708009 0.163147 0.055036
C36   C     C_R   0.004273 0.687511 0.187687 -0.064176
C37   C     C_R   0.078503 0.741846 0.272096 -0.230902
C38   C     C_R   0.078876 0.807404 0.335534 -0.227634
C39   C     C_R   0.005612 0.819175 0.313336 -0.141572
C40   C     C_3   0.325207 0.578955 0.299714 -0.128916
C41   C     C_R   0.939002 0.773586 0.225290 0.165431
C42   C     C_3   0.841373 0.723179 0.184354 -0.110739
C43   C     C_3   0.841149 0.650718 0.115837 -0.498454
C44   C     C_R   0.008971 0.246312 0.824081 0.115325
C45   C     C_R   0.671026 0.694849 0.429628 0.106860
C46   C     C_R   0.002320 0.315057 0.816850 -0.103788
C47   C     C_R   0.993909 0.319605 0.740980 -0.221866
C48   C     C_R   0.991175 0.254065 0.674286 -0.209286
C49   C     C_R   0.000023 0.186080 0.685309 -0.089958
C50   C     C_R   0.009681 0.185281 0.761769 0.093351
C51   C     C_3   0.023124 0.138138 0.811168 -0.552072
C52   C     C_3   0.233633 0.559120 0.288910 -0.235121
C53   C     C_3   0.022893 0.208918 0.883283 -0.095982
C54   C     C_3   0.191566 0.498371 0.189638 -0.051399
C55   C     C_3   0.281280 0.517283 0.200547 0.104648
C56   C     C_R   0.687325 0.685856 0.503022 -0.133943
C57   C     C_3   0.271653 0.437628 0.211496 -0.334951
C58   C     C_3   0.732465 0.693332 0.832377 0.148644
C59   C     C_3   0.807138 0.761332 0.926607 -0.897431
C60   C     C_3   0.096631 0.971232 0.225753 0.107907
C61   C     C_3   0.004867 0.925681 0.147142 -0.800009
C62   C     C_3   0.114348 0.278480 0.174113 0.102271
C63   C     C_3   0.029040 0.191152 0.116269 -0.808657
C64   C     C_R   0.771148 0.744334 0.579907 0.045837
C65   C     C_R   0.834939 0.808821 0.578831 -0.193096
C66   C     C_R   0.814948 0.815920 0.502479 -0.159715
H1    H     H_    0.216478 0.608279 0.318268 0.145742
H2    H     H_    0.386327 0.643670 0.340390 0.132119
H3    H     H_    0.205369 0.291920 0.613602 0.143067
H4    H     H_    0.217507 0.047739 0.384476 0.048425
H5    H     H_    0.328897 0.159217 0.379817 0.171012
H6    H     H_    0.240992 0.168376 0.303277 0.216438
H7    H     H_    0.133680 0.730772 0.289780 0.142382
H8    H     H_    0.134463 0.846183 0.402082 0.171186
H9    H     H_    0.819376 0.705167 0.227269 0.140475
H10   H     H_    0.821497 0.590050 0.120077 0.195634
H11   H     H_    0.808987 0.640160 0.048133 0.205492
H12   H     H_    0.697238 0.704805 0.292775 0.190722
H13   H     H_    0.988711 0.372730 0.733091 0.155755
H14   H     H_    0.984099 0.257425 0.615678 0.162109
H15   H     H_    0.965275 0.071898 0.777527 0.193856
H16   H     H_    0.087307 0.140462 0.830473 0.210557
H17   H     H_    0.966927 0.184536 0.894049 0.179793
H18   H     H_    0.288890 0.389072 0.180944 0.149665
H19   H     H_    0.200668 0.463494 0.345660 0.142703
H20   H     H_    0.899338 0.853216 0.637446 0.176417
H21   H     H_    0.656554 0.780822 0.331136 0.208098
H22   H     H_    0.681912 0.640733 0.832325 0.122648
H23   H     H_    0.546511 0.667565 0.332317 0.196467
H24   H     H_    0.699538 0.725787 0.805974 0.161946
H25   H     H_    0.859818 0.811302 0.926828 0.271502
H26   H     H_    0.781971 0.794300 0.964423 0.226370
H27   H     H_    0.834686 0.729704 0.959771 0.243666
H28   H     H_    0.846685 0.353659 0.729132 0.179082
H29   H     H_    0.828395 0.406313 0.673458 0.201840
H30   H     H_    0.100584 0.925461 0.250623 0.143456
H31   H     H_    0.144904 0.986140 0.203323 0.138152
H32   H     H_    0.999168 0.968499 0.118887 0.247636
H33   H     H_    0.991640 0.863744 0.095937 0.208330
H34   H     H_    0.586577 0.591252 0.292993 0.209342
H35   H     H_    0.955302 0.910339 0.167729 0.273270
H36   H     H_    0.808184 0.818183 0.197858 0.206144
H37   H     H_    0.731580 0.720499 0.108200 0.186337
H38   H     H_    0.374519 0.546898 0.166514 0.177316
H39   H     H_    0.271159 0.483866 0.081031 0.185657
H40   H     H_    0.158153 0.288926 0.951113 0.185397
H41   H     H_    0.119972 0.231744 0.995361 0.201317
H42   H     H_    0.131013 0.301573 0.243811 0.140378
H43   H     H_    0.166643 0.267683 0.165781 0.128837
H44   H     H_    0.010952 0.165635 0.046158 0.246159
H45   H     H_    0.879899 0.641993 0.885983 0.178246
H46   H     H_    0.037107 0.143174 0.135778 0.215293
H47   H     H_    0.975483 0.199251 0.123878 0.259060
H48   H     H_    0.752233 0.748517 0.681131 0.227086
H49   H     H_    0.782305 0.674987 0.641777 0.208347
H50   H     H_    0.697021 0.283611 0.696109 0.166229
H51   H     H_    0.672654 0.351246 0.566289 0.216518
H52   H     H_    0.587486 0.287804 0.585668 0.176688
H53   H     H_    0.318594 0.405902 0.613848 0.169309
N1    N     N_3   0.799840 0.348435 0.674334 -0.438954
N2    N     N_3   0.799117 0.764785 0.146343 -0.445122
N3    N     N_3   0.311482 0.538636 0.144325 -0.436452
N4    N     N_3   0.108017 0.267689 0.965015 -0.423319
N5    N     N_3   0.793588 0.738289 0.658158 -0.428103
O1    O     O_R   0.592030 0.539910 0.448670 -0.620307
O2    O     O_R   0.051340 0.091660 0.643070 -0.623795
O3    O     O_R   0.856270 0.908420 0.447910 -0.626325
O4    O     O_R   0.591210 0.643320 0.551340 -0.631431
O5    O     O_R   0.960500 0.908460 0.552180 -0.626873
O6    O     O_R   0.948660 0.908440 0.357030 -0.625853
O7    O     O_R   0.052890 0.908480 0.461300 -0.626172
O8    O     O_R   0.039500 0.091640 0.447920 -0.596433
O9    O     O_R   0.143730 0.091680 0.552190 -0.634772
O10   O     O_R   0.408090 0.448300 0.356360 -0.634479
O11   O     O_R   0.407280 0.551720 0.459030 -0.619803
O12   O     O_R   0.054880 0.643340 0.094730 -0.627154
O13   O     O_R   0.408790 0.356680 0.448660 -0.621493
O14   O     O_R   0.407970 0.460090 0.551330 -0.635409
O15   O     O_R   0.592720 0.448280 0.540970 -0.627599
O16   O     O_R   0.591910 0.551700 0.643640 -0.624483
O17   O     O_R   0.951440 0.539930 0.094760 -0.624903
O18   O     O_3   0.765159 0.662199 0.778169 -0.629827
O19   O     O_3   0.112041 0.048719 0.291300 -0.575345
O20   O     O_3   0.103271 0.338670 0.148492 -0.592437
O21   O     O_R   0.044460 0.448310 0.096120 -0.584559
O22   O     O_R   0.147900 0.551710 0.096100 -0.618522
O23   O     O_R   0.952840 0.356700 0.912890 -0.620562
O24   O     O_R   0.056280 0.460110 0.912860 -0.626551
O25   O     O_R   0.859820 0.448330 0.911520 -0.626644
O26   O     O_R   0.963270 0.551730 0.911500 -0.625782
O27   O     O_R   0.947110 0.091620 0.538800 -0.626275
Zn1   Zn    Zn3+2 0.500550 0.430950 0.431450 0.932983
Zn2   Zn    Zn3+2 0.499450 0.569050 0.568550 0.929101
Zn3   Zn    Zn3+2 0.934790 0.430980 0.003830 0.971812
Zn4   Zn    Zn3+2 0.072930 0.569070 0.003790 0.953087
Zn5   Zn    Zn3+2 0.930400 0.000020 0.430430 0.955280
Zn6   Zn    Zn3+2 0.069600 0.000080 0.569670 0.941900

loop_
_geom_bond_atom_site_label_1
_geom_bond_atom_site_label_2
_ccdc_geom_bond_type
C9    H45   S    
C31   C66   S    
C30   O2    A    
C41   C42   S    
C35   C36   A    
C28   O16   A    
C1    O4    A    
C31   O3    A    
O5    Zn6   S    
C30   O27   A    
C7    C8    A    
C39   C41   A    
C12   C23   S    
C24   H6    S    
C42   H9    S    
C62   C63   S    
C34   C40   S    
C36   C37   A    
C1    C56   S    
C1    O1    A    
C16   O14   A    
C60   O19   S    
C38   C39   A    
O17   Zn3   S    
H38   N3    S    
O14   Zn2   S    
O15   Zn1   S    
C26   O22   A    
C18   C19   A    
C32   C39   S    
C63   H46   S    
O7    Zn6   S    
O23   Zn3   S    
C25   O12   A    
C29   O26   A    
C46   C47   A    
H28   N1    S    
C44   C53   S    
O22   Zn4   S    
C16   O13   A    
C45   C56   A    
C52   C54   S    
C16   C17   S    
C14   H52   S    
C22   O19   S    
C34   C57   S    
C56   C64   A    
O13   Zn1   S    
O24   Zn4   S    
H41   N4    S    
H36   N2    S    
C35   C43   S    
C9    C10   A    
C51   H15   S    
O16   Zn2   S    
H48   N5    S    
C23   C34   S    
C55   N3    S    
C21   C22   S    
C61   H33   S    
C28   O15   A    
C26   C54   S    
C32   O6    A    
C44   C46   A    
C50   C51   S    
C2    C45   A    
C4    C34   S    
C3    H21   S    
C65   H20   S    
C60   H31   S    
C53   N4    S    
C6    C11   A    
O12   Zn4   S    
C8    C9    A    
C3    C5    S    
C58   C59   S    
C64   N5    S    
C5    C45   S    
C7    C28   S    
C12   O20   S    
C60   C61   S    
C51   C53   S    
H40   N4    S    
C26   O21   A    
C61   H35   S    
O25   Zn3   S    
C37   C38   A    
O1    Zn1   S    
C33   O9    A    
C6    C14   S    
C58   O18   S    
C47   C48   A    
C5    H34   S    
C40   C55   S    
O10   Zn1   S    
C17   C18   A    
C57   H18   S    
C59   H25   S    
O27   Zn5   S    
C58   H24   S    
C51   H16   S    
C52   H1    S    
O4    Zn2   S    
C4    O11   A    
C12   C57   S    
C60   H30   S    
C27   C46   S    
C48   C49   A    
C30   C49   S    
C65   C66   A    
O26   Zn4   S    
C55   C57   S    
C23   H19   S    
C22   C24   S    
C19   H3    S    
C43   H11   S    
C42   C43   S    
O21   Zn3   S    
H37   N2    S    
C13   N1    S    
C33   O8    A    
C4    O10   A    
C38   H8    S    
O2    Zn6   S    
C44   C50   A    
C43   H10   S    
C15   C17   A    
C37   H7    S    
C54   C55   S    
C15   C24   S    
H49   N5    S    
C25   O17   A    
C62   O20   S    
C2    C66   A    
C58   H22   S    
O3    Zn5   S    
C8    O18   S    
C6    C7    A    
H29   N1    S    
C20   C33   S    
O11   Zn2   S    
C53   H17   S    
C64   C65   A    
C48   H14   S    
C19   C20   A    
C2    C3    S    
C27   O24   A    
C31   O5    A    
C40   C52   S    
C47   H13   S    
C11   C13   S    
C61   H32   S    
C23   C52   S    
C62   H43   S    
C63   H44   S    
O8    Zn5   S    
H39   N3    S    
O9    Zn6   S    
C59   H26   S    
C35   C41   A    
C5    H23   S    
C13   H50   S    
C10   C11   A    
C25   C36   S    
C29   O25   A    
C63   H47   S    
C10   C29   S    
C15   C21   A    
C62   H42   S    
C20   C21   A    
C42   N2    S    
C27   O23   A    
C49   C50   A    
C40   H2    S    
C14   H51   S    
O6    Zn5   S    
C59   H27   S    
C13   C14   S    
C3    H12   S    
C18   H53   S    
C22   H4    S    
C32   O7    A    
C12   C54   S    
C24   H5    S    
