data_mof_unit_pretest_1250.cif
_audit_creation_date              2012-12-10T17:47:45-0500
_audit_creation_method            fapswitch 2.2
_symmetry_space_group_name_H-M    P1
_symmetry_Int_Tables_number       1
_space_group_crystal_system       triclinic
_cell_length_a                    11.069938
_cell_length_b                    10.826454
_cell_length_c                    9.987764
_cell_angle_alpha                 91.104118
_cell_angle_beta                  88.889332
_cell_angle_gamma                 91.427134
_cell_volume                      1196.20779484

loop_
_atom_site_label
_atom_site_type_symbol
_atom_type_description
_atom_site_fract_x
_atom_site_fract_y
_atom_site_fract_z
_atom_type_partial_charge
C1    C     C_R   0.515880 0.261495 0.498479 0.903049
C2    C     C_R   0.561279 0.067687 0.618312 0.023531
C3    C     C_R   0.541430 0.128932 0.496085 -0.177010
C4    C     C_R   0.258009 0.508432 0.501061 1.115715
C5    C     C_R   0.525776 0.058043 0.376694 -0.161374
C6    C     C_R   0.503787 0.932875 0.386004 -0.143208
C7    C     C_R   0.499516 0.874990 0.509023 -0.073957
C8    C     C_R   0.365486 0.323557 0.145603 -0.230018
C9    C     C_R   0.306711 0.223650 0.085178 0.430869
C10   C     C_R   0.298079 0.219735 0.948058 -0.195445
C11   C     C_R   0.354885 0.314195 0.870604 0.306113
C12   C     C_3   0.878775 0.505059 0.495324 -0.275493
C13   C     C_R   0.430664 0.409781 0.930174 0.107200
C14   C     C_R   0.432714 0.411759 0.073763 0.019810
C15   C     C_R   0.568207 0.581964 0.071602 0.569902
C16   C     C_R   0.497947 0.740424 0.502605 0.950465
C17   C     C_R   0.567763 0.581663 0.928175 -0.190921
C18   C     C_R   0.742004 0.500385 0.498442 0.852461
C19   C     C_3   0.065550 0.476733 0.648613 0.119352
C20   C     C_3   0.923399 0.493065 0.647055 0.779134
C21   C     C_3   0.073811 0.645365 0.460287 0.143995
C22   C     C_3   0.072760 0.402127 0.392035 -0.221672
C23   C     C_3   0.928830 0.637460 0.443311 0.081768
C24   C     C_3   0.120502 0.510129 0.500844 -0.307037
C25   C     C_2   0.115861 0.544674 0.775676 0.864539
C26   C     C_2   0.869329 0.353182 0.275043 0.922595
C27   C     C_2   0.893932 0.668749 0.299099 1.043442
C28   C     C_2   0.541579 0.105894 0.238456 0.940744
C29   C     C_2   0.215265 0.123969 0.889567 1.028572
C30   C     C_2   0.121606 0.747881 0.556120 0.972056
C31   C     C_2   0.109199 0.421113 0.240760 0.907811
C32   C     C_2   0.129181 0.273977 0.414353 1.082246
C33   C     C_3   0.928320 0.387889 0.410549 0.132693
C34   C     C_R   0.623032 0.123701 0.728292 0.427021
C35   C     C_R   0.633510 0.059565 0.847830 -0.346304
C36   C     C_R   0.572282 0.947110 0.865757 0.378015
C37   C     C_R   0.503225 0.896739 0.760843 0.468515
C38   C     C_R   0.519278 0.944556 0.629698 -0.099241
H1    H     H_    0.686789 0.099284 0.928498 0.196280
H2    H     H_    0.698697 0.270158 0.804894 0.357389
H3    H     H_    0.644141 0.922523 0.038751 0.373297
H4    H     H_    0.403301 0.798614 0.884998 0.378286
H5    H     H_    0.694976 0.707206 0.077250 0.349154
H6    H     H_    0.068778 0.323664 0.758676 0.378082
H7    H     H_    0.281981 0.135706 0.251286 0.337779
H8    H     H_    0.192705 0.978551 0.765189 0.381188
H9    H     H_    0.301917 0.240064 0.704483 0.372643
H10   H     H_    0.878560 0.395308 0.804514 0.366167
H11   H     H_    0.941454 0.662088 0.731805 0.368551
H12   H     H_    0.493521 0.879132 0.294021 0.236179
H13   H     H_    0.266007 0.856110 0.599478 0.373564
H14   H     H_    0.785877 0.726138 0.518660 0.355203
H15   H     H_    0.100484 0.353268 0.050644 0.376998
H16   H     H_    0.264710 0.173248 0.483075 0.320425
H17   H     H_    0.812793 0.267097 0.492169 0.356813
H18   H     H_    0.350717 0.332989 0.249632 0.214423
H19   H     H_    0.622995 0.648262 0.873623 0.191136
H20   H     H_    0.223693 0.672306 0.865093 0.376539
H21   H     H_    0.849593 0.218905 0.132292 0.381475
H22   H     H_    0.106424 0.766323 0.316896 0.364551
H23   H     H_    0.924014 0.650977 0.099479 0.375319
H24   H     H_    0.673221 0.224182 0.289024 0.321978
N1    N     N_R   0.498810 0.498800 0.142780 -0.103541
N2    N     N_R   0.498760 0.498720 0.857170 -0.107792
O1    O     O_R   0.500000 0.316780 0.614690 -0.528659
O2    O     O_R   0.204736 0.638044 0.772494 -0.741849
O3    O     O_2   0.820813 0.427490 0.204944 -0.583711
O4    O     O_R   0.879057 0.230984 0.227310 -0.667499
O5    O     O_3   0.129919 0.680956 0.339013 -0.666097
O6    O     O_2   0.823293 0.751807 0.281581 -0.571069
O7    O     O_R   0.952135 0.616758 0.187080 -0.717966
O8    O     O_2   0.485226 0.057437 0.147176 -0.572139
O9    O     O_R   0.625897 0.198615 0.207627 -0.766251
O10   O     O_3   0.683628 0.234923 0.714133 -0.695368
O11   O     O_3   0.579388 0.883815 0.983606 -0.758803
O12   O     O_R   0.499990 0.316750 0.385360 -0.665139
O13   O     O_3   0.410931 0.811987 0.787344 -0.698817
O14   O     O_3   0.639258 0.665136 0.141507 -0.676439
O15   O     O_3   0.089367 0.350246 0.666288 -0.670525
O16   O     O_3   0.250376 0.131610 0.159345 -0.642351
O17   O     O_2   0.109769 0.117097 0.928144 -0.527805
O18   O     O_R   0.258232 0.039801 0.793725 -0.829608
O19   O     O_3   0.319778 0.322959 0.742581 -0.665038
O20   O     O_3   0.868952 0.388116 0.705894 -0.646435
O21   O     O_3   0.881090 0.594435 0.726067 -0.751034
O22   O     O_2   0.056694 0.813638 0.625564 -0.558963
O23   O     O_R   0.314800 0.499990 0.614670 -0.492842
O24   O     O_R   0.244845 0.776691 0.549652 -0.770974
O25   O     O_3   0.875320 0.731426 0.523548 -0.697275
O26   O     O_2   0.170464 0.508040 0.200550 -0.480300
O27   O     O_R   0.078411 0.329728 0.145665 -0.737022
O28   O     O_2   0.078874 0.179686 0.371349 -0.458968
O29   O     O_R   0.240543 0.262518 0.474935 -0.840198
O30   O     O_3   0.901707 0.282623 0.488999 -0.612926
O31   O     O_R   0.314790 0.499970 0.385330 -0.606126
O32   O     O_R   0.500010 0.683250 0.614640 -0.577849
O33   O     O_R   0.500000 0.683220 0.385310 -0.577381
O34   O     O_R   0.685210 0.500030 0.614670 -0.527312
O35   O     O_R   0.685200 0.500010 0.385330 -0.600881
O36   O     O_2   0.073052 0.516422 0.885037 -0.623579
Zn1   Zn    Zn3+2 0.500010 0.500020 0.653130 1.091823
Zn2   Zn    Zn3+2 0.499990 0.499980 0.346870 1.071350

loop_
_geom_bond_atom_site_label_1
_geom_bond_atom_site_label_2
_ccdc_geom_bond_type
C35   C36   A    
O1    Zn1   S    
C33   O30   S    
C8    H18   S    
C4    O23   A    
H5    O14   S    
C12   C23   S    
C22   C32   S    
C26   O3    D    
C36   C37   A    
N1    Zn2   S    
C17   N2    A    
C5    C6    A    
C4    C24   S    
C16   O33   A    
C15   O14   S    
C4    O31   A    
C34   C35   A    
H16   O29   S    
C25   O36   D    
H8    O18   S    
H20   O2    S    
C19   C20   S    
C8    C9    A    
H15   O27   S    
C1    O1    A    
C23   O25   S    
H24   O9    S    
C23   C27   S    
C30   O22   D    
C9    C10   A    
O33   Zn2   S    
O31   Zn2   S    
C2    C34   A    
C32   O29   S    
O23   Zn1   S    
C13   C14   A    
H14   O25   S    
C28   O8    D    
H17   O30   S    
C28   O9    S    
O12   Zn2   S    
N2    Zn1   S    
C16   O32   A    
C22   C31   S    
H11   O21   S    
C11   O19   S    
C37   O13   S    
H10   O20   S    
C21   O5    S    
C1    C3    S    
C9    O16   S    
C35   H1    S    
C29   O17   D    
C37   C38   A    
C36   O11   S    
H21   O4    S    
H3    O11   S    
C5    C28   S    
C2    C38   A    
C26   C33   S    
C31   O26   D    
C20   O21   S    
C12   C20   S    
C6    H12   S    
C19   O15   S    
C27   O6    D    
C34   O10   S    
C7    C16   S    
C31   O27   S    
C20   O20   S    
C22   C24   S    
C18   O35   A    
C30   O24   S    
C27   O7    S    
C15   C17   A    
C22   C33   S    
C8    C14   A    
C1    O12   A    
H6    O15   S    
C25   O2    S    
C3    C5    A    
H13   O24   S    
C6    C7    A    
O34   Zn1   S    
C21   C30   S    
C26   O4    S    
C21   C23   S    
C2    C3    A    
C29   O18   S    
C11   C13   A    
C10   C29   S    
H23   O7    S    
C32   O28   D    
C13   N2    A    
H22   O5    S    
C14   N1    A    
C7    C38   A    
H2    O10   S    
C19   C24   S    
H7    O16   S    
C19   C25   S    
C10   C11   A    
H9    O19   S    
O35   Zn2   S    
H4    O13   S    
C21   C24   S    
C12   C18   S    
C15   N1    A    
C18   O34   A    
C12   C33   S    
O32   Zn1   S    
C17   H19   S    
