data_mof_unit_pretest_320.cif
_audit_creation_date              2012-12-10T16:50:17-0500
_audit_creation_method            fapswitch 2.2
_symmetry_space_group_name_H-M    P1
_symmetry_Int_Tables_number       1
_space_group_crystal_system       triclinic
_cell_length_a                    23.323712
_cell_length_b                    8.728958
_cell_length_c                    7.504463
_cell_angle_alpha                 103.173838
_cell_angle_beta                  95.980838
_cell_angle_gamma                 95.678386
_cell_volume                      1467.61772049

loop_
_atom_site_label
_atom_site_type_symbol
_atom_type_description
_atom_site_fract_x
_atom_site_fract_y
_atom_site_fract_z
_atom_type_partial_charge
C1    C     C_R   0.497626 0.199950 0.453747 0.833880
C2    C     C_R   0.711131 0.493003 0.654275 0.317529
C3    C     C_R   0.228303 0.481930 0.344602 0.353938
C4    C     C_R   0.771692 0.518067 0.655452 0.353800
C5    C     C_R   0.205030 0.427092 0.487486 0.189704
C6    C     C_R   0.794973 0.572932 0.512598 0.189538
C7    C     C_2   0.488902 0.032239 0.432072 0.127000
C8    C     C_2   0.511097 0.967760 0.567928 0.127002
C9    C     C_R   0.390431 0.495912 0.498086 0.845691
C10   C     C_R   0.609569 0.504088 0.501914 0.845680
C11   C     C_R   0.896983 0.682573 0.589164 0.595753
C12   C     C_R   0.502374 0.800050 0.546253 0.833881
C13   C     C_R   0.103020 0.317434 0.411112 0.595702
C14   C     C_R   0.868862 0.427222 0.386964 0.635545
C15   C     C_R   0.131159 0.572843 0.613189 0.635699
C16   C     C_R   0.926386 0.391111 0.402242 -0.085761
C17   C     C_R   0.073624 0.608879 0.598143 -0.086005
C18   C     C_R   0.970778 0.514209 0.495901 -0.086442
C19   C     C_R   0.029227 0.485757 0.504525 -0.086422
C20   C     C_R   0.956466 0.665856 0.580623 -0.118350
C21   C     C_R   0.043534 0.334105 0.419787 -0.118278
C22   C     C_R   0.940006 0.234735 0.335497 0.206672
C23   C     C_R   0.242061 0.394185 0.628751 -0.123454
C24   C     C_R   0.059985 0.765207 0.665085 0.206659
C25   C     C_R   0.998816 0.205345 0.344261 0.218664
C26   C     C_R   0.001181 0.794556 0.656313 0.219158
C27   C     C_3   0.861926 0.056303 0.408634 -0.519411
C28   C     C_3   0.137995 0.944246 0.592522 -0.518900
C29   C     C_3   0.979978 0.913843 0.171148 -0.565402
C30   C     C_3   0.019787 0.085571 0.830919 -0.563622
C31   C     C_R   0.757949 0.605841 0.371318 -0.123407
C32   C     C_R   0.302014 0.418824 0.631005 -0.172875
C33   C     C_R   0.697994 0.581189 0.369028 -0.172887
C34   C     C_R   0.326374 0.476252 0.491540 -0.186015
C35   C     C_R   0.673627 0.523744 0.508471 -0.186033
C36   C     C_R   0.288863 0.506982 0.345744 0.317523
Cl1   Cl    Cl    0.315996 0.587295 0.170227 -0.445680
Cl2   Cl    Cl    0.683991 0.412667 0.829765 -0.445649
Cl3   Cl    Cl    0.180930 0.528676 0.170472 -0.544612
Cl4   Cl    Cl    0.819055 0.471299 0.829590 -0.544528
Cl5   Cl    Cl    0.439934 0.926229 0.234993 -0.441422
Cl6   Cl    Cl    0.560064 0.073770 0.765010 -0.441422
Cl7   Cl    Cl    0.433334 0.306892 0.903433 -0.414430
Cl8   Cl    Cl    0.566667 0.693103 0.096568 -0.414423
Cu1   Cu    Cu3+1 0.506340 0.517380 0.684380 1.196390
Cu2   Cu    Cu3+1 0.493660 0.482620 0.315620 1.196390
H1    H     H_    0.224297 0.355795 0.741411 0.205851
H2    H     H_    0.136713 0.072685 0.604270 0.218819
H3    H     H_    0.120387 0.877327 0.449508 0.238725
H4    H     H_    0.184185 0.925839 0.619663 0.266381
H5    H     H_    0.040117 0.017916 0.406782 0.273947
H6    H     H_    0.009404 0.830072 0.109262 0.227940
H7    H     H_    0.955718 0.952076 0.057459 0.274678
H8    H     H_    0.949692 0.849613 0.241963 0.225387
H9    H     H_    0.959990 0.982390 0.593849 0.273827
H10   H     H_    0.990149 0.168324 0.893568 0.227915
H11   H     H_    0.050039 0.151168 0.761329 0.225446
H12   H     H_    0.775721 0.644251 0.258683 0.205904
H13   H     H_    0.044083 0.046481 0.943862 0.274608
H14   H     H_    0.329359 0.393657 0.743489 0.243282
H15   H     H_    0.670652 0.606364 0.256543 0.243276
H16   H     H_    0.872656 0.092577 0.143388 0.313003
H17   H     H_    0.862996 0.927805 0.396977 0.219124
H18   H     H_    0.815791 0.075274 0.381699 0.266513
H19   H     H_    0.879660 0.123153 0.551566 0.238836
H20   H     H_    0.127303 0.907237 0.857487 0.312970
N1    N     N_R   0.855110 0.564294 0.491846 -0.440095
N2    N     N_R   0.144897 0.435757 0.508297 -0.440098
N3    N     N_2   0.484110 0.456420 0.038520 0.141458
N4    N     N_2   0.515890 0.543580 0.961480 0.141461
N5    N     N_2   0.894939 0.104626 0.272911 -0.430532
N6    N     N_2   0.105019 0.895376 0.728006 -0.430228
N7    N     N_2   0.014335 0.047012 0.302963 -0.418452
N8    N     N_2   0.985719 0.952923 0.697518 -0.418718
O1    O     O_R   0.504120 0.286130 0.619770 -0.537159
O2    O     O_2   0.119107 0.187281 0.302828 -0.526421
O3    O     O_2   0.826411 0.326626 0.269968 -0.486555
O4    O     O_2   0.173640 0.673538 0.729941 -0.486537
O5    O     O_R   0.495880 0.713870 0.380230 -0.537164
O6    O     O_R   0.493410 0.256770 0.308360 -0.523656
O7    O     O_R   0.506590 0.743230 0.691640 -0.523656
O8    O     O_R   0.423230 0.514630 0.655730 -0.562828
O9    O     O_R   0.576770 0.485370 0.344270 -0.562815
O10   O     O_R   0.412530 0.485280 0.344320 -0.522184
O11   O     O_R   0.587470 0.514720 0.655680 -0.522181
O12   O     O_2   0.880893 0.812720 0.697451 -0.526439

loop_
_geom_bond_atom_site_label_1
_geom_bond_atom_site_label_2
_ccdc_geom_bond_type
C2    C35   A    
C30   H11   S    
C10   O11   A    
C2    C4    A    
Cu1   O8    S    
C7    C8    D    
Cu1   Cu2   S    
C29   H7    S    
C31   H12   S    
C36   Cl1   S    
C19   C21   A    
C8    Cl6   S    
Cu2   O5    S    
C30   N8    S    
C15   O4    S    
C29   N7    S    
C29   H8    S    
C11   O12   S    
C12   O5    A    
C10   O9    A    
C18   C20   A    
C18   C19   A    
C14   O3    S    
Cu2   N3    S    
C33   C35   A    
H9    N8    S    
C28   H4    S    
H20   N6    S    
C4    Cl4   S    
C22   C25   A    
C12   O7    A    
C14   N1    A    
C31   C33   A    
Cl8   N4    S    
C10   C35   S    
C34   C36   A    
C9    O8    A    
C6    C31   A    
C3    Cl3   S    
Cl7   N3    S    
C28   N6    S    
C5    N2    S    
C11   N1    A    
C11   C20   A    
C17   C24   A    
C23   H1    S    
C1    O1    A    
C4    C6    A    
C17   C19   A    
C30   H10   S    
C32   C34   A    
Cu1   O11   S    
C27   H19   S    
C28   H3    S    
C2    Cl2   S    
C5    C23   A    
C13   O2    S    
C8    C12   S    
C30   H13   S    
C13   C21   A    
C27   H17   S    
Cu2   O10   S    
C16   C18   A    
C6    N1    S    
C9    C34   S    
C14   C16   A    
C32   H14   S    
C22   N5    S    
C27   N5    S    
C24   N6    S    
C15   C17   A    
C21   C25   A    
C28   H2    S    
C16   C22   A    
Cu1   N4    S    
C1    C7    S    
Cu1   O7    S    
H5    N7    S    
C24   C26   A    
C3    C5    A    
Cu1   O1    S    
C23   C32   A    
Cu2   O6    S    
C20   C26   A    
C3    C36   A    
C15   N2    A    
C26   N8    S    
H16   N5    S    
C25   N7    S    
C7    Cl5   S    
N3    N4    D    
C27   H18   S    
C9    O10   A    
Cu2   O9    S    
C33   H15   S    
C1    O6    A    
C29   H6    S    
C13   N2    A    
