data_mof_unit_pretest_567.cif
_audit_creation_date              2012-12-10T18:47:47-0500
_audit_creation_method            fapswitch 2.2
_symmetry_space_group_name_H-M    P1
_symmetry_Int_Tables_number       1
_space_group_crystal_system       triclinic
_cell_length_a                    9.861823
_cell_length_b                    10.631122
_cell_length_c                    15.512883
_cell_angle_alpha                 90.170673
_cell_angle_beta                  67.07912
_cell_angle_gamma                 90.299898
_cell_volume                      1497.96893482

loop_
_atom_site_label
_atom_site_type_symbol
_atom_type_description
_atom_site_fract_x
_atom_site_fract_y
_atom_site_fract_z
_atom_type_partial_charge
C1    C     C_R   0.501845 0.739486 0.497904 0.987119
C2    C     C_R   0.415156 0.932553 0.581700 0.341391
C3    C     C_R   0.496747 0.128049 0.501520 -0.247077
C4    C     C_R   0.503253 0.871951 0.498480 -0.247078
C5    C     C_R   0.966443 0.429444 0.436686 -0.043499
C6    C     C_R   0.033557 0.570556 0.563314 -0.043499
C7    C     C_R   0.110129 0.429388 0.436754 -0.016447
C8    C     C_R   0.889871 0.570612 0.563246 -0.016449
C9    C     C_R   0.407590 0.497276 0.676059 0.963455
C10   C     C_R   0.592410 0.502724 0.323941 0.963458
C11   C     C_R   0.348416 0.497036 0.777823 -0.116773
C12   C     C_R   0.498155 0.260514 0.502096 0.987115
C13   C     C_R   0.651584 0.502964 0.222177 -0.116770
C14   C     C_R   0.170944 0.569300 0.926308 -0.194009
C15   C     C_R   0.829056 0.430698 0.073692 -0.194009
C16   C     C_R   0.213676 0.554263 0.830143 -0.177780
C17   C     C_R   0.786324 0.445736 0.169857 -0.177779
C18   C     C_R   0.437056 0.451124 0.822267 0.270221
C19   C     C_R   0.562944 0.548875 0.177733 0.270220
C20   C     C_R   0.411292 0.491998 0.913394 0.026959
C21   C     C_R   0.588708 0.508000 0.086605 0.026959
C22   C     C_R   0.269706 0.539856 0.968216 0.115925
C23   C     C_R   0.329106 0.532555 0.104481 -0.121267
C24   C     C_R   0.730294 0.460143 0.031784 0.115924
C25   C     C_R   0.520569 0.487812 0.951650 0.082149
C26   C     C_R   0.479431 0.512186 0.048350 0.082149
C27   C     C_2   0.679056 0.870433 0.327936 1.002800
C28   C     C_2   0.320941 0.129567 0.672062 1.002797
C29   C     C_R   0.670893 0.467443 0.895519 -0.121267
C30   C     C_R   0.227891 0.554276 0.064277 -0.191776
C31   C     C_R   0.772108 0.445722 0.935723 -0.191776
C32   C     C_R   0.588875 0.937106 0.416194 -0.143302
C33   C     C_R   0.411124 0.062893 0.583806 -0.143299
C34   C     C_R   0.584845 0.067447 0.418299 0.341392
Cl1   Cl    Cl    0.448078 0.680057 0.228490 -0.586740
Cl2   Cl    Cl    0.551922 0.319942 0.771509 -0.586737
Cl3   Cl    Cl    0.693156 0.156154 0.317884 -0.589157
Cl4   Cl    Cl    0.306845 0.843847 0.682116 -0.589157
H1    H     H_    0.115940 0.579603 0.108667 0.164166
H2    H     H_    0.057237 0.626982 0.613973 0.149417
H3    H     H_    0.194993 0.372743 0.386144 0.144087
H4    H     H_    0.805007 0.627257 0.613856 0.144087
H5    H     H_    0.733996 0.851820 0.188951 0.360386
H6    H     H_    0.265999 0.148183 0.811047 0.360385
H7    H     H_    0.884059 0.420395 0.891333 0.164165
H8    H     H_    0.857635 0.412547 0.203190 0.191511
H9    H     H_    0.142365 0.587453 0.796810 0.191511
H10   H     H_    0.064290 0.609604 0.966959 0.166388
H11   H     H_    0.935709 0.390395 0.033041 0.166388
H12   H     H_    0.287360 0.531737 0.179902 0.192825
H13   H     H_    0.712640 0.468261 0.820098 0.192825
H14   H     H_    0.942763 0.373018 0.386027 0.149417
N1    N     N_R   0.142780 0.500030 0.500020 -0.079915
N2    N     N_R   0.857220 0.499970 0.499980 -0.079915
O1    O     O_R   0.385370 0.683250 0.500010 -0.586556
O2    O     O_R   0.666842 0.903248 0.244056 -0.689297
O3    O     O_2   0.235069 0.211863 0.671694 -0.621639
O4    O     O_R   0.333156 0.096756 0.755943 -0.689297
O5    O     O_R   0.614630 0.316750 0.499990 -0.586555
O6    O     O_R   0.614700 0.683220 0.500000 -0.589748
O7    O     O_R   0.385300 0.316780 0.500000 -0.589748
O8    O     O_R   0.319830 0.500020 0.632250 -0.604384
O9    O     O_R   0.680170 0.499980 0.367750 -0.604383
O10   O     O_R   0.549160 0.499990 0.632240 -0.596647
O11   O     O_R   0.450840 0.500010 0.367760 -0.596647
O12   O     O_2   0.764923 0.788132 0.328304 -0.621643
Zn1   Zn    Zn3+2 0.346870 0.500020 0.500000 1.037215
Zn2   Zn    Zn3+2 0.653130 0.499980 0.500000 1.037215

loop_
_geom_bond_atom_site_label_1
_geom_bond_atom_site_label_2
_ccdc_geom_bond_type
C30   H1    S    
O1    Zn1   S    
C21   C26   A    
C11   C18   A    
C1    O6    A    
C3    C12   S    
C28   O4    S    
O5    Zn2   S    
C34   Cl3   S    
C11   C16   A    
O7    Zn1   S    
C2    C4    A    
C10   O9    A    
C13   C17   A    
C1    C4    S    
C2    Cl4   S    
C14   C22   A    
C15   H11   S    
C1    O1    A    
C24   C31   A    
C29   C31   A    
C27   O12   D    
C19   Cl1   S    
C28   O3    D    
C12   O7    A    
C9    C11   S    
C4    C32   A    
O8    Zn1   S    
C6    C8    A    
O10   Zn2   S    
C2    C33   A    
C15   C24   A    
C19   C21   A    
C20   C22   A    
C28   C33   S    
C18   C20   A    
C7    H3    S    
C25   C29   A    
N1    Zn1   S    
C14   C16   A    
C21   C24   A    
C10   O11   A    
N2    Zn2   S    
C20   C25   A    
C3    C33   A    
C6    N1    A    
C31   H7    S    
C9    O8    A    
C9    O10   A    
C23   C30   A    
H6    O4    S    
C5    N2    A    
C6    H2    S    
C27   C32   S    
C17   H8    S    
O6    Zn2   S    
C5    C7    A    
H5    O2    S    
C29   H13   S    
C23   C26   A    
C8    N2    A    
C15   C17   A    
C7    N1    A    
C27   O2    S    
C13   C19   A    
C14   H10   S    
C16   H9    S    
C22   C30   A    
C3    C34   A    
O11   Zn1   S    
C25   C26   A    
O9    Zn2   S    
C12   O5    A    
C18   Cl2   S    
C5    H14   S    
C8    H4    S    
C23   H12   S    
C10   C13   S    
C32   C34   A    
