data_mof_unit_pretest_1267.cif
_audit_creation_date              2012-10-26T19:15:22-0400
_audit_creation_method            fapswitch 2.2
_symmetry_space_group_name_H-M    P1
_symmetry_Int_Tables_number       1
_space_group_crystal_system       triclinic
_cell_length_a                    15.965904
_cell_length_b                    10.899021
_cell_length_c                    9.551563
_cell_angle_alpha                 90.301849
_cell_angle_beta                  90.405126
_cell_angle_gamma                 90.705545
_cell_volume                      1661.90208876

loop_
_atom_site_label
_atom_site_type_symbol
_atom_type_description
_atom_site_fract_x
_atom_site_fract_y
_atom_site_fract_z
_atom_type_partial_charge
C1    C     C_R   0.498248 0.262033 0.499443 0.547373
C2    C     C_R   0.514656 0.932706 0.374529 -0.133955
C3    C     C_R   0.506938 0.869211 0.500668 -0.026704
C4    C     C_R   0.341362 0.502085 0.499577 0.559859
C5    C     C_R   0.502696 0.936653 0.624100 -0.111696
C6    C     C_3   0.456199 0.922679 0.759064 0.006230
C7    C     C_3   0.454006 0.065328 0.760960 0.514942
C8    C     C_R   0.538722 0.592591 0.074965 0.140751
C9    C     C_R   0.448563 0.423857 0.073532 0.026335
C10   C     C_R   0.449524 0.422040 0.924452 0.022154
C11   C     C_R   0.540567 0.591004 0.928485 0.145562
C12   C     C_R   0.045705 0.410300 0.580257 -0.116189
C13   C     C_3   0.630763 0.633614 0.929323 -0.082122
C14   C     C_3   0.626470 0.638216 0.088926 -0.265998
C15   C     C_R   0.501969 0.737028 0.500366 0.589351
C16   C     C_R   0.658675 0.499883 0.500345 0.549278
C17   C     C_R   0.957750 0.404575 0.582010 0.080648
C18   C     C_R   0.912676 0.492178 0.503003 0.020405
C19   C     C_R   0.955472 0.581118 0.424849 -0.130920
C20   C     C_R   0.042595 0.584659 0.423889 -0.101098
C21   C     C_R   0.087564 0.499449 0.501547 0.006964
C22   C     C_3   0.580861 0.145892 0.872247 0.028666
C23   C     C_1   0.822915 0.495362 0.501621 0.029522
C24   C     C_3   0.639620 0.037996 0.898181 -0.294838
C25   C     C_3   0.730435 0.081298 0.913368 -0.463257
C26   C     C_2   0.693925 0.541474 0.880956 0.617251
C27   C     C_2   0.916241 0.306661 0.666491 0.575830
C28   C     C_3   0.410495 0.121890 0.202651 0.022505
C29   C     C_3   0.366100 0.997510 0.178034 -0.268266
C30   C     C_3   0.281409 0.014611 0.105696 -0.436278
C31   C     C_2   0.374368 0.850995 0.754735 0.560780
C32   C     C_3   0.318397 0.085300 0.645211 -0.000127
C33   C     C_3   0.276109 0.196665 0.581114 -0.271401
C34   C     C_1   0.177090 0.502408 0.499781 -0.056333
C35   C     C_3   0.203191 0.157923 0.485948 -0.486884
C36   C     C_1   0.252206 0.503114 0.499003 -0.012248
C37   C     C_1   0.747805 0.497893 0.500804 0.049802
C38   C     C_R   0.503233 0.062793 0.624131 -0.058170
C39   C     C_R   0.499713 0.128073 0.497842 -0.016121
C40   C     C_R   0.504116 0.059753 0.370432 0.244818
Cu1   Cu    Cu3+1 0.500000 0.499980 0.640670 1.011969
Cu2   Cu    Cu3+1 0.500000 0.500020 0.359330 0.970936
H1    H     H_    0.082135 0.344731 0.639151 0.152968
H2    H     H_    0.498297 0.884149 0.840435 0.092177
H3    H     H_    0.592616 0.215141 0.955977 0.216395
H4    H     H_    0.595588 0.193357 0.772885 0.166678
H5    H     H_    0.620697 0.989603 0.995384 0.187199
H6    H     H_    0.635645 0.972115 0.809444 0.150293
H7    H     H_    0.750967 0.128184 0.816392 0.194336
H8    H     H_    0.771248 0.001059 0.931356 0.156584
H9    H     H_    0.737441 0.145284 0.003718 0.172611
H10   H     H_    0.730396 0.365243 0.873972 0.347879
H11   H     H_    0.928592 0.174951 0.812901 0.336415
H12   H     H_    0.405506 0.365920 0.129408 0.097540
H13   H     H_    0.408084 0.170430 0.101443 0.197172
H14   H     H_    0.375482 0.177464 0.280357 0.111424
H15   H     H_    0.405741 0.938086 0.111548 0.219680
H16   H     H_    0.355042 0.951342 0.279778 0.149930
H17   H     H_    0.242586 0.080632 0.164627 0.125400
H18   H     H_    0.247329 0.925318 0.099827 0.178390
H19   H     H_    0.290435 0.049776 0.997872 0.212478
H20   H     H_    0.279405 0.777989 0.865844 0.336929
H21   H     H_    0.268879 0.027223 0.693486 0.181382
H22   H     H_    0.347905 0.032712 0.559384 0.138520
H23   H     H_    0.409728 0.357558 0.867942 0.163586
H24   H     H_    0.252436 0.257566 0.665379 0.183317
H25   H     H_    0.322714 0.248576 0.518785 0.153191
H26   H     H_    0.223982 0.088946 0.408264 0.149990
H27   H     H_    0.179073 0.238864 0.429171 0.154108
H28   H     H_    0.151641 0.117651 0.549013 0.170703
H29   H     H_    0.638932 0.726136 0.882201 0.083768
H30   H     H_    0.667948 0.572465 0.143583 0.178495
H31   H     H_    0.629342 0.733295 0.131560 0.095640
H32   H     H_    0.921249 0.648245 0.364569 0.119453
H33   H     H_    0.074870 0.653833 0.362743 0.125627
H34   H     H_    0.520623 0.883384 0.276389 0.141735
N1    N     N_R   0.500520 0.500930 0.147930 -0.220385
N2    N     N_R   0.500520 0.500890 0.852020 -0.226092
O1    O     O_R   0.500000 0.319640 0.618810 -0.499243
O2    O     O_2   0.755801 0.576824 0.817488 -0.518216
O3    O     O_R   0.683330 0.417082 0.911863 -0.711035
O4    O     O_2   0.841535 0.283657 0.652258 -0.546576
O5    O     O_R   0.963426 0.238895 0.762091 -0.716286
O6    O     O_3   0.496479 0.113014 0.239989 -0.538531
O7    O     O_2   0.345564 0.810360 0.644627 -0.544265
O8    O     O_R   0.332922 0.827666 0.880049 -0.729437
O9    O     O_3   0.374476 0.124420 0.752700 -0.562601
O10   O     O_R   0.500010 0.319680 0.381230 -0.466957
O11   O     O_R   0.380300 0.499950 0.618760 -0.486907
O12   O     O_R   0.380310 0.499990 0.381180 -0.512143
O13   O     O_R   0.499990 0.680320 0.618770 -0.488799
O14   O     O_R   0.500000 0.680360 0.381190 -0.516146
O15   O     O_R   0.619690 0.500010 0.618820 -0.471255
O16   O     O_R   0.619700 0.500050 0.381240 -0.514474
O17   O     O_3   0.495889 0.108761 0.884767 -0.561970

loop_
_geom_bond_atom_site_label_1
_geom_bond_atom_site_label_2
_ccdc_geom_bond_type
Cu1   O11   S    
C4    C36   S    
C31   O7    D    
C28   O6    S    
Cu1   Cu2   S    
C40   O6    S    
C19   C20   A    
C10   N2    A    
C3    C15   S    
H20   O8    S    
C16   O15   A    
C28   C29   S    
C12   H1    S    
C38   C39   A    
C18   C19   A    
C22   O17   S    
C25   H8    S    
C15   O14   A    
Cu1   O15   S    
C35   H28   S    
C30   H18   S    
C12   C17   A    
C9    C10   A    
Cu2   O14   S    
C16   C37   S    
C1    O10   A    
C6    C31   S    
C31   O8    S    
C6    H2    S    
C13   C14   S    
C28   H13   S    
C33   H24   S    
C4    O12   A    
C27   O4    D    
C28   H14   S    
C7    O9    S    
C18   C23   S    
C17   C27   S    
C14   H31   S    
C24   C25   S    
C32   H22   S    
Cu1   N2    S    
C21   C34   S    
C13   H29   S    
C23   C37   T    
C32   O9    S    
C12   C21   A    
C26   O2    D    
C20   H33   S    
Cu2   O12   S    
C24   H6    S    
C25   H9    S    
C29   C30   S    
C11   N2    A    
C30   H17   S    
C17   C18   A    
C9    N1    A    
C20   C21   A    
Cu1   O13   S    
C29   H15   S    
C26   O3    S    
C8    N1    A    
C1    O1    A    
C22   C24   S    
C13   C26   S    
Cu2   O10   S    
C39   C40   A    
C2    H34   S    
C33   H25   S    
C4    O11   A    
C10   H23   S    
C8    C14   S    
C22   H4    S    
Cu2   O16   S    
C24   H5    S    
C14   H30   S    
C19   H32   S    
C32   H21   S    
C3    C5    A    
Cu1   O1    S    
C6    C7    S    
C7    O17   S    
C16   O16   A    
H11   O5    S    
C32   C33   S    
C27   O5    S    
C2    C3    A    
C11   C13   S    
C5    C6    S    
C35   H26   S    
C8    C11   A    
C33   C35   S    
C7    C38   S    
C34   C36   T    
H10   O3    S    
C25   H7    S    
C1    C39   S    
C15   O13   A    
C2    C40   A    
C22   H3    S    
C29   H16   S    
C35   H27   S    
Cu2   N1    S    
C30   H19   S    
C9    H12   S    
C5    C38   A    
