data_mof_unit_pretest_1044.cif
_audit_creation_date              2012-12-11T16:31:24-0500
_audit_creation_method            fapswitch 2.2
_symmetry_space_group_name_H-M    P1
_symmetry_Int_Tables_number       1
_space_group_crystal_system       triclinic
_cell_length_a                    6.960212
_cell_length_b                    18.226405
_cell_length_c                    20.251521
_cell_angle_alpha                 68.316194
_cell_angle_beta                  90.537345
_cell_angle_gamma                 90.747313
_cell_volume                      2387.07174583

loop_
_atom_site_label
_atom_site_type_symbol
_atom_type_description
_atom_site_fract_x
_atom_site_fract_y
_atom_site_fract_z
_atom_type_partial_charge
O1    O     O_R   0.488990 0.443920 0.942160 -0.519117
O2    O     O_R   0.823840 0.406530 0.087600 -0.545535
O3    O     O_R   0.999650 0.556080 0.057840 -0.525388
C1    C     C_R   0.655120 0.383672 0.114946 0.809589
O4    O     O_R   0.818390 0.434590 0.944530 -0.530933
O5    O     O_R   0.994160 0.584350 0.913750 -0.533785
C2    C     C_R   0.648986 0.420543 0.924008 0.707919
O6    O     O_R   0.494480 0.415650 0.086250 -0.530815
O7    O     O_3   0.662600 0.549100 0.990070 -0.364646
V1    V     V_3+5 0.935320 0.490890 0.001840 1.566291
O8    O     O_R   0.324240 0.593470 0.912400 -0.538474
C3    C     C_R   0.155266 0.617229 0.885681 0.818801
O9    O     O_R   0.329690 0.565410 0.055470 -0.516551
C4    C     C_R   0.162016 0.579172 0.076111 0.705242
V2    V     V_3+5 0.435990 0.509110 0.998160 1.591502
O10   O     O_3   0.158840 0.450900 0.009930 -0.370640
C5    C     C_3   0.975490 0.673701 0.265867 -0.113944
C6    C     C_3   0.336045 0.699986 0.250043 0.383099
C7    C     C_3   0.340038 0.755337 0.294594 0.266636
H1    H     H_    0.358926 0.637709 0.285713 0.078340
C8    C     C_1   0.111045 0.875602 0.377853 -0.161109
C9    C     C_3   0.140752 0.705214 0.210191 -0.140719
C10   C     C_3   0.981382 0.717315 0.320709 0.706986
C11   C     C_3   0.130608 0.787758 0.295354 -0.019664
C12   C     C_3   0.073761 0.839840 0.217372 -0.506845
C13   C     C_3   0.101503 0.794090 0.166757 0.489795
C14   C     C_1   0.119011 0.836153 0.340948 0.117443
C15   C     C_1   0.148619 0.660425 0.161633 0.243192
C16   C     C_1   0.155256 0.623784 0.122318 -0.064065
H2    H     H_    0.224780 0.820378 0.130877 0.157241
H3    H     H_    0.921132 0.857746 0.215358 0.272982
H4    H     H_    0.838616 0.690464 0.235505 0.304179
H5    H     H_    0.157563 0.896038 0.197895 0.135278
C17   C     C_R   0.143688 0.775797 0.879207 -0.271579
C18   C     C_R   0.135177 0.851109 0.880418 0.634843
C19   C     C_R   0.120897 0.916278 0.817289 0.076134
C20   C     C_R   0.115398 0.906210 0.751582 0.094755
C21   C     C_R   0.124219 0.828390 0.748869 0.010295
C22   C     C_R   0.138103 0.762607 0.814640 -0.080743
C23   C     C_R   0.118895 0.814238 0.683610 -0.090446
C24   C     C_R   0.125209 0.734636 0.684995 -0.062680
C25   C     C_R   0.138690 0.669990 0.751845 -0.116027
C26   C     C_R   0.145458 0.684422 0.816088 -0.087359
C27   C     C_R   0.118775 0.716609 0.621667 0.129720
C28   C     C_R   0.124099 0.638140 0.625245 0.150268
C29   C     C_R   0.137455 0.576154 0.690584 0.090346
C30   C     C_R   0.145569 0.591419 0.752979 0.489243
H6    H     H_    0.154471 0.727714 0.930164 0.127092
H7    H     H_    0.565432 0.485456 0.304455 0.161957
C31   C     C_R   0.692051 0.224486 0.123962 -0.216396
C32   C     C_R   0.711463 0.148524 0.124874 -0.177682
C33   C     C_R   0.701417 0.083834 0.188423 0.186764
C34   C     C_R   0.667590 0.095538 0.252228 0.514628
C35   C     C_R   0.651000 0.173369 0.253127 -0.077443
C36   C     C_R   0.663397 0.238668 0.187264 -0.002432
C37   C     C_R   0.621853 0.187146 0.317385 -0.137245
C38   C     C_R   0.606671 0.266727 0.315328 -0.050604
C39   C     C_R   0.617726 0.331448 0.248278 -0.099449
C40   C     C_R   0.645336 0.316910 0.184724 -0.116790
C41   C     C_R   0.583581 0.284712 0.378140 0.168046
C42   C     C_R   0.566312 0.363341 0.373727 0.138488
C43   C     C_R   0.576703 0.424825 0.308121 -0.232214
C44   C     C_R   0.603868 0.410054 0.246601 0.557970
H8    H     H_    0.700554 0.272027 0.072592 0.109673
H9    H     H_    0.734860 0.139878 0.075442 0.163808
O11   O     O_R   0.770890 0.084490 0.414040 -0.524706
O12   O     O_R   0.445980 0.065450 0.555510 -0.537182
O13   O     O_R   0.270670 0.915620 0.586180 -0.537829
C45   C     C_R   0.614934 0.077254 0.577954 0.725254
O14   O     O_R   0.441480 0.093500 0.412450 -0.534680
O15   O     O_R   0.266140 0.943870 0.442100 -0.527975
C46   C     C_R   0.610693 0.117955 0.385930 0.918169
O16   O     O_R   0.775410 0.056240 0.558120 -0.538115
O17   O     O_3   0.602660 0.950990 0.510100 -0.365351
V3    V     V_3+5 0.329740 0.009100 0.498130 1.500869
O18   O     O_R   0.936120 0.934420 0.444240 -0.511991
C47   C     C_R   0.103698 0.922430 0.422229 0.764070
O19   O     O_R   0.940610 0.906370 0.587310 -0.538112
C48   C     C_R   0.109477 0.882628 0.614530 0.849681
V4    V     V_3+5 0.829110 0.990690 0.501470 1.530962
O20   O     O_3   0.106080 0.049010 0.489880 -0.378242
C49   C     C_3   0.837569 0.216746 0.733264 -0.406992
C50   C     C_3   0.549499 0.290846 0.667903 -0.290457
C51   C     C_3   0.545889 0.340129 0.716630 0.078567
H10   H     H_    0.938666 0.316006 0.761809 0.211696
H11   H     H_    0.929743 0.247415 0.686268 0.211360
H12   H     H_    0.401339 0.286247 0.648495 0.175949
H13   H     H_    0.638326 0.321039 0.619807 0.173761
H14   H     H_    0.392766 0.351915 0.723923 0.187441
C52   C     C_1   0.639457 0.375045 0.878347 -0.120409
C53   C     C_3   0.630033 0.207188 0.708641 0.018650
C54   C     C_3   0.839069 0.264610 0.782941 -0.403244
C55   C     C_3   0.633009 0.291606 0.791811 0.013389
C56   C     C_3   0.508432 0.215307 0.824947 0.457278
C57   C     C_3   0.504972 0.166431 0.775782 0.490497
C58   C     C_1   0.635430 0.337459 0.839639 0.020137
C59   C     C_1   0.628767 0.160229 0.662078 0.032439
C60   C     C_1   0.624487 0.122339 0.623768 -0.187815
H15   H     H_    0.562218 0.106489 0.805939 0.012519
H16   H     H_    0.570082 0.178246 0.877458 0.027867
H17   H     H_    0.900913 0.157588 0.761877 0.220468
H18   H     H_    0.897454 0.227003 0.835836 0.210245
N1    N     N_3   0.017459 0.664632 0.394716 -0.621748
H19   H     H_    0.892107 0.632527 0.415649 0.239286
H20   H     H_    0.123830 0.623635 0.398376 0.214843
F1    F     F_    0.803406 0.750237 0.319646 -0.674893
N2    N     N_3   0.144975 0.496572 0.693401 -0.660957
H21   H     H_    0.273153 0.472231 0.718775 0.266637
H22   H     H_    0.031695 0.464793 0.725113 0.252910
F2    F     F_    0.140469 0.860753 0.943761 -0.646397
N3    N     N_3   0.111244 0.993987 0.819203 -0.603260
H23   H     H_    0.233749 0.003288 0.845480 0.292206
H24   H     H_    0.991136 0.996245 0.849001 0.260219
N4    N     N_3   0.099349 0.975877 0.688509 -0.648583
H25   H     H_    0.973787 0.005312 0.691594 0.249466
H26   H     H_    0.216892 0.013008 0.686378 0.266588
N5    N     N_3   0.107582 0.777212 0.552595 -0.669528
H27   H     H_    0.983154 0.767822 0.527304 0.256953
H28   H     H_    0.227117 0.772693 0.523453 0.244570
N6    N     N_3   0.116773 0.622286 0.560913 -0.631259
H29   H     H_    0.240864 0.591840 0.558142 0.261728
H30   H     H_    0.997876 0.585750 0.563254 0.256722
N7    N     N_3   0.969495 0.586956 0.298151 -0.671638
H31   H     H_    0.856131 0.568813 0.334290 0.244694
H32   H     H_    0.097434 0.563815 0.324279 0.218570
F3    F     F_    0.161317 0.527380 0.814293 -0.700942
N8    N     N_3   0.724040 0.006329 0.186664 -0.635736
H33   H     H_    0.861626 0.004007 0.167289 0.230353
H34   H     H_    0.720068 0.963125 0.237760 0.285281
F4    F     F_    0.648734 0.030136 0.312237 -0.723180
N9    N     N_3   0.582994 0.224100 0.447397 -0.684012
H35   H     H_    0.694925 0.235639 0.477116 0.242178
H36   H     H_    0.452550 0.225889 0.471923 0.235580
N10   N     N_3   0.542381 0.379948 0.437295 -0.668488
H37   H     H_    0.553815 0.440630 0.426149 0.226768
H38   H     H_    0.402386 0.363221 0.455364 0.229067
F5    F     F_    0.618913 0.474734 0.185851 -0.681706
F6    F     F_    0.486005 0.718529 0.201711 -0.638613
N11   N     N_3   0.641463 0.416860 0.681044 -0.675802
H39   H     H_    0.636902 0.450291 0.713236 0.236672
H40   H     H_    0.785186 0.408907 0.671227 0.249475
F7    F     F_    0.317712 0.157111 0.755899 -0.656401
F8    F     F_    0.322959 0.234346 0.836950 -0.654037
N12   N     N_3   0.402556 0.709578 0.367849 -0.665259
H41   H     H_    0.441266 0.747574 0.393948 0.272428
H42   H     H_    0.523092 0.676079 0.367801 0.285725
N13   N     N_3   0.478961 0.820757 0.263155 -0.493304
H43   H     H_    0.457182 0.849666 0.208606 0.263941
H44   H     H_    0.467357 0.862440 0.287061 0.236885
F9    F     F_    0.939644 0.802549 0.124155 -0.599395

loop_
_geom_bond_atom_site_label_1
_geom_bond_atom_site_label_2
_ccdc_geom_bond_type
C12   H3    S    
C50   H12   S    
C55   C56   S    
C36   C40   A    
C31   H8    S    
C24   C25   A    
N13   H43   S    
C11   C14   S    
C1    O6    A    
C59   C60   T    
N7    H31   S    
C28   C29   A    
N6    H29   S    
O13   V3    S    
C5    C10   S    
C56   F8    S    
C19   C20   A    
N13   H44   S    
C6    C7    S    
C3    C26   S    
N5    H28   S    
O5    C3    A    
C21   C22   A    
O19   V4    S    
N7    H32   S    
C57   H15   S    
V2    O10   S    
C7    N12   S    
C49   C54   S    
C37   C38   A    
C17   C18   A    
C32   H9    S    
C6    F6    S    
N1    H19   S    
C35   C36   A    
O8    V2    S    
C5    N7    S    
C10   N1    S    
C43   C44   A    
N3    H23   S    
C51   N11   S    
O11   C46   A    
C37   C46   S    
N2    H21   S    
C45   O16   A    
O1    V2    S    
O7    V1    S    
C54   H18   S    
C51   C55   S    
C45   C60   S    
N11   H40   S    
O13   C48   A    
C50   H13   S    
C8    C14   T    
C21   C23   A    
C9    C15   S    
O9    C4    A    
C44   F5    S    
C56   C57   S    
C41   N9    S    
C53   C59   S    
H10   C54   S    
N6    H30   S    
C42   N10   S    
N4    H25   S    
C35   C37   A    
O17   V3    S    
C32   C33   A    
C13   F9    S    
C11   C12   S    
N3    H24   S    
O4    C2    A    
O19   C48   A    
V3    O20   S    
C38   C41   A    
C22   C26   A    
C20   N4    S    
C12   C13   S    
C34   C35   A    
C2    C52   S    
C7    N13   S    
C49   C53   S    
C17   C22   A    
C41   C42   A    
O12   C45   A    
C18   C19   A    
O2    C1    A    
N8    H34   S    
C20   C21   A    
O17   V4    S    
N4    H26   S    
C50   C51   S    
C56   H16   S    
C10   C11   S    
C31   C36   A    
C29   N2    S    
C19   N3    S    
C31   C32   A    
C23   C48   S    
N1    H20   S    
O18   C47   A    
O3    C4    A    
C18   F2    S    
C28   N6    S    
N12   H42   S    
C23   C24   A    
C13   H2    S    
O6    V2    S    
O9    V2    S    
C9    C13   S    
C24   C27   A    
C33   N8    S    
C25   C26   A    
C4    C16   S    
N8    H33   S    
O2    V1    S    
O15   C47   A    
O11   V4    S    
C33   C34   A    
C30   F3    S    
C39   C44   A    
C29   C30   A    
C15   C16   T    
H7    C43   S    
C49   H17   S    
O1    C2    A    
C27   C28   A    
O18   V4    S    
V4    O20   S    
N9    H36   S    
O5    V1    S    
N10   H38   S    
N11   H39   S    
C52   C58   T    
N10   H37   S    
C55   C58   S    
C50   C53   S    
C17   H6    S    
C5    C9    S    
N12   H41   S    
C6    C9    S    
C7    C11   S    
C39   C40   A    
O4    V1    S    
O3    V1    S    
C49   H11   S    
N5    H27   S    
O15   V3    S    
C10   F1    S    
C38   C39   A    
N2    H22   S    
V1    O10   S    
C27   N5    S    
C1    C40   S    
C54   C55   S    
O16   V4    S    
C6    H1    S    
C25   C30   A    
O7    V2    S    
C42   C43   A    
C53   C57   S    
O12   V3    S    
C57   F7    S    
C51   H14   S    
C8    C47   S    
O14   V3    S    
C5    H4    S    
O14   C46   A    
C34   F4    S    
N9    H35   S    
O8    C3    A    
C12   H5    S    
