data_mof_unit_pretest_1198.cif
_audit_creation_date              2012-12-11T15:53:43-0500
_audit_creation_method            fapswitch 2.2
_symmetry_space_group_name_H-M    P1
_symmetry_Int_Tables_number       1
_space_group_crystal_system       triclinic
_cell_length_a                    10.719742
_cell_length_b                    10.743597
_cell_length_c                    17.072672
_cell_angle_alpha                 80.412185
_cell_angle_beta                  99.699827
_cell_angle_gamma                 119.1818
_cell_volume                      1683.9746655

loop_
_atom_site_label
_atom_site_type_symbol
_atom_type_description
_atom_site_fract_x
_atom_site_fract_y
_atom_site_fract_z
_atom_type_partial_charge
C1    C     C_R   0.361507 0.230030 0.627624 0.540549
C2    C     C_1   0.320815 0.160319 0.778247 0.019959
C3    C     C_1   0.318948 0.684343 0.280361 0.091045
C4    C     C_R   0.414172 0.620041 0.601820 0.565407
C5    C     C_1   0.298059 0.707943 0.209718 0.063977
C6    C     C_R   0.853383 0.677327 0.163352 -0.009608
C7    C     C_R   0.903091 0.600046 0.221250 -0.108515
C8    C     C_R   0.893977 0.595119 0.300259 -0.054109
C9    C     C_R   0.809719 0.772313 0.269315 0.221201
C10   C     C_R   0.815684 0.771808 0.187531 0.366146
C11   C     C_3   0.882182 0.451289 0.226851 0.641488
C12   C     C_R   0.514480 0.721784 0.732270 -0.132385
C13   C     C_3   0.876451 0.445198 0.315670 0.640359
C14   C     C_R   0.835515 0.670869 0.325442 -0.025902
C15   C     C_R   0.296905 0.113310 0.172724 -0.063714
C16   C     C_R   0.776327 0.618802 0.627011 0.545721
C17   C     C_R   0.185853 0.118698 0.201174 -0.088186
C18   C     C_R   0.192534 0.135564 0.279538 -0.143035
C19   C     C_R   0.402388 0.101587 0.309791 0.401005
C20   C     C_R   0.398425 0.089524 0.228779 0.386998
C21   C     C_3   0.115286 0.209773 0.169918 0.806736
C22   C     C_3   0.125847 0.234124 0.256069 0.522180
C23   C     C_R   0.493528 0.738810 0.807833 0.358078
C24   C     C_R   0.310225 0.143820 0.333052 -0.062078
C25   C     C_R   0.890492 0.701432 0.856147 0.568610
C26   C     C_R   0.316515 0.705862 0.898507 0.606146
C27   C     C_R   0.284339 0.114323 0.857740 0.550249
C28   C     C_R   0.348215 0.221825 0.401913 0.580968
C29   C     C_R   0.888076 0.691223 0.083887 0.586929
C30   C     C_R   0.285120 0.738747 0.125514 0.543431
C31   C     C_R   0.279612 0.095680 0.089067 0.586213
C32   C     C_R   0.362171 0.657523 0.361821 0.602896
C33   C     C_R   0.772485 0.623669 0.400090 0.592735
C34   C     C_3   0.102022 0.448007 0.782935 0.615096
C35   C     C_R   0.357352 0.653703 0.837668 0.003563
C36   C     C_R   0.261565 0.530908 0.799443 -0.021187
C37   C     C_R   0.283926 0.513335 0.725414 -0.005920
C38   C     C_3   0.126645 0.429537 0.700920 0.615858
C39   C     C_R   0.402079 0.618356 0.686201 -0.077310
C40   C     C_1   0.820840 0.656405 0.706296 -0.014649
C41   C     C_1   0.848264 0.684144 0.774054 0.000572
C42   C     C_1   0.345595 0.188387 0.709956 0.014633
Cr1   Cr    Cr6+3 0.608440 0.389080 0.519680 1.114702
Cr2   Cr    Cr6+3 0.288640 0.400090 0.490760 1.161011
Cr3   Cr    Cr6+3 0.602940 0.710800 0.489510 1.122311
Cr4   Cr    Cr6+3 0.052530 0.947560 0.964210 1.221878
Cr5   Cr    Cr6+3 0.059970 0.626800 0.992920 1.157710
Cr6   Cr    Cr6+3 0.373320 0.938440 0.995370 1.192515
F1    F     F_    0.753579 0.358594 0.186542 -0.556188
F2    F     F_    0.776932 0.856153 0.131769 -0.536017
F3    F     F_    0.992027 0.439761 0.363702 -0.595973
F4    F     F_    0.499989 0.080548 0.363995 -0.571510
F5    F     F_    0.496171 0.060885 0.205671 -0.528881
F6    F     F_    0.976225 0.132550 0.135752 -0.497149
F7    F     F_    0.198217 0.330971 0.121737 -0.595432
F8    F     F_    0.601752 0.848162 0.846992 -0.565195
F9    F     F_    0.043507 0.321780 0.832784 -0.547111
F10   F     F_    0.085201 0.289269 0.689558 -0.581088
H1    H     H_    0.614707 0.796547 0.707682 0.178813
H2    H     H_    0.750274 0.249513 0.348773 0.407246
H3    H     H_    0.314508 0.406163 0.257382 0.306960
H4    H     H_    0.008557 0.190107 0.341726 0.377997
H5    H     H_    0.929421 0.464484 0.768687 0.349517
H6    H     H_    0.974508 0.434299 0.624372 0.359160
H7    H     H_    0.751653 0.922567 0.248133 0.429775
H8    H     H_    0.974971 0.401809 0.158546 0.405447
O1    O     O_R   0.754020 0.497590 0.609930 -0.509904
O2    O     O_R   0.406180 0.826930 0.920660 -0.426658
O3    O     O_R   0.358620 0.062870 0.901950 -0.504544
O4    O     O_R   0.481420 0.271390 0.600630 -0.503945
O5    O     O_R   0.163910 0.085460 0.050210 -0.434699
O6    O     O_R   0.935200 0.815170 0.045770 -0.438749
O7    O     O_R   0.916120 0.596690 0.069430 -0.505520
O8    O     O_R   0.192310 0.631200 0.086170 -0.450712
O9    O     O_R   0.406770 0.819480 0.096420 -0.414421
O10   O     O_R   0.359170 0.055960 0.064880 -0.459813
O11   O     O_3   0.161940 0.837600 0.984160 -0.374411
O12   O     O_R   0.295080 0.533620 0.397890 -0.411944
O13   O     O_R   0.263810 0.254550 0.589590 -0.462341
O14   O     O_R   0.300820 0.531200 0.560890 -0.422185
O15   O     O_R   0.491480 0.744020 0.564270 -0.487095
O16   O     O_R   0.726290 0.693800 0.583010 -0.524928
O17   O     O_R   0.747830 0.500190 0.434090 -0.446367
O18   O     O_R   0.475680 0.273800 0.437630 -0.425336
O19   O     O_R   0.257620 0.257160 0.413750 -0.504876
O20   O     O_3   0.743591 0.339776 0.339889 -0.580356
O21   O     O_3   0.217016 0.377638 0.271124 -0.607506
O22   O     O_3   0.990916 0.178424 0.283879 -0.567862
O23   O     O_R   0.485280 0.746620 0.388440 -0.449706
O24   O     O_3   0.033269 0.531030 0.779640 -0.677252
O25   O     O_3   0.077828 0.500748 0.637091 -0.645127
O26   O     O_3   0.768440 0.861599 0.294428 -0.611533
O27   O     O_3   0.002722 0.447398 0.209013 -0.597731
O28   O     O_R   0.720550 0.696220 0.420010 -0.446984
O29   O     O_3   0.500010 0.499990 0.499980 -0.345567
O30   O     O_R   0.163320 0.092900 0.874450 -0.425208
O31   O     O_R   0.934650 0.822080 0.882840 -0.458983
O32   O     O_R   0.915520 0.604140 0.893670 -0.474831
O33   O     O_R   0.191760 0.638110 0.923230 -0.445559

loop_
_geom_bond_atom_site_label_1
_geom_bond_atom_site_label_2
_ccdc_geom_bond_type
H7    O26   S    
C1    C42   S    
C8    C13   S    
C28   O18   A    
Cr1   O17   S    
Cr6   O10   S    
Cr3   O16   S    
Cr6   O3    S    
C33   O28   A    
C14   C33   S    
C7    C8    A    
C7    C11   S    
C12   C23   A    
Cr5   O32   S    
C18   C24   A    
C36   C37   A    
C4    O14   A    
C21   F6    S    
C30   O8    A    
C29   O7    A    
Cr5   O33   S    
H3    O21   S    
C13   F3    S    
C12   H1    S    
C19   F4    S    
C4    O15   A    
C19   C20   A    
C13   O20   S    
C34   F9    S    
Cr1   O29   S    
C2    C27   S    
C22   O22   S    
Cr3   O23   S    
C9    C10   A    
Cr4   O6    S    
C27   O3    A    
C26   O33   A    
C29   O6    A    
C11   O27   S    
C31   O5    A    
C38   F10   S    
C21   C22   S    
Cr1   O18   S    
Cr6   O9    S    
C27   O30   A    
Cr3   O28   S    
C9    O26   S    
C15   C20   A    
C23   F8    S    
Cr5   O7    S    
C25   C41   S    
C21   F7    S    
H2    O20   S    
H4    O22   S    
C38   O25   S    
C17   C21   S    
C35   C36   A    
Cr6   O11   S    
C9    C14   A    
C34   O24   S    
C37   C38   S    
C11   F1    S    
C25   O32   A    
C32   O23   A    
C4    C39   S    
Cr2   O14   S    
C16   O16   A    
C17   C18   A    
C16   O1    A    
C22   O21   S    
Cr6   O2    S    
C33   O17   A    
Cr4   O5    S    
C16   C40   S    
H8    O27   S    
C25   O31   A    
C40   C41   T    
Cr4   O31   S    
Cr1   O4    S    
C23   C35   A    
C1    O13   A    
Cr5   O11   S    
Cr2   O19   S    
C10   F2    S    
C5    C30   S    
C15   C17   A    
C8    C14   A    
C34   C38   S    
Cr2   O13   S    
Cr3   O15   S    
C24   C28   S    
Cr5   O8    S    
C20   F5    S    
C3    C5    T    
C6    C10   A    
Cr4   O11   S    
C15   C31   S    
C6    C7    A    
C1    O4    A    
C26   O2    A    
C12   C39   A    
C18   C22   S    
C19   C24   A    
C37   C39   A    
Cr2   O29   S    
C30   O9    A    
C11   C13   S    
C31   O10   A    
C2    C42   T    
H5    O24   S    
Cr2   O12   S    
C34   C36   S    
C3    C32   S    
C32   O12   A    
C26   C35   S    
C6    C29   S    
Cr4   O30   S    
Cr1   O1    S    
C28   O19   A    
H6    O25   S    
Cr3   O29   S    
