data_mof_unit_pretest_1974.cif
_audit_creation_date              2012-12-10T19:51:12-0500
_audit_creation_method            fapswitch 2.2
_symmetry_space_group_name_H-M    P1
_symmetry_Int_Tables_number       1
_space_group_crystal_system       triclinic
_cell_length_a                    15.02142
_cell_length_b                    14.127787
_cell_length_c                    14.165416
_cell_angle_alpha                 90.000022
_cell_angle_beta                  89.994321
_cell_angle_gamma                 90.000035
_cell_volume                      3006.17638394

loop_
_atom_site_label
_atom_site_type_symbol
_atom_type_description
_atom_site_fract_x
_atom_site_fract_y
_atom_site_fract_z
_atom_type_partial_charge
C1    C     C_R   0.327662 0.500000 0.500013 0.865878
C2    C     C_R   0.951901 0.500000 0.499987 0.098388
C3    C     C_R   0.500000 0.500000 0.328949 0.897706
C4    C     C_R   0.500000 0.500000 0.671051 0.897707
C5    C     C_R   0.439834 0.104787 0.443339 0.332712
C6    C     C_R   0.560226 0.895213 0.443398 0.332714
C7    C     C_R   0.560166 0.104786 0.556660 0.332712
C8    C     C_R   0.439773 0.895213 0.556601 0.332713
C9    C     C_R   0.441163 0.204440 0.444611 -0.059630
C10   C     C_R   0.558896 0.795561 0.444669 -0.059637
C11   C     C_R   0.558837 0.204439 0.555388 -0.059633
C12   C     C_R   0.672338 0.500000 0.499986 0.865879
C13   C     C_R   0.441104 0.795561 0.555331 -0.059635
C14   C     C_1   0.500000 0.500000 0.227558 -0.178019
C15   C     C_1   0.500000 0.500000 0.772442 -0.178019
C16   C     C_1   0.500000 0.500000 0.142382 0.022437
C17   C     C_1   0.500000 0.500000 0.857617 0.022438
C18   C     C_1   0.500000 0.500000 0.042586 0.040438
C19   C     C_1   0.500000 0.500000 0.957414 0.040438
C20   C     C_R   0.500000 0.053261 0.500000 0.024078
C21   C     C_R   0.500000 0.946739 0.499999 0.024085
C22   C     C_R   0.094111 0.579681 0.467382 -0.150255
C23   C     C_R   0.186022 0.579931 0.467973 -0.165917
C24   C     C_R   0.905898 0.420316 0.467376 -0.150257
C25   C     C_R   0.905891 0.579685 0.532595 -0.150253
C26   C     C_R   0.094100 0.420318 0.532614 -0.150253
C27   C     C_R   0.813987 0.420068 0.467957 -0.165911
C28   C     C_R   0.813980 0.579934 0.532010 -0.165917
C29   C     C_R   0.186012 0.420070 0.532040 -0.165912
C30   C     C_R   0.231941 0.500001 0.500011 -0.046670
C31   C     C_R   0.768059 0.500001 0.499983 -0.046673
C32   C     C_R   0.048099 0.499999 0.499993 0.098388
Cl1   Cl    Cl    0.362758 0.046833 0.369820 -0.532161
Cl2   Cl    Cl    0.637381 0.953167 0.369955 -0.532176
Cl3   Cl    Cl    0.637242 0.046832 0.630179 -0.532160
Cl4   Cl    Cl    0.362619 0.953167 0.630045 -0.532175
H1    H     H_    0.221054 0.641825 0.442271 0.173306
H2    H     H_    0.941022 0.358897 0.440732 0.152483
H3    H     H_    0.941009 0.641104 0.559242 0.152484
H4    H     H_    0.058975 0.358901 0.559262 0.152483
H5    H     H_    0.778961 0.358171 0.442258 0.173311
H6    H     H_    0.778950 0.641831 0.557709 0.173308
H7    H     H_    0.221036 0.358175 0.557746 0.173308
H8    H     H_    0.395020 0.243792 0.401031 0.176498
H9    H     H_    0.605084 0.756208 0.401134 0.176496
H10   H     H_    0.604980 0.243792 0.598969 0.176498
H11   H     H_    0.394916 0.756208 0.598867 0.176497
H12   H     H_    0.058994 0.641098 0.440727 0.152484
N1    N     N_R   0.500000 0.252470 0.500000 -0.136862
N2    N     N_R   0.500000 0.747530 0.500000 -0.136857
O1    O     O_R   0.369060 0.579480 0.500010 -0.615707
O2    O     O_R   0.630940 0.420520 0.499990 -0.615678
O3    O     O_R   0.630940 0.579480 0.499990 -0.615707
O4    O     O_R   0.369060 0.420520 0.500010 -0.615678
O5    O     O_R   0.500000 0.579500 0.373720 -0.591362
O6    O     O_R   0.500000 0.420500 0.626280 -0.591389
O7    O     O_R   0.500000 0.579500 0.626280 -0.591361
O8    O     O_R   0.500000 0.420500 0.373720 -0.591389
Zn1   Zn    Zn3+2 0.500000 0.606140 0.500000 0.972695
Zn2   Zn    Zn3+2 0.500000 0.393860 0.500000 0.972693

loop_
_geom_bond_atom_site_label_1
_geom_bond_atom_site_label_2
_ccdc_geom_bond_type
C4    O7    A    
C6    C10   A    
C22   H12   S    
C1    O4    A    
C3    O8    A    
C26   C32   A    
C8    C13   A    
C11   N1    A    
O5    Zn1   S    
C27   H5    S    
C24   H2    S    
C12   O3    A    
C24   C27   A    
C13   H11   S    
C10   H9    S    
C8    C21   A    
O3    Zn1   S    
N1    Zn2   S    
C5    C20   A    
O4    Zn2   S    
C4    O6    A    
C25   C28   A    
C7    C11   A    
C1    O1    A    
C26   H4    S    
C5    C9    A    
C29   C30   A    
C3    C14   S    
C22   C32   A    
C4    C15   S    
N2    Zn1   S    
C2    C32   S    
C28   H6    S    
C1    C30   S    
C17   C19   S    
C18   C19   T    
C2    C25   A    
C25   H3    S    
C12   C31   S    
C2    C24   A    
C14   C16   T    
O7    Zn1   S    
O1    Zn1   S    
O8    Zn2   S    
C13   N2    A    
C10   N2    A    
C23   C30   A    
C6    Cl2   S    
C9    N1    A    
C20   C21   S    
C27   C31   A    
C26   C29   A    
C16   C18   S    
C7    C20   A    
C8    Cl4   S    
C15   C17   T    
C22   C23   A    
C9    H8    S    
O2    Zn2   S    
C12   O2    A    
C3    O5    A    
C23   H1    S    
C6    C21   A    
C7    Cl3   S    
C28   C31   A    
C29   H7    S    
O6    Zn2   S    
C11   H10   S    
C5    Cl1   S    
