data_mof_unit_pretest_363.cif
_audit_creation_date              2012-12-10T16:58:28-0500
_audit_creation_method            fapswitch 2.2
_symmetry_space_group_name_H-M    P1
_symmetry_Int_Tables_number       1
_space_group_crystal_system       triclinic
_cell_length_a                    7.741843
_cell_length_b                    8.565591
_cell_length_c                    23.452343
_cell_angle_alpha                 91.199792
_cell_angle_beta                  85.408591
_cell_angle_gamma                 93.99286
_cell_volume                      1546.26779657

loop_
_atom_site_label
_atom_site_type_symbol
_atom_type_description
_atom_site_fract_x
_atom_site_fract_y
_atom_site_fract_z
_atom_type_partial_charge
C1    C     C_R   0.546132 0.794938 0.498500 0.972830
C2    C     C_R   0.453868 0.205062 0.501500 0.972831
C3    C     C_R   0.361766 0.443189 0.767058 -0.111818
C4    C     C_R   0.638233 0.556811 0.232941 -0.111818
C5    C     C_R   0.353050 0.441242 0.708172 0.138949
C6    C     C_R   0.646950 0.558758 0.291828 0.138948
C7    C     C_R   0.503001 0.488742 0.672619 -0.102314
C8    C     C_R   0.496998 0.511258 0.327381 -0.102314
C9    C     C_R   0.660057 0.529616 0.697023 -0.213403
C10   C     C_R   0.339942 0.470384 0.302977 -0.213403
C11   C     C_R   0.668331 0.525449 0.755806 -0.053467
C12   C     C_R   0.331669 0.474551 0.244194 -0.053467
C13   C     C_R   0.518528 0.484424 0.790990 0.245805
C14   C     C_R   0.481472 0.515576 0.209009 0.245805
C15   C     C_2   0.570366 0.958552 0.497602 -0.353033
C16   C     C_2   0.429633 0.041448 0.502398 -0.353033
C17   C     C_R   0.500477 0.495819 0.610600 0.900486
C18   C     C_R   0.499523 0.504181 0.389400 0.900486
C19   C     C_R   0.427574 0.377783 0.121002 0.546165
C20   C     C_R   0.572426 0.622217 0.878997 0.546165
C21   C     C_R   0.529513 0.647617 0.118860 0.539266
C22   C     C_R   0.470487 0.352383 0.881140 0.539266
C23   C     C_R   0.548592 0.644715 0.058738 -0.077926
C24   C     C_R   0.451408 0.355285 0.941262 -0.077926
C25   C     C_R   0.494724 0.504222 0.030096 -0.045891
C26   C     C_R   0.505276 0.495778 0.969904 -0.045891
C27   C     C_R   0.430781 0.371488 0.061540 -0.040618
C28   C     C_R   0.569219 0.628512 0.938460 -0.040619
C29   C     C_R   0.619824 0.774824 0.026086 0.206732
C30   C     C_R   0.380175 0.225176 0.973914 0.206732
C31   C     C_R   0.627426 0.765328 0.966703 -0.157087
C32   C     C_R   0.372574 0.234673 0.033297 -0.157087
H1    H     H_    0.681008 0.866226 0.942511 0.220225
H2    H     H_    0.318992 0.133774 0.057489 0.220225
H3    H     H_    0.776586 0.565924 0.670632 0.187173
H4    H     H_    0.223414 0.434076 0.329368 0.187173
H5    H     H_    0.703037 0.010214 0.493007 0.185613
H6    H     H_    0.296963 0.989786 0.506993 0.185613
H7    H     H_    0.014216 0.382822 0.456742 0.197648
H8    H     H_    0.985784 0.617178 0.543258 0.197648
N1    N     N_R   0.476458 0.514199 0.148250 -0.357861
N2    N     N_R   0.523541 0.485801 0.851750 -0.357861
N3    N     N_2   0.950330 0.457950 0.484560 -0.157587
N4    N     N_2   0.049670 0.542050 0.515440 -0.157587
O1    O     O_R   0.389250 0.738570 0.503790 -0.612830
O2    O     O_R   0.610750 0.261430 0.496210 -0.612831
O3    O     O_R   0.678390 0.711620 0.493890 -0.622394
O4    O     O_R   0.321610 0.288380 0.506110 -0.622394
O5    O     O_R   0.355400 0.513520 0.588790 -0.589918
O6    O     O_R   0.644600 0.486480 0.411210 -0.589918
O7    O     O_R   0.644550 0.486570 0.578900 -0.627826
O8    O     O_R   0.355450 0.513430 0.421100 -0.627826
O9    O     O_2   0.378762 0.247839 0.151475 -0.515940
O10   O     O_2   0.621238 0.752161 0.848525 -0.515940
O11   O     O_2   0.560562 0.781909 0.148321 -0.486304
O12   O     O_2   0.439438 0.218091 0.851679 -0.486304
Zn1   Zn    Zn3+2 0.306930 0.518000 0.506610 0.985416
Zn2   Zn    Zn3+2 0.693070 0.482000 0.493390 0.985416
I1    I     I_    0.734583 0.988902 0.058737 -0.217437
I2    I     I_    0.265416 0.011098 0.941263 -0.217437
H9    H     H_    0.246444 0.410397 0.794595 0.172987
H10   H     H_    0.753555 0.589603 0.205405 0.172987
I3    I     I_    0.111593 0.351839 0.678831 -0.327681
I4    I     I_    0.888407 0.648161 0.321169 -0.327680
H11   H     H_    0.790559 0.555879 0.774084 0.172040
H12   H     H_    0.209441 0.444121 0.225916 0.172040

loop_
_geom_bond_atom_site_label_1
_geom_bond_atom_site_label_2
_ccdc_geom_bond_type
C11   H11   S    
C20   N2    A    
N3    N4    D    
C31   H1    S    
C6    I4    S    
C1    C15   S    
C17   O7    A    
C25   C27   A    
C5    I3    S    
C2    C16   S    
C26   C28   A    
C3    C13   A    
C22   O12   S    
N4    Zn1   S    
C3    C5    A    
O1    Zn1   S    
C19   O9    S    
C21   C23   A    
C27   C32   A    
C18   O8    A    
O4    Zn1   S    
C29   C31   A    
O7    Zn2   S    
C15   H5    S    
C2    O2    A    
O3    Zn2   S    
C30   C32   A    
C11   C13   A    
C24   C26   A    
C1    O1    A    
C22   N2    A    
C17   O5    A    
C10   C12   A    
C14   N1    S    
C21   N1    A    
C23   C29   A    
C8    C10   A    
C13   N2    S    
C10   H4    S    
C24   C30   A    
C9    C11   A    
C4    C14   A    
C22   C24   A    
C4    C6    A    
O8    Zn1   S    
C8    C18   S    
C3    H9    S    
C9    H3    S    
C15   C16   D    
O6    Zn2   S    
C4    H10   S    
H8    N4    S    
C23   C25   A    
O5    Zn1   S    
C18   O6    A    
C30   I2    S    
C20   O10   S    
C16   H6    S    
C7    C9    A    
C29   I1    S    
C5    C7    A    
C1    O3    A    
C21   O11   S    
C6    C8    A    
C20   C28   A    
N3    Zn2   S    
C2    O4    A    
C25   C26   A    
H7    N3    S    
C12   H12   S    
C28   C31   A    
O2    Zn2   S    
C19   N1    A    
C12   C14   A    
C19   C27   A    
C7    C17   S    
C32   H2    S    
