data_mof_unit_pretest_774.cif
_audit_creation_date              2012-12-10T18:49:58-0500
_audit_creation_method            fapswitch 2.2
_symmetry_space_group_name_H-M    P1
_symmetry_Int_Tables_number       1
_space_group_crystal_system       triclinic
_cell_length_a                    10.714891
_cell_length_b                    9.836786
_cell_length_c                    10.647785
_cell_angle_alpha                 90.069544
_cell_angle_beta                  90.20978
_cell_angle_gamma                 89.965219
_cell_volume                      1122.26894217

loop_
_atom_site_label
_atom_site_type_symbol
_atom_type_description
_atom_site_fract_x
_atom_site_fract_y
_atom_site_fract_z
_atom_type_partial_charge
C1    C     C_R   0.259839 0.500038 0.500124 0.873599
C2    C     C_3   0.638218 0.542482 0.931123 -0.078048
C3    C     C_R   0.063999 0.378289 0.521772 -0.167712
C4    C     C_R   0.063724 0.622002 0.479391 -0.162419
C5    C     C_R   0.936186 0.378249 0.521560 -0.127384
C6    C     C_R   0.935911 0.621979 0.479285 -0.180475
C7    C     C_R   0.872527 0.500051 0.500104 0.014243
C8    C     C_R   0.127391 0.500120 0.500461 -0.037308
C9    C     C_R   0.577628 0.072033 0.578179 -0.217520
C10   C     C_R   0.577679 0.928122 0.578074 -0.196474
C11   C     C_R   0.422264 0.927962 0.421719 0.576945
C12   C     C_R   0.422288 0.071929 0.421694 0.578325
C13   C     C_R   0.497611 0.499736 0.257729 0.854365
C14   C     C_R   0.740091 0.499999 0.499671 0.929030
C15   C     C_R   0.500862 0.499848 0.742451 0.870214
C16   C     C_3   0.393379 0.591305 0.071091 -0.354252
C17   C     C_3   0.480120 0.352404 0.071028 -0.343228
C18   C     C_3   0.398716 0.594901 0.927523 -0.394556
C19   C     C_3   0.472018 0.354070 0.928499 -0.417708
C20   C     C_3   0.626591 0.555681 0.076981 -0.469091
C21   C     C_3   0.499275 0.499260 0.121655 0.089932
C22   C     C_3   0.504378 0.499296 0.879205 0.016221
H1    H     H_    0.402676 0.696782 0.107986 0.237234
H2    H     H_    0.559398 0.286345 0.100600 0.220874
H3    H     H_    0.301113 0.551715 0.101944 0.177604
H4    H     H_    0.392785 0.307530 0.109372 0.219726
H5    H     H_    0.306911 0.561454 0.888991 0.167169
H6    H     H_    0.375937 0.324936 0.898501 0.191328
H7    H     H_    0.411400 0.701173 0.895268 0.236161
H8    H     H_    0.535983 0.275092 0.890356 0.206778
H9    H     H_    0.633598 0.663824 0.107385 0.200444
H10   H     H_    0.703808 0.504866 0.128525 0.199245
H11   H     H_    0.112744 0.283555 0.539076 0.176297
H12   H     H_    0.112241 0.716763 0.462222 0.196686
H13   H     H_    0.887647 0.283517 0.538827 0.164825
H14   H     H_    0.887169 0.716751 0.462149 0.162550
H15   H     H_    0.639696 0.126662 0.640713 0.197188
H16   H     H_    0.639876 0.873623 0.640302 0.201861
N1    N     N_R   0.499970 0.857200 0.499970 -0.160135
N2    N     N_R   0.499970 0.142800 0.499970 -0.159448
O1    O     O_R   0.316750 0.614620 0.499990 -0.590056
O2    O     O_R   0.316750 0.385380 0.499990 -0.588064
O3    O     O_R   0.499970 0.614670 0.314790 -0.589302
O4    O     O_R   0.499970 0.385330 0.314790 -0.588989
O5    O     O_R   0.683220 0.614710 0.500010 -0.630307
O6    O     O_R   0.683220 0.385290 0.500010 -0.617743
O7    O     O_R   0.500010 0.614660 0.685200 -0.615588
O8    O     O_R   0.500010 0.385340 0.685200 -0.614366
Zn1   Zn    Zn3+2 0.499980 0.653120 0.500000 1.012636
Zn2   Zn    Zn3+2 0.499980 0.346880 0.500000 1.013187
F1    F     F_    0.344432 0.859713 0.343344 -0.642821
F2    F     F_    0.344477 0.140073 0.343301 -0.637686
C23   C     C_2   0.682998 0.679253 0.878236 0.878441
O9    O     O_2   0.624171 0.783395 0.899220 -0.645042
O10   O     O_R   0.792898 0.687078 0.807731 -0.781093
H17   H     H_    0.812752 0.783092 0.779723 0.334449
C24   C     C_2   0.735036 0.432973 0.895861 0.905128
O11   O     O_2   0.758037 0.410987 0.785233 -0.631195
O12   O     O_R   0.796027 0.355592 0.987723 -0.816211
H18   H     H_    0.856066 0.286788 0.950699 0.351533

loop_
_geom_bond_atom_site_label_1
_geom_bond_atom_site_label_2
_ccdc_geom_bond_type
C10   H16   S    
C12   N2    A    
C9    H15   S    
C11   C12   A    
N1    Zn1   S    
C2    C22   S    
C6    C7    A    
C15   O7    A    
C14   O5    A    
C1    C8    S    
C9    C10   A    
O6    Zn2   S    
C9    N2    A    
O5    Zn1   S    
C4    C8    A    
C16   C18   S    
O10   H17   S    
O8    Zn2   S    
C2    C24   S    
C13   C21   S    
O12   H18   S    
O7    Zn1   S    
C18   H7    S    
C23   O9    D    
C13   O4    A    
C11   N1    A    
C19   H6    S    
C24   O11   D    
C16   C21   S    
C15   O8    A    
O2    Zn2   S    
N2    Zn2   S    
C17   H4    S    
C5    H13   S    
O1    Zn1   S    
C12   F2    S    
C6    H14   S    
C16   H1    S    
C23   O10   S    
C20   H10   S    
C4    H12   S    
C24   O12   S    
C4    C6    A    
C11   F1    S    
C3    H11   S    
C2    C20   S    
C17   H2    S    
C1    O2    A    
C13   O3    A    
C19   C22   S    
C20   C21   S    
C14   O6    A    
C3    C8    A    
C15   C22   S    
O4    Zn2   S    
C16   H3    S    
C5    C7    A    
O3    Zn1   S    
C17   C19   S    
C18   C22   S    
C19   H8    S    
C2    C23   S    
C7    C14   S    
C17   C21   S    
C18   H5    S    
C1    O1    A    
C10   N1    A    
C3    C5    A    
C20   H9    S    
