data_mof_unit_pretest_1389.cif
_audit_creation_date              2012-12-10T20:34:53-0500
_audit_creation_method            fapswitch 2.2
_symmetry_space_group_name_H-M    P1
_symmetry_Int_Tables_number       1
_space_group_crystal_system       triclinic
_cell_length_a                    10.630296
_cell_length_b                    10.723152
_cell_length_c                    9.846991
_cell_angle_alpha                 90.334635
_cell_angle_beta                  89.908121
_cell_angle_gamma                 90.174863
_cell_volume                      1122.43547648

loop_
_atom_site_label
_atom_site_type_symbol
_atom_type_description
_atom_site_fract_x
_atom_site_fract_y
_atom_site_fract_z
_atom_type_partial_charge
C1    C     C_R   0.506713 0.260224 0.498939 0.871252
C2    C     C_R   0.454737 0.938006 0.606704 0.115201
C3    C     C_3   0.488350 0.931961 0.753792 -0.472002
C4    C     C_R   0.257556 0.499128 0.500273 0.838466
C5    C     C_3   0.492287 0.072995 0.752094 -0.462959
C6    C     C_R   0.437245 0.409090 0.070958 0.208211
C7    C     C_R   0.571428 0.582552 0.072447 -0.133735
C8    C     C_R   0.571464 0.582538 0.928314 -0.140984
C9    C     C_R   0.436881 0.409350 0.928224 0.223284
C10   C     C_3   0.298834 0.384853 0.923687 -0.523453
C11   C     C_3   0.299712 0.383075 0.077646 -0.521583
C12   C     C_3   0.878666 0.499013 0.500848 0.194964
C13   C     C_R   0.501873 0.739636 0.500147 0.889048
C14   C     C_R   0.742375 0.499541 0.500145 0.817235
C15   C     C_3   0.070932 0.494846 0.649085 -0.404883
C16   C     C_3   0.928223 0.496309 0.649177 -0.386863
C17   C     C_3   0.072663 0.618466 0.431301 -0.401465
C18   C     C_3   0.071727 0.382295 0.423393 -0.401811
C19   C     C_3   0.121116 0.498696 0.500966 0.185549
C20   C     C_3   0.616639 0.127014 0.257304 -0.355808
C21   C     C_3   0.687593 0.044334 0.154687 -0.397919
C22   C     C_3   0.752989 0.123587 0.047068 -0.894839
C23   C     C_3   0.928286 0.618288 0.430467 -0.407069
C24   C     C_3   0.927249 0.382085 0.424015 -0.408630
C25   C     C_R   0.458149 0.065106 0.604776 0.100165
C26   C     C_R   0.510957 0.127690 0.494808 -0.161416
C27   C     C_R   0.556176 0.061084 0.378852 0.069555
C28   C     C_R   0.548459 0.931663 0.382358 -0.237076
C29   C     C_R   0.503437 0.871224 0.498171 -0.141390
H1    H     H_    0.106198 0.576613 0.708230 0.172644
H2    H     H_    0.627033 0.650800 0.127297 0.135911
H3    H     H_    0.103705 0.408482 0.700138 0.173381
H4    H     H_    0.627143 0.650710 0.874138 0.138286
H5    H     H_    0.245590 0.465003 0.882300 0.213755
H6    H     H_    0.275968 0.292878 0.877303 0.190334
H7    H     H_    0.245607 0.461117 0.123865 0.216213
H8    H     H_    0.279330 0.289523 0.120612 0.194207
H9    H     H_    0.892651 0.411940 0.702671 0.176406
H10   H     H_    0.894943 0.579804 0.706586 0.171606
H11   H     H_    0.107711 0.702616 0.486359 0.155428
H12   H     H_    0.892412 0.381125 0.317426 0.177090
H13   H     H_    0.892849 0.702876 0.484155 0.151511
H14   H     H_    0.105921 0.382436 0.316556 0.175166
H15   H     H_    0.107004 0.295664 0.471909 0.154831
H16   H     H_    0.891898 0.295834 0.473838 0.151220
H17   H     H_    0.683453 0.182784 0.993611 0.258781
H18   H     H_    0.825516 0.184368 0.094783 0.259029
H19   H     H_    0.799557 0.061867 0.971418 0.246845
H20   H     H_    0.759845 0.988176 0.208039 0.222714
H21   H     H_    0.620363 0.980813 0.102143 0.224263
H22   H     H_    0.541695 0.176099 0.200270 0.220616
H23   H     H_    0.107922 0.623646 0.324937 0.174454
H24   H     H_    0.685157 0.196794 0.297107 0.206032
H25   H     H_    0.894321 0.622354 0.323677 0.174005
H26   H     H_    0.582290 0.876365 0.297932 0.160596
H27   H     H_    0.410290 0.893868 0.816487 0.199700
H28   H     H_    0.581919 0.888970 0.771793 0.200724
H29   H     H_    0.416784 0.116424 0.814335 0.195733
H30   H     H_    0.588108 0.111959 0.768937 0.206559
N1    N     N_R   0.499150 0.499140 0.142800 -0.104595
N2    N     N_R   0.499150 0.499180 0.857150 -0.105969
O1    O     O_R   0.500020 0.316790 0.614690 -0.610523
O2    O     O_R   0.500000 0.316760 0.385350 -0.633122
O3    O     O_R   0.314800 0.500000 0.614670 -0.625864
O4    O     O_R   0.314790 0.499960 0.385330 -0.624086
O5    O     O_R   0.500000 0.683240 0.614650 -0.617808
O6    O     O_R   0.499980 0.683210 0.385310 -0.625659
O7    O     O_R   0.685210 0.500040 0.614670 -0.632048
O8    O     O_R   0.685200 0.500000 0.385330 -0.632041
Zn1   Zn    Zn3+2 0.500010 0.500020 0.653130 0.930171
Zn2   Zn    Zn3+2 0.499990 0.499980 0.346870 0.924463

loop_
_geom_bond_atom_site_label_1
_geom_bond_atom_site_label_2
_ccdc_geom_bond_type
N2    Zn1   S    
C5    C25   S    
C22   H19   S    
O3    Zn1   S    
C10   H6    S    
C20   C27   S    
C18   H15   S    
C20   H22   S    
C9    C10   S    
C12   C24   S    
C8    N2    A    
C13   O5    A    
C1    O1    A    
C3    C5    S    
C6    C9    A    
C21   H20   S    
C22   H18   S    
C15   H3    S    
C10   H5    S    
C17   C23   S    
C21   C22   S    
C15   C19   S    
C24   H12   S    
C12   C23   S    
C26   C27   A    
O5    Zn1   S    
C23   H13   S    
C5    H29   S    
C15   H1    S    
C2    C29   A    
C18   C24   S    
C24   H16   S    
C1    O2    A    
C17   H23   S    
C13   C29   S    
C21   H21   S    
C17   C19   S    
C28   H26   S    
C12   C14   S    
C2    C3    S    
C2    C25   A    
O6    Zn2   S    
C8    H4    S    
C6    C11   S    
C4    O4    A    
C14   O8    A    
C9    N2    A    
C1    C26   S    
C7    H2    S    
C10   C11   S    
C5    H30   S    
C16   H10   S    
C15   C16   S    
C3    H27   S    
C6    N1    A    
C7    N1    A    
C7    C8    A    
C16   H9    S    
C20   C21   S    
O1    Zn1   S    
C23   H25   S    
C11   H8    S    
C18   C19   S    
C13   O6    A    
C18   H14   S    
C27   C28   A    
O8    Zn2   S    
O7    Zn1   S    
C4    O3    A    
C28   C29   A    
C14   O7    A    
N1    Zn2   S    
C22   H17   S    
C25   C26   A    
O4    Zn2   S    
C4    C19   S    
C12   C16   S    
O2    Zn2   S    
C20   H24   S    
C3    H28   S    
C17   H11   S    
C11   H7    S    
