data_mof_unit_pretest_137.cif
_audit_creation_date              2012-12-10T16:57:02-0500
_audit_creation_method            fapswitch 2.2
_symmetry_space_group_name_H-M    P1
_symmetry_Int_Tables_number       1
_space_group_crystal_system       triclinic
_cell_length_a                    7.800816
_cell_length_b                    8.574526
_cell_length_c                    16.697682
_cell_angle_alpha                 92.3724
_cell_angle_beta                  79.835872
_cell_angle_gamma                 93.887293
_cell_volume                      1096.3296689

loop_
_atom_site_label
_atom_site_type_symbol
_atom_type_description
_atom_site_fract_x
_atom_site_fract_y
_atom_site_fract_z
_atom_type_partial_charge
C1    C     C_R   0.546236 0.794711 0.497567 0.946427
C2    C     C_R   0.546769 0.681519 0.233389 0.214455
C3    C     C_R   0.529115 0.720068 0.849166 -0.172487
C4    C     C_R   0.582200 0.704388 0.149392 -0.158220
C5    C     C_R   0.428778 0.618543 0.904536 0.078886
C6    C     C_R   0.611007 0.576592 0.095105 0.132373
C7    C     C_R   0.338057 0.486144 0.877880 -0.213701
C8    C     C_R   0.622407 0.427314 0.123118 -0.163982
C9    C     C_R   0.353809 0.451294 0.795220 -0.233099
C10   C     C_R   0.592544 0.403369 0.205939 -0.262961
C11   C     C_2   0.450384 0.631719 0.989225 0.104267
C12   C     C_R   0.453811 0.205253 0.502036 0.961837
C13   C     C_2   0.602537 0.592812 0.009550 0.128335
C14   C     C_3   0.843032 0.795444 0.715940 -0.773358
C15   C     C_3   0.529045 0.967937 0.264260 -0.830631
C16   C     C_3   0.900476 0.645191 0.943434 -0.814426
C17   C     C_3   0.250670 0.823230 0.050317 -0.814118
C18   C     C_2   0.570459 0.958283 0.496453 -0.359186
C19   C     C_2   0.429589 0.041641 0.503149 -0.393962
C20   C     C_R   0.476903 0.507261 0.653951 0.846126
C21   C     C_R   0.524373 0.499972 0.346157 0.857219
C22   C     C_R   0.464986 0.545835 0.739565 -0.082734
C23   C     C_R   0.548170 0.527849 0.260493 -0.076570
C24   C     C_R   0.552139 0.683283 0.766187 0.200343
H1    H     H_    0.579063 0.818797 0.125089 0.146100
H2    H     H_    0.510658 0.049496 0.318064 0.243028
H3    H     H_    0.428665 0.987778 0.226750 0.241210
H4    H     H_    0.662098 0.993653 0.229191 0.245615
H5    H     H_    0.600131 0.287390 0.227623 0.149074
H6    H     H_    0.284264 0.347797 0.774687 0.152916
H7    H     H_    0.718392 0.497375 0.895475 0.244605
H8    H     H_    0.005637 0.595485 0.898135 0.258427
H9    H     H_    0.944782 0.659209 0.002995 0.257789
H10   H     H_    0.874035 0.761433 0.922986 0.232479
H11   H     H_    0.200530 0.582889 0.050114 0.230075
H12   H     H_    0.597046 0.823076 0.871161 0.145276
H13   H     H_    0.142294 0.841472 0.101983 0.246218
H14   H     H_    0.205383 0.845472 0.992589 0.243573
H15   H     H_    0.361025 0.908340 0.057627 0.239351
H16   H     H_    0.262066 0.406394 0.921059 0.146610
H17   H     H_    0.646030 0.328492 0.080934 0.146981
H18   H     H_    0.022357 0.378234 0.439879 0.192742
H19   H     H_    0.977806 0.622544 0.559536 0.191923
H20   H     H_    0.703378 0.009552 0.490198 0.182213
H21   H     H_    0.296694 0.990326 0.509293 0.180711
H22   H     H_    0.635753 0.781526 0.652177 0.226756
H23   H     H_    0.915842 0.874871 0.669065 0.231770
H24   H     H_    0.895276 0.677547 0.705358 0.243406
H25   H     H_    0.864327 0.842789 0.776515 0.239815
H26   H     H_    0.406480 0.787131 0.337585 0.247720
N1    N     N_2   0.953500 0.457650 0.478520 -0.169254
N2    N     N_2   0.046500 0.542350 0.521480 -0.174183
N3    N     N_2   0.659259 0.786921 0.710936 -0.311112
N4    N     N_2   0.510433 0.808540 0.291216 -0.302625
N5    N     N_2   0.745260 0.541511 0.950549 -0.318266
N6    N     N_2   0.303624 0.664707 0.050077 -0.298636
O1    O     O_R   0.388470 0.738640 0.505270 -0.619786
O2    O     O_R   0.611530 0.261360 0.494730 -0.609515
O3    O     O_R   0.679650 0.711510 0.491500 -0.627514
O4    O     O_R   0.320350 0.288490 0.508500 -0.625261
O5    O     O_R   0.337210 0.515200 0.623500 -0.610493
O6    O     O_R   0.662790 0.484800 0.376500 -0.599433
O7    O     O_R   0.628380 0.488060 0.609730 -0.614619
O8    O     O_R   0.371620 0.511940 0.390270 -0.630957
Zn1   Zn    Zn3+2 0.305580 0.518120 0.509190 0.935243
Zn2   Zn    Zn3+2 0.694420 0.481880 0.490810 0.949191

loop_
_geom_bond_atom_site_label_1
_geom_bond_atom_site_label_2
_ccdc_geom_bond_type
C2    C4    A    
C7    H16   S    
C19   H21   S    
C7    C9    A    
C14   H23   S    
H19   N2    S    
C18   H20   S    
C16   H9    S    
C16   H8    S    
C15   H3    S    
C10   H5    S    
H18   N1    S    
C3    C5    A    
C16   H10   S    
C12   O2    A    
O8    Zn1   S    
C20   O7    A    
C1    O3    A    
C4    H1    S    
C1    C18   S    
O7    Zn2   S    
C17   H13   S    
C6    C13   S    
C11   C13   D    
C17   N6    S    
C21   O6    A    
H26   N4    S    
C9    H6    S    
C3    H12   S    
H22   N3    S    
C8    C10   A    
C20   C22   S    
O4    Zn1   S    
C5    C11   S    
C1    O1    A    
C17   H14   S    
C21   C23   S    
O3    Zn2   S    
C2    N4    S    
C10   C23   A    
C22   C24   A    
C9    C22   A    
C16   N5    S    
C14   H25   S    
C13   N5    S    
O6    Zn2   S    
C15   H4    S    
N1    N2    D    
C12   O4    A    
C15   N4    S    
O5    Zn1   S    
C2    C23   A    
C14   N3    S    
C8    H17   S    
C12   C19   S    
N2    Zn1   S    
C4    C6    A    
C18   C19   D    
C17   H15   S    
O1    Zn1   S    
C20   O5    A    
C5    C7    A    
C14   H24   S    
C21   O8    A    
C6    C8    A    
H7    N5    S    
H11   N6    S    
O2    Zn2   S    
C11   N6    S    
C24   N3    S    
C3    C24   A    
C15   H2    S    
N1    Zn2   S    
