data_mof_unit_pretest_1868.cif
_audit_creation_date              2012-12-10T19:28:08-0500
_audit_creation_method            fapswitch 2.2
_symmetry_space_group_name_H-M    P1
_symmetry_Int_Tables_number       1
_space_group_crystal_system       triclinic
_cell_length_a                    30.658092
_cell_length_b                    30.65809
_cell_length_c                    32.843426
_cell_angle_alpha                 89.999953
_cell_angle_beta                  90.000017
_cell_angle_gamma                 90.033335
_cell_volume                      30870.1399134

loop_
_atom_site_label
_atom_site_type_symbol
_atom_type_description
_atom_site_fract_x
_atom_site_fract_y
_atom_site_fract_z
_atom_type_partial_charge
C1    C     C_R   0.118517 0.381483 0.250000 -0.020822
C2    C     C_R   0.881483 0.618517 0.750000 -0.020637
C3    C     C_R   0.381471 0.881471 0.250000 -0.020509
C4    C     C_R   0.618527 0.118527 0.750000 -0.020758
C5    C     C_R   0.881483 0.618517 0.250000 -0.020822
C6    C     C_R   0.118517 0.381483 0.750000 -0.020636
C7    C     C_R   0.618529 0.118529 0.250000 -0.020509
C8    C     C_R   0.381472 0.881473 0.750000 -0.020759
C9    C     C_R   0.118529 0.618529 0.750000 -0.020510
C10   C     C_R   0.881472 0.381472 0.250000 -0.020759
C11   C     C_R   0.381483 0.118517 0.750000 -0.020822
C12   C     C_R   0.618517 0.881483 0.250000 -0.020637
C13   C     C_R   0.881471 0.381471 0.750000 -0.020509
C14   C     C_R   0.118527 0.618527 0.250000 -0.020759
C15   C     C_R   0.618517 0.881483 0.750000 -0.020822
C16   C     C_R   0.381483 0.118517 0.250000 -0.020637
C17   C     C_R   0.183334 0.316666 0.250000 0.220285
C18   C     C_R   0.816672 0.683328 0.750000 0.057014
C19   C     C_R   0.316661 0.816661 0.250000 0.240238
C20   C     C_R   0.683337 0.183337 0.750000 0.238713
C21   C     C_R   0.816666 0.683334 0.250000 0.220285
C22   C     C_R   0.183328 0.316672 0.750000 0.057013
C23   C     C_R   0.683339 0.183339 0.250000 0.240238
C24   C     C_R   0.316662 0.816662 0.750000 0.238712
C25   C     C_R   0.183339 0.683339 0.750000 0.240238
C26   C     C_R   0.816662 0.316662 0.250000 0.238712
C27   C     C_R   0.316666 0.183334 0.750000 0.220282
C28   C     C_R   0.683328 0.816672 0.250000 0.057014
C29   C     C_R   0.816661 0.316661 0.750000 0.240238
C30   C     C_R   0.183338 0.683338 0.250000 0.238712
C31   C     C_R   0.683334 0.816666 0.750000 0.220285
C32   C     C_R   0.316672 0.183328 0.250000 0.057014
C33   C     C_R   0.282482 0.217518 0.250000 -0.079877
C34   C     C_R   0.717516 0.782484 0.750000 -0.036199
C35   C     C_R   0.217456 0.717456 0.250000 0.011209
C36   C     C_R   0.782543 0.282543 0.750000 0.010929
C37   C     C_R   0.717518 0.782482 0.250000 -0.079877
C38   C     C_R   0.282483 0.217516 0.750000 -0.036202
C39   C     C_R   0.782544 0.282544 0.250000 0.011208
C40   C     C_R   0.217457 0.717457 0.750000 0.010929
C41   C     C_R   0.282544 0.782544 0.750000 0.011208
C42   C     C_R   0.717457 0.217457 0.250000 0.010929
C43   C     C_R   0.217518 0.282482 0.750000 -0.079879
C44   C     C_R   0.782484 0.717516 0.250000 -0.036200
C45   C     C_R   0.717455 0.217456 0.750000 0.011209
C46   C     C_R   0.282543 0.782543 0.250000 0.010929
C47   C     C_R   0.782482 0.717518 0.750000 -0.079877
C48   C     C_R   0.217516 0.282484 0.250000 -0.036199
C49   C     C_R   0.222643 0.255219 0.215482 -0.044275
C50   C     C_R   0.776773 0.744056 0.784849 -0.054863
C51   C     C_R   0.285508 0.747134 0.277631 -0.096800
C52   C     C_R   0.714570 0.252785 0.722273 -0.097559
C53   C     C_R   0.777357 0.744781 0.215482 -0.044276
C54   C     C_R   0.223226 0.255944 0.784849 -0.054860
C55   C     C_R   0.714492 0.252866 0.277632 -0.096800
C56   C     C_R   0.285429 0.747216 0.722272 -0.097559
C57   C     C_R   0.252865 0.714493 0.722367 -0.096800
C58   C     C_R   0.747215 0.285430 0.277727 -0.097559
C59   C     C_R   0.255219 0.222643 0.784518 -0.044274
C60   C     C_R   0.744056 0.776773 0.215151 -0.054863
C61   C     C_R   0.747134 0.285508 0.722368 -0.096800
C62   C     C_R   0.252785 0.714570 0.277727 -0.097559
C63   C     C_R   0.744781 0.777357 0.784518 -0.044276
C64   C     C_R   0.255944 0.223227 0.215151 -0.054862
C65   C     C_R   0.722643 0.755219 0.715482 -0.044275
C66   C     C_R   0.276773 0.244056 0.284849 -0.054862
C67   C     C_R   0.785508 0.247134 0.777631 -0.096800
C68   C     C_R   0.214570 0.752785 0.222273 -0.097558
C69   C     C_R   0.277357 0.244781 0.715482 -0.044277
C70   C     C_R   0.723227 0.755944 0.284849 -0.054861
C71   C     C_R   0.214493 0.752865 0.777632 -0.096800
C72   C     C_R   0.785430 0.247215 0.222273 -0.097559
C73   C     C_R   0.752866 0.214492 0.222368 -0.096800
C74   C     C_R   0.247216 0.785429 0.777728 -0.097558
C75   C     C_R   0.755219 0.722643 0.284518 -0.044276
C76   C     C_R   0.244056 0.276774 0.715151 -0.054864
C77   C     C_R   0.247134 0.785508 0.222368 -0.096800
C78   C     C_R   0.752785 0.214570 0.777727 -0.097559
C79   C     C_R   0.244781 0.277357 0.284518 -0.044276
C80   C     C_R   0.755944 0.723227 0.715151 -0.054861
C81   C     C_1   0.500000 0.000000 0.481209 0.019250
C82   C     C_1   0.500000 0.000000 0.518791 0.019906
C83   C     C_1   0.000000 0.500000 0.481209 0.019906
C84   C     C_1   0.000000 0.500000 0.518791 0.019250
C85   C     C_1   1.000000 0.500000 0.981209 0.019250
C86   C     C_1   0.000000 0.500000 0.018791 0.019906
C87   C     C_1   0.500000 0.000000 0.981209 0.019906
C88   C     C_1   0.500000 0.000000 0.018791 0.019250
C89   C     C_R   0.500000 0.000000 0.145954 0.796686
C90   C     C_R   0.500000 1.000000 0.854046 0.799011
C91   C     C_R   0.000000 0.500000 0.145954 0.799011
C92   C     C_R   0.000000 0.500000 0.854046 0.796685
C93   C     C_R   0.000000 0.500000 0.645954 0.796686
C94   C     C_R   0.000000 0.500000 0.354046 0.799011
C95   C     C_R   0.500000 0.000000 0.645954 0.799011
C96   C     C_R   0.500000 0.000000 0.354046 0.796685
C97   C     C_R   0.415492 0.915492 0.250000 0.814881
C98   C     C_R   0.584507 0.084507 0.750000 0.817223
C99   C     C_R   0.915493 0.584507 0.250000 0.815978
C100  C     C_R   0.084507 0.415493 0.750000 0.809005
C101  C     C_R   0.584508 0.084508 0.250000 0.814882
C102  C     C_R   0.415493 0.915493 0.750000 0.817223
C103  C     C_R   0.084507 0.415493 0.250000 0.815978
C104  C     C_R   0.915493 0.584507 0.750000 0.809006
C105  C     C_R   0.415493 0.084507 0.750000 0.815978
C106  C     C_R   0.584507 0.915493 0.250000 0.809005
C107  C     C_R   0.915492 0.415492 0.750000 0.814881
C108  C     C_R   0.084507 0.584507 0.250000 0.817222
C109  C     C_R   0.584507 0.915493 0.750000 0.815978
C110  C     C_R   0.415493 0.084507 0.250000 0.809006
C111  C     C_R   0.084508 0.584508 0.750000 0.814882
C112  C     C_R   0.915493 0.415493 0.250000 0.817223
C113  C     C_1   0.500000 0.000000 0.399219 -0.148546
C114  C     C_1   0.500000 0.000000 0.600781 -0.144846
C115  C     C_1   0.000000 0.500000 0.399219 -0.144846
C116  C     C_1   0.000000 0.500000 0.600781 -0.148546
C117  C     C_1   0.000000 0.500000 0.899219 -0.148546
C118  C     C_1   1.000000 0.500000 0.100781 -0.144846
C119  C     C_1   0.500000 1.000000 0.899219 -0.144846
C120  C     C_1   0.500000 0.000000 0.100781 -0.148546
C121  C     C_1   0.500000 0.000000 0.436802 0.003188
C122  C     C_1   0.500000 0.000000 0.563197 0.005315
C123  C     C_1   0.000000 0.500000 0.436803 0.005315
C124  C     C_1   0.000000 0.500000 0.563197 0.003188
C125  C     C_1   0.000000 0.500000 0.936802 0.003188
C126  C     C_1   1.000000 0.500000 0.063197 0.005315
C127  C     C_1   0.500000 1.000000 0.936803 0.005315
C128  C     C_1   0.500000 0.000000 0.063197 0.003188
C129  C     C_R   0.114778 0.344960 0.275637 -0.170356
C130  C     C_R   0.886285 0.656107 0.725904 -0.177553
C131  C     C_R   0.382420 0.847731 0.221032 -0.172377
C132  C     C_R   0.658344 0.111501 0.729822 -0.169425
C133  C     C_R   0.885221 0.655040 0.275637 -0.170356
C134  C     C_R   0.113715 0.343894 0.725904 -0.177553
C135  C     C_R   0.617580 0.152269 0.221032 -0.172379
C136  C     C_R   0.341655 0.888499 0.729823 -0.169425
C137  C     C_R   0.152270 0.617580 0.778967 -0.172378
C138  C     C_R   0.888499 0.341655 0.270178 -0.169425
C139  C     C_R   0.344960 0.114779 0.724363 -0.170355
C140  C     C_R   0.656106 0.886285 0.274096 -0.177553
C141  C     C_R   0.847731 0.382420 0.778968 -0.172378
C142  C     C_R   0.111501 0.658344 0.270178 -0.169425
C143  C     C_R   0.655040 0.885221 0.724363 -0.170357
C144  C     C_R   0.343893 0.113715 0.274096 -0.177553
C145  C     C_R   0.614779 0.844960 0.775637 -0.170356
C146  C     C_R   0.386285 0.156107 0.225904 -0.177554
C147  C     C_R   0.882420 0.347731 0.721032 -0.172378
C148  C     C_R   0.158344 0.611501 0.229822 -0.169425
C149  C     C_R   0.385221 0.155040 0.775637 -0.170357
C150  C     C_R   0.613715 0.843893 0.225904 -0.177553
C151  C     C_R   0.117580 0.652270 0.721032 -0.172379
C152  C     C_R   0.841655 0.388499 0.229822 -0.169425
C153  C     C_R   0.652269 0.117580 0.278968 -0.172378
C154  C     C_R   0.388499 0.841655 0.770177 -0.169425
C155  C     C_R   0.844960 0.614779 0.224363 -0.170357
C156  C     C_R   0.156106 0.386285 0.774096 -0.177554
C157  C     C_R   0.347731 0.882420 0.278968 -0.172378
C158  C     C_R   0.611501 0.158344 0.770178 -0.169425
C159  C     C_R   0.155040 0.385221 0.224363 -0.170357
C160  C     C_R   0.843893 0.613715 0.774096 -0.177553
C161  C     C_R   0.146994 0.312797 0.275643 -0.092665
C162  C     C_R   0.854104 0.688305 0.725955 -0.161400
C163  C     C_R   0.350082 0.815645 0.220925 -0.078853
C164  C     C_R   0.690625 0.143644 0.729998 -0.078044
C165  C     C_R   0.853006 0.687203 0.275643 -0.092664
C166  C     C_R   0.145897 0.311695 0.725955 -0.161407
C167  C     C_R   0.649918 0.184355 0.220925 -0.078852
C168  C     C_R   0.309374 0.856357 0.729999 -0.078043
C169  C     C_R   0.184355 0.649918 0.779074 -0.078853
C170  C     C_R   0.856356 0.309374 0.270002 -0.078044
C171  C     C_R   0.312797 0.146994 0.724357 -0.092672
C172  C     C_R   0.688305 0.854104 0.274045 -0.161401
C173  C     C_R   0.815645 0.350082 0.779075 -0.078853
C174  C     C_R   0.143644 0.690625 0.270002 -0.078043
C175  C     C_R   0.687203 0.853006 0.724357 -0.092663
C176  C     C_R   0.311695 0.145896 0.274045 -0.161403
C177  C     C_R   0.646994 0.812797 0.775643 -0.092666
C178  C     C_R   0.354104 0.188305 0.225955 -0.161400
C179  C     C_R   0.850082 0.315645 0.720925 -0.078852
C180  C     C_R   0.190625 0.643644 0.229998 -0.078043
C181  C     C_R   0.353006 0.187203 0.775643 -0.092662
C182  C     C_R   0.645896 0.811695 0.225955 -0.161403
C183  C     C_R   0.149918 0.684355 0.720926 -0.078852
C184  C     C_R   0.809374 0.356356 0.229998 -0.078043
C185  C     C_R   0.684355 0.149918 0.279075 -0.078852
C186  C     C_R   0.356357 0.809374 0.770001 -0.078043
C187  C     C_R   0.812797 0.646994 0.224357 -0.092665
C188  C     C_R   0.188305 0.354104 0.774045 -0.161398
C189  C     C_R   0.315645 0.850082 0.279075 -0.078853
C190  C     C_R   0.643644 0.190625 0.770002 -0.078044
C191  C     C_R   0.187203 0.353006 0.224357 -0.092663
C192  C     C_R   0.811695 0.645896 0.774045 -0.161404
H1    H     H_    0.086984 0.341257 0.295692 0.160100
H2    H     H_    0.914926 0.660658 0.707076 0.165349
H3    H     H_    0.408000 0.846286 0.198334 0.158622
H4    H     H_    0.664622 0.081085 0.714118 0.159001
H5    H     H_    0.913016 0.658743 0.295692 0.160100
H6    H     H_    0.085074 0.339343 0.707075 0.165350
H7    H     H_    0.591999 0.153714 0.198334 0.158623
H8    H     H_    0.335377 0.918916 0.714119 0.159000
H9    H     H_    0.153715 0.591998 0.801665 0.158623
H10   H     H_    0.918915 0.335377 0.285882 0.159001
H11   H     H_    0.341257 0.086984 0.704308 0.160100
H12   H     H_    0.660657 0.914926 0.292924 0.165350
H13   H     H_    0.846286 0.408000 0.801666 0.158623
H14   H     H_    0.081085 0.664623 0.285882 0.159001
H15   H     H_    0.658743 0.913016 0.704308 0.160101
H16   H     H_    0.339342 0.085074 0.292924 0.165350
H17   H     H_    0.586983 0.841257 0.795692 0.160100
H18   H     H_    0.414926 0.160658 0.207076 0.165350
H19   H     H_    0.908000 0.346286 0.698334 0.158623
H20   H     H_    0.164623 0.581085 0.214118 0.159001
H21   H     H_    0.413016 0.158743 0.795692 0.160101
H22   H     H_    0.585074 0.839343 0.207076 0.165350
H23   H     H_    0.091998 0.653715 0.698335 0.158623
H24   H     H_    0.835377 0.418915 0.214118 0.159001
H25   H     H_    0.653714 0.091999 0.301666 0.158622
H26   H     H_    0.418916 0.835377 0.785881 0.159000
H27   H     H_    0.841257 0.586984 0.204308 0.160101
H28   H     H_    0.160657 0.414926 0.792925 0.165350
H29   H     H_    0.346286 0.908001 0.301666 0.158622
H30   H     H_    0.581085 0.164622 0.785882 0.159001
H31   H     H_    0.158743 0.413016 0.204308 0.160101
H32   H     H_    0.839342 0.585074 0.792924 0.165350
H33   H     H_    0.143629 0.284813 0.295533 0.127630
H34   H     H_    0.858310 0.717141 0.707302 0.157760
H35   H     H_    0.351121 0.789916 0.198345 0.127250
H36   H     H_    0.721215 0.137743 0.714448 0.127723
H37   H     H_    0.856370 0.715187 0.295533 0.127631
H38   H     H_    0.141690 0.282859 0.707302 0.157758
H39   H     H_    0.648879 0.210084 0.198345 0.127249
H40   H     H_    0.278784 0.862258 0.714450 0.127723
H41   H     H_    0.210085 0.648878 0.801654 0.127249
H42   H     H_    0.862257 0.278784 0.285551 0.127723
H43   H     H_    0.284813 0.143629 0.704467 0.127630
H44   H     H_    0.717141 0.858310 0.292697 0.157760
H45   H     H_    0.789916 0.351121 0.801655 0.127250
H46   H     H_    0.137743 0.721216 0.285551 0.127723
H47   H     H_    0.715187 0.856371 0.704467 0.127631
H48   H     H_    0.282859 0.141690 0.292697 0.157760
H49   H     H_    0.643629 0.784813 0.795533 0.127630
H50   H     H_    0.358310 0.217141 0.207302 0.157760
H51   H     H_    0.851121 0.289916 0.698345 0.127250
H52   H     H_    0.221216 0.637743 0.214449 0.127723
H53   H     H_    0.356370 0.215187 0.795533 0.127631
H54   H     H_    0.641690 0.782859 0.207302 0.157760
H55   H     H_    0.148878 0.710085 0.698346 0.127249
H56   H     H_    0.778784 0.362257 0.214449 0.127723
H57   H     H_    0.710084 0.148879 0.301655 0.127249
H58   H     H_    0.362258 0.778784 0.785550 0.127723
H59   H     H_    0.784813 0.643629 0.204467 0.127630
H60   H     H_    0.217141 0.358310 0.792698 0.157760
H61   H     H_    0.289916 0.851121 0.301655 0.127250
H62   H     H_    0.637743 0.221215 0.785551 0.127723
H63   H     H_    0.215187 0.356371 0.204467 0.127631
H64   H     H_    0.782859 0.641690 0.792698 0.157760
O1    O     O_3   0.500000 0.000000 0.250000 -0.456835
O2    O     O_3   0.500000 0.000000 0.750000 -0.459010
O3    O     O_3   0.000000 0.500000 0.250000 -0.459010
O4    O     O_3   0.000000 0.500000 0.750000 -0.456835
O5    O     O_R   0.500000 0.036350 0.166040 -0.624831
O6    O     O_R   0.500000 0.963650 0.833960 -0.623763
O7    O     O_R   0.036350 0.500000 0.166040 -0.623763
O8    O     O_R   0.963650 0.500000 0.833960 -0.624831
O9    O     O_R   0.500000 0.963650 0.166040 -0.624831
O10   O     O_R   0.500000 0.036350 0.833960 -0.623763
O11   O     O_R   0.963650 0.500000 0.166040 -0.623763
O12   O     O_R   0.036350 0.500000 0.833960 -0.624831
O13   O     O_R   0.000000 0.536350 0.666040 -0.624831
O14   O     O_R   0.000000 0.463650 0.333960 -0.623763
O15   O     O_R   0.536350 0.000000 0.666040 -0.623763
O16   O     O_R   0.463650 0.000000 0.333960 -0.624831
O17   O     O_R   0.000000 0.463650 0.666040 -0.624831
O18   O     O_R   0.000000 0.536350 0.333960 -0.623762
O19   O     O_R   0.463650 0.000000 0.666040 -0.623762
O20   O     O_R   0.536350 0.000000 0.333960 -0.624831
O21   O     O_R   0.448840 0.912530 0.228020 -0.641940
O22   O     O_R   0.551160 0.087470 0.771980 -0.641362
O23   O     O_R   0.912530 0.551160 0.228020 -0.642554
O24   O     O_R   0.087470 0.448840 0.771980 -0.641806
O25   O     O_R   0.551160 0.087470 0.228020 -0.641941
O26   O     O_R   0.448840 0.912530 0.771980 -0.641362
O27   O     O_R   0.087470 0.448840 0.228020 -0.642554
O28   O     O_R   0.912530 0.551160 0.771980 -0.641805
O29   O     O_R   0.448840 0.087470 0.771980 -0.642554
O30   O     O_R   0.551160 0.912530 0.228020 -0.641805
O31   O     O_R   0.912530 0.448840 0.771980 -0.641941
O32   O     O_R   0.087470 0.551160 0.228020 -0.641362
O33   O     O_R   0.551160 0.912530 0.771980 -0.642554
O34   O     O_R   0.448840 0.087470 0.228020 -0.641806
O35   O     O_R   0.087470 0.551160 0.771980 -0.641940
O36   O     O_R   0.912530 0.448840 0.228020 -0.641362
O37   O     O_R   0.948840 0.412530 0.728020 -0.641940
O38   O     O_R   0.051160 0.587470 0.271980 -0.641362
O39   O     O_R   0.412530 0.051160 0.728020 -0.642554
O40   O     O_R   0.587470 0.948840 0.271980 -0.641806
O41   O     O_R   0.051160 0.587470 0.728020 -0.641941
O42   O     O_R   0.948840 0.412530 0.271980 -0.641362
O43   O     O_R   0.587470 0.948840 0.728020 -0.642554
O44   O     O_R   0.412530 0.051160 0.271980 -0.641805
O45   O     O_R   0.948840 0.587470 0.271980 -0.642554
O46   O     O_R   0.051160 0.412530 0.728020 -0.641805
O47   O     O_R   0.412530 0.948840 0.271980 -0.641941
O48   O     O_R   0.587470 0.051160 0.728020 -0.641362
O49   O     O_R   0.051160 0.412530 0.271980 -0.642554
O50   O     O_R   0.948840 0.587470 0.728020 -0.641806
O51   O     O_R   0.587470 0.051160 0.271980 -0.641940
O52   O     O_R   0.412530 0.948840 0.728020 -0.641361
Zn1   Zn    Zn3+2 0.448050 0.000000 0.281500 0.989409
Zn2   Zn    Zn3+2 0.551950 0.000000 0.718500 0.993281
Zn3   Zn    Zn3+2 0.000000 0.551950 0.281500 0.993281
Zn4   Zn    Zn3+2 0.000000 0.448050 0.718500 0.989409
Zn5   Zn    Zn3+2 0.551950 0.000000 0.281500 0.989409
Zn6   Zn    Zn3+2 0.448050 0.000000 0.718500 0.993281
Zn7   Zn    Zn3+2 0.000000 0.448050 0.281500 0.993281
Zn8   Zn    Zn3+2 0.000000 0.551950 0.718500 0.989409
Zn9   Zn    Zn3+2 0.948050 0.500000 0.781500 0.989409
Zn10  Zn    Zn3+2 0.051950 0.500000 0.218500 0.993281
Zn11  Zn    Zn3+2 0.500000 0.051950 0.781500 0.993281
Zn12  Zn    Zn3+2 0.500000 0.948050 0.218500 0.989409
Zn13  Zn    Zn3+2 0.051950 0.500000 0.781500 0.989409
Zn14  Zn    Zn3+2 0.948050 0.500000 0.218500 0.993281
Zn15  Zn    Zn3+2 0.500000 0.948050 0.781500 0.993281
Zn16  Zn    Zn3+2 0.500000 0.051950 0.218500 0.989409
C193  C     C_2   0.191570 0.258700 0.180752 0.414995
H65   H     H_    0.203145 0.258804 0.149627 0.140084
O53   O     O_2   0.152342 0.261223 0.186739 -0.556245
C194  C     C_2   0.806876 0.738168 0.820091 0.385460
H66   H     H_    0.840953 0.730464 0.814782 0.098678
O54   O     O_2   0.793753 0.739602 0.855129 -0.577246
C195  C     C_2   0.321998 0.744479 0.307673 0.363588
H67   H     H_    0.316281 0.731019 0.337752 0.073250
O55   O     O_2   0.358906 0.756183 0.298969 -0.551527
C196  C     C_2   0.676762 0.256758 0.693820 0.364862
H68   H     H_    0.664014 0.288682 0.686014 0.074104
O56   O     O_2   0.660161 0.224749 0.678031 -0.550062
C197  C     C_2   0.808430 0.741300 0.180752 0.415000
H69   H     H_    0.796854 0.741195 0.149627 0.140082
O57   O     O_2   0.847657 0.738778 0.186739 -0.556244
C198  C     C_2   0.193123 0.261831 0.820091 0.385456
H70   H     H_    0.159047 0.269535 0.814782 0.098679
O58   O     O_2   0.206247 0.260399 0.855129 -0.577245
C199  C     C_2   0.678002 0.255521 0.307674 0.363589
H71   H     H_    0.683719 0.268981 0.337752 0.073249
O59   O     O_2   0.641094 0.243817 0.298969 -0.551527
C200  C     C_2   0.323236 0.743244 0.693818 0.364862
H72   H     H_    0.335984 0.711320 0.686010 0.074104
O60   O     O_2   0.339837 0.775254 0.678030 -0.550062
C201  C     C_2   0.255519 0.678004 0.692325 0.363586
H73   H     H_    0.268979 0.683722 0.662246 0.073250
O61   O     O_2   0.243816 0.641095 0.701028 -0.551525
C202  C     C_2   0.743243 0.323237 0.306180 0.364862
H74   H     H_    0.711319 0.335986 0.313987 0.074104
O62   O     O_2   0.775252 0.339839 0.321969 -0.550063
C203  C     C_2   0.258700 0.191570 0.819247 0.414995
H75   H     H_    0.258803 0.203145 0.850373 0.140083
O63   O     O_2   0.261222 0.152342 0.813261 -0.556244
C204  C     C_2   0.738168 0.806877 0.179909 0.385459
H76   H     H_    0.730464 0.840953 0.185218 0.098678
O64   O     O_2   0.739602 0.793753 0.144870 -0.577246
C205  C     C_2   0.744479 0.321998 0.692327 0.363588
H77   H     H_    0.731018 0.316281 0.662248 0.073250
O65   O     O_2   0.756183 0.358906 0.701031 -0.551527
C206  C     C_2   0.256757 0.676762 0.306180 0.364863
H78   H     H_    0.288681 0.664014 0.313987 0.074104
O66   O     O_2   0.224748 0.660161 0.321969 -0.550063
C207  C     C_2   0.741299 0.808430 0.819248 0.415002
H79   H     H_    0.741195 0.796854 0.850373 0.140082
O67   O     O_2   0.738778 0.847657 0.813261 -0.556245
C208  C     C_2   0.261832 0.193124 0.179909 0.385456
H80   H     H_    0.269535 0.159047 0.185217 0.098678
O68   O     O_2   0.260399 0.206248 0.144870 -0.577245
C209  C     C_2   0.691570 0.758700 0.680752 0.414994
H81   H     H_    0.703145 0.758804 0.649627 0.140084
O69   O     O_2   0.652342 0.761223 0.686739 -0.556245
C210  C     C_2   0.306876 0.238168 0.320091 0.385458
H82   H     H_    0.340953 0.230464 0.314782 0.098678
O70   O     O_2   0.293753 0.239602 0.355129 -0.577245
C211  C     C_2   0.821998 0.244479 0.807673 0.363588
H83   H     H_    0.816281 0.231018 0.837752 0.073250
O71   O     O_2   0.858906 0.256183 0.798969 -0.551527
C212  C     C_2   0.176762 0.756757 0.193820 0.364861
H84   H     H_    0.164014 0.788682 0.186013 0.074104
O72   O     O_2   0.160161 0.724748 0.178031 -0.550062
C213  C     C_2   0.308430 0.241299 0.680752 0.415011
H85   H     H_    0.296854 0.241193 0.649627 0.140079
O73   O     O_2   0.347658 0.238779 0.686739 -0.556243
C214  C     C_2   0.693124 0.761832 0.320091 0.385456
H86   H     H_    0.659047 0.769535 0.314782 0.098678
O74   O     O_2   0.706248 0.760399 0.355129 -0.577245
C215  C     C_2   0.178004 0.755519 0.807675 0.363588
H87   H     H_    0.183722 0.768979 0.837754 0.073249
O75   O     O_2   0.141095 0.743816 0.798972 -0.551526
C216  C     C_2   0.823237 0.243243 0.193820 0.364862
H88   H     H_    0.835986 0.211319 0.186013 0.074105
O76   O     O_2   0.839839 0.275252 0.178031 -0.550063
C217  C     C_2   0.755521 0.178002 0.192326 0.363587
H89   H     H_    0.768981 0.183720 0.162247 0.073250
O77   O     O_2   0.743817 0.141094 0.201030 -0.551526
C218  C     C_2   0.243244 0.823236 0.806182 0.364862
H90   H     H_    0.211320 0.835984 0.813990 0.074104
O78   O     O_2   0.275254 0.839837 0.821970 -0.550063
C219  C     C_2   0.758700 0.691570 0.319247 0.414995
H91   H     H_    0.758803 0.703145 0.350373 0.140084
O79   O     O_2   0.761222 0.652342 0.313261 -0.556244
C220  C     C_2   0.238169 0.306877 0.679909 0.385466
H92   H     H_    0.230463 0.340953 0.685218 0.098679
O80   O     O_2   0.239606 0.293755 0.644871 -0.577248
C221  C     C_2   0.244479 0.821998 0.192327 0.363588
H93   H     H_    0.231018 0.816281 0.162248 0.073250
O81   O     O_2   0.256183 0.858906 0.201031 -0.551527
C222  C     C_2   0.756757 0.176762 0.806180 0.364863
H94   H     H_    0.788682 0.164014 0.813986 0.074104
O82   O     O_2   0.724749 0.160161 0.821968 -0.550062
C223  C     C_2   0.241300 0.308430 0.319248 0.414999
H95   H     H_    0.241195 0.296854 0.350373 0.140083
O83   O     O_2   0.238778 0.347657 0.313261 -0.556244
C224  C     C_2   0.761832 0.693124 0.679909 0.385456
H96   H     H_    0.769535 0.659047 0.685217 0.098678
O84   O     O_2   0.760399 0.706248 0.644870 -0.577245

loop_
_geom_bond_atom_site_label_1
_geom_bond_atom_site_label_2
_ccdc_geom_bond_type
C40   C71   A    
C15   C109  S    
C17   C48   S    
C143  C175  A    
C18   C47   S    
C197  H69   S    
C19   C46   S    
C17   C191  A    
O48   Zn2   S    
C66   C79   A    
C18   C192  A    
C102  O26   A    
C3    C131  A    
C219  O79   D    
C1    C129  A    
C52   C61   A    
C217  O77   D    
C135  H7    S    
O4    Zn13  S    
C181  H53   S    
O35   Zn13  S    
C111  O35   A    
C56   C57   A    
C188  H60   S    
C41   C74   A    
C44   C53   A    
C109  O43   A    
C192  H64   S    
C110  O44   A    
C11   C105  S    
C139  C171  A    
C45   C78   A    
C97   O47   A    
C98   O48   A    
C224  O84   D    
C20   C45   S    
C99   O45   A    
O11   Zn14  S    
C38   C69   A    
C187  H59   S    
C151  H23   S    
C165  H37   S    
C24   C41   S    
C184  H56   S    
C32   C178  A    
O25   Zn16  S    
C91   O11   A    
C172  H44   S    
C55   C199  S    
C115  C123  T    
C12   C150  A    
C1    C159  A    
C198  H70   S    
C149  H21   S    
O2    Zn2   S    
C65   C209  S    
C5    C155  A    
C81   C121  S    
C41   C56   A    
C42   C55   A    
C168  H40   S    
C59   C203  S    
C43   C54   A    
C203  H75   S    
C89   C120  S    
C2    C104  S    
C80   C224  S    
C202  H74   S    
C54   C198  S    
C91   C118  S    
C156  H28   S    
C73   C217  S    
C92   O8    A    
C23   C167  A    
C194  O54   D    
C160  H32   S    
C51   C195  S    
C79   C223  S    
C220  O80   D    
O3    Zn14  S    
C89   O5    A    
C91   O7    A    
C68   C77   A    
C58   C202  S    
C9    C151  A    
C42   C73   A    
C133  H5    S    
C16   C144  A    
C131  H3    S    
C72   C73   A    
C46   C77   A    
C94   C115  S    
O2    Zn6   S    
C107  O37   A    
C148  H20   S    
C155  C187  A    
C138  H10   S    
O4    Zn9   S    
C142  H14   S    
C22   C188  A    
C105  O29   A    
C136  H8    S    
C216  H88   S    
C185  H57   S    
C92   O12   A    
C147  C179  A    
C93   O13   A    
C26   C170  A    
C29   C179  A    
C30   C180  A    
C204  O64   D    
C189  H61   S    
C95   C114  S    
O20   Zn5   S    
C30   C174  A    
C179  H51   S    
C213  O73   D    
C94   O14   A    
C177  H49   S    
C14   C142  A    
C201  H73   S    
C86   C126  S    
C208  H80   S    
C95   O19   A    
C4    C132  A    
O13   Zn8   S    
C171  H43   S    
C85   C86   T    
C5    C133  A    
O14   Zn7   S    
C152  H24   S    
C169  H41   S    
O26   Zn15  S    
O23   Zn14  S    
C222  H94   S    
C158  C190  A    
C173  H45   S    
C68   C212  S    
C206  H78   S    
C146  C178  A    
C69   C76   A    
C193  O53   D    
C74   C218  S    
O16   Zn1   S    
O37   Zn4   S    
C99   O23   A    
C28   C172  A    
O38   Zn3   S    
C22   C43   S    
C214  H86   S    
C223  O83   D    
C1    C103  S    
C153  H25   S    
O8    Zn9   S    
O47   Zn1   S    
C130  C162  A    
C49   C64   A    
O4    Zn4   S    
C157  H29   S    
C50   C63   A    
C51   C62   A    
C47   C80   A    
C162  H34   S    
C53   C60   A    
C210  O70   D    
C33   C66   A    
C47   C50   A    
C145  H17   S    
C54   C59   A    
O15   Zn2   S    
O2    Zn15  S    
C196  H68   S    
C45   C52   A    
C103  O49   A    
C39   C58   A    
C46   C51   A    
C112  O42   A    
C202  O62   D    
C93   C116  S    
C6    C100  S    
C107  O31   A    
C27   C181  A    
O7    Zn10  S    
C93   O17   A    
O2    Zn11  S    
C108  O32   A    
C21   C44   S    
C200  O60   D    
C83   C84   T    
C144  C176  A    
C134  C166  A    
C31   C34   S    
C129  C161  A    
C19   C163  A    
C10   C112  S    
C17   C161  A    
C19   C189  A    
C15   C143  A    
C203  O63   D    
C199  O59   D    
C71   C215  S    
C96   O20   A    
C13   C147  A    
O33   Zn15  S    
C215  O75   D    
C50   C194  S    
C194  H66   S    
C151  C183  A    
C101  O51   A    
C102  O52   A    
C101  O25   A    
C56   C200  S    
C221  H93   S    
O32   Zn10  S    
C66   C210  S    
C217  H89   S    
C137  H9    S    
C28   C37   S    
C175  H47   S    
C82   C122  S    
C89   O9    A    
C90   O6    A    
C141  H13   S    
C113  C121  T    
C2    C160  A    
C7    C101  S    
C70   C75   A    
C3    C157  A    
C135  C167  A    
C144  H16   S    
C117  C125  T    
C6    C156  A    
C119  C127  T    
C87   C88   T    
C212  H84   S    
C8    C136  A    
O9    Zn12  S    
O10   Zn11  S    
C16   C110  S    
C211  H83   S    
C150  C182  A    
C109  O33   A    
C32   C176  A    
C205  O65   D    
C48   C79   A    
C198  O58   D    
C4    C98   S    
C182  H54   S    
C25   C40   S    
C20   C190  A    
O36   Zn14  S    
C26   C39   S    
C27   C38   S    
C20   C164  A    
C88   C128  S    
O1    Zn16  S    
C21   C165  A    
C24   C186  A    
C11   C139  A    
O21   Zn12  S    
C10   C152  A    
O22   Zn11  S    
C9    C137  A    
O44   Zn1   S    
C11   C149  A    
C143  H15   S    
C5    C99   S    
C67   C211  S    
C12   C140  A    
C155  H27   S    
O51   Zn5   S    
C13   C141  A    
O28   Zn9   S    
C14   C108  S    
C148  C180  A    
C37   C70   A    
C149  C181  A    
C147  H19   S    
C87   C127  S    
C197  O57   D    
C156  C188  A    
O19   Zn6   S    
C159  C191  A    
C160  C192  A    
C69   C213  S    
C98   O22   A    
O34   Zn16  S    
C23   C185  A    
C108  O38   A    
C218  H90   S    
C97   O21   A    
O39   Zn6   S    
C191  H63   S    
C221  O81   D    
C195  H67   S    
C132  C164  A    
C133  C165  A    
C154  C186  A    
C3    C97   S    
O43   Zn2   S    
C131  C163  A    
O4    Zn8   S    
C207  O67   D    
C183  H55   S    
C140  H12   S    
O52   Zn6   S    
O24   Zn13  S    
O6    Zn15  S    
C176  H48   S    
C96   C113  S    
C96   O16   A    
C36   C61   A    
C61   C205  S    
C213  H85   S    
O12   Zn13  S    
C43   C76   A    
C40   C57   A    
C116  C124  T    
C77   C221  S    
C106  O30   A    
C201  O61   D    
C105  O39   A    
O41   Zn8   S    
C130  H2    S    
C106  O40   A    
C94   O18   A    
C71   C74   A    
C208  O68   D    
C120  C128  T    
C95   O15   A    
O49   Zn7   S    
C32   C33   S    
C222  O82   D    
C49   C193  S    
C104  O28   A    
C18   C162  A    
C60   C204  S    
C2    C130  A    
C206  O66   D    
C193  H65   S    
C104  O50   A    
C186  H58   S    
C214  O74   D    
C55   C58   A    
O46   Zn4   S    
C190  H62   S    
C220  H92   S    
C57   C201  S    
C83   C123  S    
C178  H50   S    
C9    C111  S    
C199  H71   S    
O29   Zn11  S    
O30   Zn12  S    
C138  C170  A    
O31   Zn9   S    
C85   C125  S    
C219  H91   S    
C76   C220  S    
C13   C107  S    
C70   C214  S    
C81   C82   T    
C36   C67   A    
C215  H87   S    
C142  C174  A    
C31   C175  A    
C170  H42   S    
C29   C36   S    
C23   C42   S    
C30   C35   S    
C31   C177  A    
C24   C168  A    
C174  H46   S    
C196  O56   D    
C211  O71   D    
C14   C148  A    
C16   C146  A    
O1    Zn1   S    
C28   C182  A    
O3    Zn3   S    
C159  H31   S    
C4    C158  A    
C111  O41   A    
C166  H38   S    
C39   C72   A    
C22   C166  A    
C154  H26   S    
C8    C154  A    
C137  C169  A    
C139  H11   S    
C110  O34   A    
C140  C172  A    
C65   C80   A    
C100  O24   A    
C141  C173  A    
C78   C222  S    
C67   C78   A    
O5    Zn16  S    
C34   C65   A    
C103  O27   A    
C146  H18   S    
C21   C187  A    
C161  H33   S    
C180  H52   S    
C63   C207  S    
C218  O78   D    
C15   C145  A    
C136  C168  A    
C44   C75   A    
C92   C117  S    
C7    C135  A    
O27   Zn10  S    
O1    Zn5   S    
C207  H79   S    
C223  H95   S    
C7    C153  A    
C164  H36   S    
C195  O55   D    
O17   Zn4   S    
C216  O76   D    
O18   Zn3   S    
C10   C138  A    
C112  O36   A    
C152  C184  A    
O1    Zn12  S    
C27   C171  A    
C210  H82   S    
C90   O10   A    
C53   C197  S    
C224  H96   S    
O3    Zn10  S    
C25   C169  A    
C134  H6    S    
C48   C49   A    
C212  O72   D    
O40   Zn5   S    
C29   C173  A    
O42   Zn7   S    
C129  H1    S    
C167  H39   S    
C84   C124  S    
C205  H77   S    
O50   Zn8   S    
C90   C119  S    
C72   C216  S    
C6    C134  A    
C209  H81   S    
C12   C106  S    
C200  H72   S    
C153  C185  A    
C35   C68   A    
C33   C64   A    
C52   C196  S    
C34   C63   A    
C209  O69   D    
C35   C62   A    
C150  H22   S    
C100  O46   A    
C204  H76   S    
C157  C189  A    
C37   C60   A    
C64   C208  S    
C38   C59   A    
C114  C122  T    
C62   C206  S    
O45   Zn3   S    
C158  H30   S    
C145  C177  A    
C132  H4    S    
C118  C126  T    
C75   C219  S    
C8    C102  S    
C25   C183  A    
O3    Zn7   S    
C163  H35   S    
C26   C184  A    
