data_mof_unit_pretest_1579.cif
_audit_creation_date              2012-12-10T17:24:24-0500
_audit_creation_method            fapswitch 2.2
_symmetry_space_group_name_H-M    P1
_symmetry_Int_Tables_number       1
_space_group_crystal_system       triclinic
_cell_length_a                    21.753158
_cell_length_b                    21.753152
_cell_length_c                    32.178468
_cell_angle_alpha                 90.000017
_cell_angle_beta                  90.000042
_cell_angle_gamma                 90.000011
_cell_volume                      15226.8430919

loop_
_atom_site_label
_atom_site_type_symbol
_atom_type_description
_atom_site_fract_x
_atom_site_fract_y
_atom_site_fract_z
_atom_type_partial_charge
C1    C     C_R   0.313722 0.500000 0.000000 -0.064781
C2    C     C_R   0.517102 0.217642 0.963735 -0.017518
C3    C     C_1   0.500000 0.000000 0.661537 -0.077345
C4    C     C_1   0.500000 0.000000 0.838463 -0.077351
C5    C     C_1   0.000000 0.500000 0.838462 -0.077348
C6    C     C_1   0.500000 1.000000 0.161537 -0.077348
C7    C     C_1   1.000000 0.500000 0.161537 -0.077349
C8    C     C_1   0.000000 0.500000 0.124014 -0.131367
C9    C     C_1   0.500000 1.000000 0.124014 -0.131366
C10   C     C_1   0.000000 0.500000 0.875986 -0.131367
C11   C     C_1   0.500000 1.000000 0.875986 -0.131365
C12   C     C_1   0.500000 1.000000 0.624014 -0.131367
C13   C     C_R   0.782358 0.517104 0.963735 -0.017517
C14   C     C_1   1.000000 0.500000 0.624014 -0.131366
C15   C     C_1   0.500000 1.000000 0.375986 -0.131367
C16   C     C_1   1.000000 0.500000 0.375986 -0.131366
C17   C     C_R   0.186161 0.464417 0.924961 0.083054
C18   C     C_R   0.158188 0.406440 0.921829 -0.107223
C19   C     C_R   0.131768 0.387654 0.884302 -0.139138
C20   C     C_R   0.133762 0.426281 0.849622 -0.107976
C21   C     C_R   0.161614 0.484028 0.852529 -0.139494
C22   C     C_R   0.187859 0.503077 0.890047 -0.163254
C23   C     C_R   0.535580 0.186161 0.924961 0.083055
C24   C     C_R   0.482897 0.782358 0.963735 -0.017517
C25   C     C_R   0.593558 0.158189 0.921828 -0.107225
C26   C     C_R   0.612343 0.131769 0.884301 -0.139140
C27   C     C_R   0.573715 0.133762 0.849621 -0.107975
C28   C     C_R   0.515967 0.161612 0.852529 -0.139493
C29   C     C_R   0.496919 0.187858 0.890048 -0.163255
C30   C     C_R   0.813838 0.535582 0.924961 0.083054
C31   C     C_R   0.841812 0.593560 0.921829 -0.107224
C32   C     C_R   0.868232 0.612345 0.884302 -0.139139
C33   C     C_R   0.866238 0.573718 0.849622 -0.107977
C34   C     C_R   0.838386 0.515971 0.852529 -0.139494
C35   C     C_R   0.217642 0.517104 0.036265 -0.017517
C36   C     C_R   0.812140 0.496922 0.890048 -0.163255
C37   C     C_R   0.464419 0.813839 0.924961 0.083055
C38   C     C_R   0.406441 0.841810 0.921828 -0.107224
C39   C     C_R   0.387656 0.868231 0.884301 -0.139140
C40   C     C_R   0.426285 0.866238 0.849621 -0.107976
C41   C     C_R   0.484033 0.838388 0.852529 -0.139493
C42   C     C_R   0.503080 0.812142 0.890048 -0.163255
C43   C     C_R   0.186161 0.535582 0.075039 0.083054
C44   C     C_R   0.158188 0.593560 0.078171 -0.107224
C45   C     C_R   0.131768 0.612345 0.115697 -0.139138
C46   C     C_R   0.517103 0.782358 0.036265 -0.017517
C47   C     C_R   0.133761 0.573718 0.150378 -0.107976
C48   C     C_R   0.161614 0.515971 0.147471 -0.139494
C49   C     C_R   0.187860 0.496923 0.109952 -0.163254
C50   C     C_R   0.535581 0.813839 0.075039 0.083054
C51   C     C_R   0.593558 0.841812 0.078172 -0.107226
C52   C     C_R   0.612343 0.868232 0.115699 -0.139139
C53   C     C_R   0.573716 0.866238 0.150379 -0.107976
C54   C     C_R   0.515969 0.838386 0.147472 -0.139495
C55   C     C_R   0.496921 0.812140 0.109952 -0.163254
C56   C     C_R   0.813839 0.464418 0.075039 0.083054
C57   C     C_R   0.782358 0.482896 0.036265 -0.017517
C58   C     C_R   0.841812 0.406440 0.078171 -0.107224
C59   C     C_R   0.868232 0.387655 0.115698 -0.139139
C60   C     C_R   0.866238 0.426282 0.150378 -0.107975
C61   C     C_R   0.838386 0.484030 0.147471 -0.139495
C62   C     C_R   0.812140 0.503078 0.109952 -0.163255
C63   C     C_R   0.464419 0.186161 0.075039 0.083053
C64   C     C_R   0.406442 0.158188 0.078172 -0.107225
C65   C     C_R   0.387657 0.131768 0.115699 -0.139138
C66   C     C_R   0.426285 0.133762 0.150379 -0.107977
C67   C     C_R   0.484032 0.161614 0.147472 -0.139494
C68   C     C_R   0.482897 0.217642 0.036265 -0.017517
C69   C     C_R   0.503080 0.187860 0.109953 -0.163254
C70   C     C_R   0.686161 0.964417 0.424961 0.083055
C71   C     C_R   0.658189 0.906439 0.421829 -0.107222
C72   C     C_R   0.631769 0.887653 0.384303 -0.139138
C73   C     C_R   0.633761 0.926280 0.349623 -0.107976
C74   C     C_R   0.661612 0.984028 0.352529 -0.139494
C75   C     C_R   0.687858 0.003077 0.390048 -0.163256
C76   C     C_R   0.035580 0.686161 0.424961 0.083053
C77   C     C_R   0.093557 0.658188 0.421828 -0.107226
C78   C     C_R   0.112342 0.631768 0.384301 -0.139139
C79   C     C_R   0.717642 0.982896 0.463735 -0.017517
C80   C     C_R   0.073714 0.633763 0.349620 -0.107977
C81   C     C_R   0.015967 0.661615 0.352528 -0.139493
C82   C     C_R   0.996919 0.687860 0.390047 -0.163253
C83   C     C_R   0.313839 0.035581 0.424961 0.083055
C84   C     C_R   0.341811 0.093559 0.421828 -0.107225
C85   C     C_R   0.368232 0.112344 0.384302 -0.139138
C86   C     C_R   0.366238 0.073716 0.349621 -0.107977
C87   C     C_R   0.338386 0.015969 0.352529 -0.139494
C88   C     C_R   0.312141 0.996921 0.390048 -0.163254
C89   C     C_R   0.964419 0.313839 0.424961 0.083054
C90   C     C_R   0.017102 0.717642 0.463735 -0.017517
C91   C     C_R   0.906442 0.341812 0.421828 -0.107226
C92   C     C_R   0.887657 0.368232 0.384301 -0.139138
C93   C     C_R   0.926285 0.366237 0.349621 -0.107977
C94   C     C_R   0.984032 0.338385 0.352528 -0.139493
C95   C     C_R   0.003080 0.312140 0.390047 -0.163254
C96   C     C_R   0.686162 0.035583 0.575039 0.083053
C97   C     C_R   0.658187 0.093560 0.578171 -0.107224
C98   C     C_R   0.631767 0.112345 0.615697 -0.139138
C99   C     C_R   0.633763 0.073719 0.650378 -0.107976
C100  C     C_R   0.661617 0.015973 0.647472 -0.139495
C101  C     C_R   0.282358 0.017103 0.463735 -0.017517
C102  C     C_R   0.687862 0.996924 0.609953 -0.163253
C103  C     C_R   0.035581 0.313839 0.575039 0.083054
C104  C     C_R   0.093559 0.341811 0.578172 -0.107225
C105  C     C_R   0.112343 0.368231 0.615699 -0.139139
C106  C     C_R   0.073715 0.366238 0.650379 -0.107977
C107  C     C_R   0.015968 0.338386 0.647471 -0.139492
C108  C     C_R   0.996920 0.312141 0.609952 -0.163255
C109  C     C_R   0.313838 0.964418 0.575039 0.083053
C110  C     C_R   0.341814 0.906442 0.578171 -0.107226
C111  C     C_R   0.368233 0.887657 0.615698 -0.139137
C112  C     C_R   0.500000 0.313721 0.000000 -0.064782
C113  C     C_R   0.982897 0.282358 0.463735 -0.017517
C114  C     C_R   0.366237 0.926283 0.650379 -0.107976
C115  C     C_R   0.338383 0.984029 0.647472 -0.139496
C116  C     C_R   0.312138 0.003077 0.609953 -0.163252
C117  C     C_R   0.964420 0.686161 0.575039 0.083054
C118  C     C_R   0.906442 0.658189 0.578172 -0.107224
C119  C     C_R   0.887657 0.631769 0.615699 -0.139139
C120  C     C_R   0.926286 0.633762 0.650379 -0.107976
C121  C     C_R   0.984033 0.661614 0.647471 -0.139493
C122  C     C_R   0.003081 0.687859 0.609952 -0.163254
C123  C     C_R   0.717642 0.017104 0.536265 -0.017517
C124  C     C_R   0.017103 0.282358 0.536265 -0.017517
C125  C     C_R   0.282358 0.982897 0.536265 -0.017516
C126  C     C_R   0.982898 0.717642 0.536265 -0.017517
C127  C     C_R   0.281658 0.483935 0.963940 -0.212452
C128  C     C_R   0.516064 0.281658 0.963940 -0.212451
C129  C     C_R   0.718342 0.516065 0.963940 -0.212451
C130  C     C_R   0.483936 0.718342 0.963940 -0.212452
C131  C     C_R   0.281658 0.516065 0.036060 -0.212451
C132  C     C_R   0.686278 0.500000 0.000000 -0.064782
C133  C     C_R   0.516065 0.718342 0.036060 -0.212452
C134  C     C_R   0.718342 0.483935 0.036060 -0.212451
C135  C     C_R   0.483936 0.281658 0.036060 -0.212452
C136  C     C_R   0.781658 0.983934 0.463940 -0.212452
C137  C     C_R   0.016064 0.781658 0.463940 -0.212452
C138  C     C_R   0.218342 0.016065 0.463940 -0.212451
C139  C     C_R   0.983936 0.218342 0.463940 -0.212451
C140  C     C_R   0.781658 0.016066 0.536059 -0.212451
C141  C     C_R   0.016064 0.218342 0.536060 -0.212452
C142  C     C_R   0.218342 0.983935 0.536060 -0.212452
C143  C     C_R   0.500000 0.686278 0.000000 -0.064782
C144  C     C_R   0.983936 0.781658 0.536060 -0.212451
C145  C     C_R   0.118663 0.500000 1.000000 0.809345
C146  C     C_R   0.500000 0.118663 0.000000 0.809345
C147  C     C_R   0.881337 0.500000 1.000000 0.809345
C148  C     C_R   0.500000 0.881337 0.000000 0.809345
C149  C     C_R   0.618663 0.000000 0.500000 0.809345
C150  C     C_R   0.000000 0.618663 0.500000 0.809345
C151  C     C_R   0.381337 1.000000 0.500000 0.809344
C152  C     C_R   1.000000 0.381337 0.500000 0.809345
C153  C     C_R   1.000000 0.500000 0.079358 0.850945
C154  C     C_R   0.813721 0.000000 0.500000 -0.064781
C155  C     C_R   0.500000 0.000000 0.079358 0.850944
C156  C     C_R   1.000000 0.500000 0.920642 0.850945
C157  C     C_R   0.500000 0.000000 0.920642 0.850945
C158  C     C_R   0.500000 0.000000 0.579358 0.850943
C159  C     C_R   0.000000 0.500000 0.579358 0.850944
C160  C     C_R   0.500000 0.000000 0.420642 0.850946
C161  C     C_R   1.000000 0.500000 0.420642 0.850944
C162  C     C_R   0.039423 0.460645 0.271754 -0.193225
C163  C     C_R   0.539355 0.039423 0.271754 -0.193227
C164  C     C_R   0.960577 0.539355 0.271754 -0.193226
C165  C     C_R   0.000000 0.813722 0.500000 -0.064782
C166  C     C_R   0.460645 0.960577 0.271754 -0.193226
C167  C     C_R   0.039425 0.539353 0.728246 -0.193227
C168  C     C_R   0.539362 0.960584 0.728246 -0.193224
C169  C     C_R   0.960575 0.460647 0.728246 -0.193227
C170  C     C_R   0.460638 0.039416 0.728246 -0.193223
C171  C     C_R   0.539431 0.960653 0.771754 -0.193229
C172  C     C_R   0.039357 0.539421 0.771754 -0.193225
C173  C     C_R   0.460570 0.039347 0.771754 -0.193228
C174  C     C_R   0.960643 0.460579 0.771754 -0.193225
C175  C     C_R   0.539423 0.039355 0.228246 -0.193225
C176  C     C_R   0.186278 0.000000 0.500000 -0.064782
C177  C     C_R   0.039355 0.460577 0.228246 -0.193227
C178  C     C_R   0.460577 0.960645 0.228246 -0.193226
C179  C     C_R   0.960645 0.539423 0.228246 -0.193226
C180  C     C_R   1.000000 0.500000 0.293641 0.144782
C181  C     C_R   0.500000 1.000000 0.293641 0.144784
C182  C     C_R   0.000000 0.500000 0.706359 0.144782
C183  C     C_R   0.500000 1.000000 0.706359 0.144784
C184  C     C_R   0.500000 0.000000 0.793641 0.144781
C185  C     C_R   0.000000 0.500000 0.793641 0.144784
C186  C     C_R   0.500000 1.000000 0.206359 0.144782
C187  C     C_R   1.000000 0.186278 0.500000 -0.064782
C188  C     C_R   0.000000 0.500000 0.206359 0.144783
C189  C     C_R   0.185372 0.500000 1.000000 -0.088919
C190  C     C_R   0.500000 0.185372 0.000000 -0.088918
C191  C     C_R   0.814628 0.500000 0.000000 -0.088919
C192  C     C_R   0.500000 0.814628 0.000000 -0.088918
C193  C     C_R   0.685372 0.000000 0.500000 -0.088919
C194  C     C_R   1.000000 0.685372 0.500000 -0.088919
C195  C     C_R   0.314628 1.000000 0.500000 -0.088919
C196  C     C_R   1.000000 0.314628 0.500000 -0.088918
C197  C     C_R   0.500000 0.619277 0.000000 0.812835
C198  C     C_R   0.217642 0.482896 0.963735 -0.017517
C199  C     C_R   0.380723 0.500000 0.000000 0.812834
C200  C     C_R   0.500000 0.380723 0.000000 0.812835
C201  C     C_R   0.619277 0.500000 0.000000 0.812835
C202  C     C_R   0.000000 0.119277 0.500000 0.812835
C203  C     C_R   0.880723 0.000000 0.500000 0.812834
C204  C     C_R   1.000000 0.880723 0.500000 0.812835
C205  C     C_R   0.119277 0.000000 0.500000 0.812835
C206  C     C_1   1.000000 0.500000 0.338462 -0.077347
C207  C     C_1   0.500000 1.000000 0.338462 -0.077349
C208  C     C_1   0.000000 0.500000 0.661537 -0.077349
Cu1   Cu    Cu3+1 1.000000 0.561730 0.000000 0.935577
Cu2   Cu    Cu3+1 0.500000 0.500000 0.041080 0.933766
Cu3   Cu    Cu3+1 1.000000 0.000000 0.458920 0.933767
Cu4   Cu    Cu3+1 1.000000 0.000000 0.541080 0.933766
Cu5   Cu    Cu3+1 0.438270 0.000000 0.000000 0.935577
Cu6   Cu    Cu3+1 0.000000 0.438270 0.000000 0.935577
Cu7   Cu    Cu3+1 0.561730 0.000000 0.000000 0.935577
Cu8   Cu    Cu3+1 0.500000 0.061730 0.500000 0.935576
Cu9   Cu    Cu3+1 0.938270 0.500000 0.500000 0.935577
Cu10  Cu    Cu3+1 0.500000 0.938270 0.500000 0.935577
Cu11  Cu    Cu3+1 0.061730 0.500000 0.500000 0.935577
Cu12  Cu    Cu3+1 0.500000 0.500000 0.958920 0.933767
H1    H     H_    0.069954 0.429847 0.211696 0.129794
H2    H     H_    0.070156 0.569950 0.711696 0.129794
H3    H     H_    0.088411 0.386477 0.679459 0.132054
H4    H     H_    0.986086 0.336910 0.674338 0.126326
H5    H     H_    0.952352 0.290100 0.608154 0.131091
H6    H     H_    0.342368 0.875545 0.551786 0.134230
H7    H     H_    0.389795 0.842951 0.617993 0.124700
H8    H     H_    0.386476 0.911587 0.679459 0.132053
H9    H     H_    0.336903 0.013909 0.674340 0.126322
H10   H     H_    0.290094 0.047644 0.608156 0.131091
H11   H     H_    0.875544 0.657636 0.551788 0.134227
H12   H     H_    0.842951 0.610209 0.617995 0.124700
H13   H     H_    0.430033 0.070139 0.711696 0.129792
H14   H     H_    0.911590 0.613523 0.679459 0.132054
H15   H     H_    0.013915 0.663091 0.674338 0.126326
H16   H     H_    0.047649 0.709900 0.608154 0.131091
H17   H     H_    0.929844 0.430049 0.711696 0.129794
H18   H     H_    0.569955 0.070152 0.288304 0.129793
H19   H     H_    0.070151 0.430045 0.288304 0.129794
H20   H     H_    0.430046 0.929848 0.288304 0.129794
H21   H     H_    0.929848 0.569955 0.288304 0.129794
H22   H     H_    0.306424 0.471030 0.936024 0.159219
H23   H     H_    0.528968 0.306424 0.936024 0.159219
H24   H     H_    0.693576 0.528970 0.936024 0.159219
H25   H     H_    0.570152 0.069954 0.211696 0.129794
H26   H     H_    0.471031 0.693576 0.936024 0.159219
H27   H     H_    0.306424 0.528970 0.063976 0.159218
H28   H     H_    0.528969 0.693576 0.063976 0.159219
H29   H     H_    0.693576 0.471030 0.063976 0.159218
H30   H     H_    0.471032 0.306424 0.063976 0.159219
H31   H     H_    0.806424 0.971029 0.436025 0.159219
H32   H     H_    0.028968 0.806424 0.436024 0.159219
H33   H     H_    0.193576 0.028969 0.436024 0.159219
H34   H     H_    0.971031 0.193576 0.436024 0.159219
H35   H     H_    0.806424 0.028971 0.563975 0.159218
H36   H     H_    0.930046 0.570153 0.211696 0.129794
H37   H     H_    0.028969 0.193576 0.563976 0.159219
H38   H     H_    0.193576 0.971031 0.563976 0.159219
H39   H     H_    0.971032 0.806424 0.563976 0.159219
H40   H     H_    0.157635 0.375543 0.948214 0.134227
H41   H     H_    0.110207 0.342947 0.882008 0.124699
H42   H     H_    0.113522 0.411585 0.820542 0.132053
H43   H     H_    0.163092 0.513909 0.825661 0.126325
H44   H     H_    0.209901 0.547645 0.891845 0.131091
H45   H     H_    0.624456 0.157638 0.948212 0.134226
H46   H     H_    0.657050 0.110210 0.882005 0.124700
H47   H     H_    0.429848 0.930046 0.211696 0.129794
H48   H     H_    0.588410 0.113522 0.820541 0.132054
H49   H     H_    0.486084 0.163088 0.825662 0.126329
H50   H     H_    0.452351 0.209898 0.891846 0.131091
H51   H     H_    0.842364 0.624456 0.948214 0.134227
H52   H     H_    0.889792 0.657052 0.882008 0.124700
H53   H     H_    0.886477 0.588414 0.820542 0.132053
H54   H     H_    0.836908 0.486090 0.825662 0.126325
H55   H     H_    0.790099 0.452355 0.891845 0.131091
H56   H     H_    0.375543 0.842362 0.948212 0.134226
H57   H     H_    0.342949 0.889790 0.882006 0.124700
H58   H     H_    0.069958 0.570148 0.788304 0.129793
H59   H     H_    0.411589 0.886478 0.820541 0.132054
H60   H     H_    0.513915 0.836912 0.825662 0.126329
H61   H     H_    0.547649 0.790102 0.891846 0.131092
H62   H     H_    0.157635 0.624457 0.051786 0.134227
H63   H     H_    0.110207 0.657052 0.117992 0.124699
H64   H     H_    0.113522 0.588414 0.179458 0.132053
H65   H     H_    0.163091 0.486090 0.174339 0.126326
H66   H     H_    0.209901 0.452355 0.108155 0.131091
H67   H     H_    0.624456 0.842365 0.051787 0.134228
H68   H     H_    0.657050 0.889792 0.117994 0.124700
H69   H     H_    0.570165 0.930059 0.788304 0.129795
H70   H     H_    0.588412 0.886477 0.179459 0.132054
H71   H     H_    0.486087 0.836908 0.174339 0.126326
H72   H     H_    0.452353 0.790099 0.108155 0.131091
H73   H     H_    0.842365 0.375544 0.051786 0.134228
H74   H     H_    0.889793 0.342948 0.117992 0.124700
H75   H     H_    0.886478 0.411586 0.179458 0.132053
H76   H     H_    0.836909 0.513910 0.174339 0.126326
H77   H     H_    0.790099 0.547646 0.108155 0.131091
H78   H     H_    0.375545 0.157635 0.051787 0.134228
H79   H     H_    0.342950 0.110208 0.117994 0.124700
H80   H     H_    0.930042 0.429851 0.788304 0.129793
H81   H     H_    0.411589 0.113523 0.179459 0.132054
H82   H     H_    0.513914 0.163092 0.174339 0.126325
H83   H     H_    0.547648 0.209901 0.108155 0.131091
H84   H     H_    0.657638 0.875542 0.448214 0.134226
H85   H     H_    0.610209 0.842946 0.382008 0.124699
H86   H     H_    0.613521 0.911583 0.320543 0.132053
H87   H     H_    0.663088 0.013909 0.325662 0.126326
H88   H     H_    0.709898 0.047645 0.391845 0.131092
H89   H     H_    0.124455 0.657634 0.448212 0.134229
H90   H     H_    0.157048 0.610207 0.382005 0.124701
H91   H     H_    0.429835 0.069941 0.788304 0.129795
H92   H     H_    0.088409 0.613524 0.320540 0.132054
H93   H     H_    0.986086 0.663094 0.325661 0.126325
H94   H     H_    0.952352 0.709902 0.391845 0.131091
H95   H     H_    0.342364 0.124457 0.448213 0.134227
H96   H     H_    0.389791 0.157051 0.382007 0.124700
H97   H     H_    0.386477 0.088412 0.320541 0.132054
H98   H     H_    0.336909 0.986088 0.325662 0.126325
H99   H     H_    0.290100 0.952353 0.391845 0.131091
H100  H     H_    0.875545 0.342365 0.448213 0.134228
H101  H     H_    0.842951 0.389793 0.382006 0.124700
H102  H     H_    0.569967 0.929861 0.711696 0.129793
H103  H     H_    0.911589 0.386476 0.320540 0.132054
H104  H     H_    0.013913 0.336907 0.325661 0.126325
H105  H     H_    0.047647 0.290098 0.391845 0.131091
H106  H     H_    0.657633 0.124456 0.551786 0.134229
H107  H     H_    0.610205 0.157051 0.617992 0.124700
H108  H     H_    0.613523 0.088415 0.679458 0.132053
H109  H     H_    0.663096 0.986093 0.674339 0.126322
H110  H     H_    0.709905 0.952357 0.608156 0.131091
H111  H     H_    0.124456 0.342363 0.551787 0.134227
H112  H     H_    0.157051 0.389791 0.617994 0.124700
O1    O     O_R   0.090200 0.552120 0.999920 -0.593355
O2    O     O_R   0.947880 0.590200 0.499920 -0.593355
O3    O     O_R   0.409800 0.947880 0.499920 -0.593356
O4    O     O_R   0.052120 0.409800 0.499920 -0.593355
O5    O     O_R   0.590200 0.947880 0.500080 -0.593353
O6    O     O_R   0.947880 0.409800 0.500080 -0.593356
O7    O     O_R   0.409800 0.052120 0.500080 -0.593354
O8    O     O_R   0.052120 0.590200 0.500080 -0.593356
O9    O     O_R   1.000000 0.552120 0.059780 -0.583140
O10   O     O_R   0.447880 0.000000 0.059780 -0.583140
O11   O     O_R   1.000000 0.447880 0.059780 -0.583140
O12   O     O_R   0.447880 0.090200 0.999920 -0.593356
O13   O     O_R   0.552120 0.000000 0.059780 -0.583140
O14   O     O_R   0.000000 0.447880 0.940220 -0.583140
O15   O     O_R   0.447880 0.000000 0.940220 -0.583140
O16   O     O_R   1.000000 0.552120 0.940220 -0.583140
O17   O     O_R   0.552120 0.000000 0.940220 -0.583140
O18   O     O_R   0.500000 0.052120 0.559780 -0.583140
O19   O     O_R   0.947880 0.500000 0.559780 -0.583140
O20   O     O_R   0.500000 0.947880 0.559780 -0.583140
O21   O     O_R   0.052120 0.500000 0.559780 -0.583140
O22   O     O_R   0.500000 0.947880 0.440220 -0.583139
O23   O     O_R   0.909800 0.447880 0.999920 -0.593355
O24   O     O_R   0.947880 0.500000 0.440220 -0.583140
O25   O     O_R   0.500000 0.052120 0.440220 -0.583140
O26   O     O_R   0.052120 0.500000 0.440220 -0.583140
O27   O     O_R   0.500000 0.590200 0.965310 -0.592662
O28   O     O_R   0.409800 0.500000 0.965310 -0.592662
O29   O     O_R   0.500000 0.409800 0.965310 -0.592662
O30   O     O_R   0.590200 0.500000 0.965310 -0.592662
O31   O     O_R   0.500000 0.409800 0.034690 -0.592663
O32   O     O_R   0.409800 0.500000 0.034690 -0.592663
O33   O     O_R   0.500000 0.590200 0.034690 -0.592663
O34   O     O_R   0.552120 0.909800 0.999920 -0.593356
O35   O     O_R   0.590200 0.500000 0.034690 -0.592662
O36   O     O_R   0.000000 0.090200 0.465310 -0.592662
O37   O     O_R   0.909800 0.000000 0.465310 -0.592662
O38   O     O_R   0.000000 0.909800 0.465310 -0.592662
O39   O     O_R   0.090200 0.000000 0.465310 -0.592662
O40   O     O_R   1.000000 0.909800 0.534690 -0.592663
O41   O     O_R   0.909800 0.000000 0.534690 -0.592662
O42   O     O_R   0.000000 0.090200 0.534690 -0.592663
O43   O     O_R   0.090200 0.000000 0.534690 -0.592663
O44   O     O_R   0.090200 0.447880 0.000080 -0.593355
O45   O     O_R   0.447880 0.909800 0.000080 -0.593354
O46   O     O_R   0.909800 0.552120 0.000080 -0.593355
O47   O     O_R   0.552120 0.090200 0.000080 -0.593354
O48   O     O_R   0.590200 0.052120 0.499920 -0.593356

loop_
_geom_bond_atom_site_label_1
_geom_bond_atom_site_label_2
_ccdc_geom_bond_type
C122  H16   S    
C45   H63   S    
C96   C102  A    
C19   C20   A    
C161  O24   A    
C114  C115  A    
C158  O18   A    
C11   C157  S    
C201  O30   A    
C181  C207  S    
C14   C208  T    
C180  C206  S    
C106  C107  A    
C166  H20   S    
C56   C57   S    
C142  H38   S    
C37   C42   A    
C110  C111  A    
C150  C194  S    
C162  C177  A    
C151  O3    A    
C205  O39   A    
Cu10  O22   S    
C22   H44   S    
C88   H99   S    
C169  C174  A    
C141  C187  A    
C117  C126  S    
C203  O41   A    
Cu8   O48   S    
C116  H10   S    
C83   C88   A    
C59   C60   A    
Cu7   O34   S    
Cu5   O10   S    
C127  H22   S    
C164  H21   S    
C104  C105  A    
C154  C203  S    
C45   C47   A    
C202  O36   A    
C143  C197  S    
C89   C113  S    
C51   C52   A    
C13   C30   S    
C71   H84   S    
C86   H97   S    
C179  C188  A    
Cu1   O16   S    
Cu4   O41   S    
C43   C44   A    
C37   C38   A    
C54   H71   S    
C91   H100  S    
C27   H48   S    
C101  C138  A    
C132  C201  S    
Cu3   O38   S    
C164  C179  A    
C171  H69   S    
C197  O27   A    
Cu8   O18   S    
C135  H30   S    
C161  O26   A    
C127  C198  A    
C91   C92   A    
C150  O2    A    
C92   H101  S    
C100  H109  S    
C204  O40   A    
C70   C79   S    
C2    C190  A    
C72   C73   A    
C1    C131  A    
C6    C186  S    
C30   C36   A    
C144  C165  A    
C15   C160  S    
C41   H60   S    
C64   C65   A    
C175  C186  A    
C75   H88   S    
C65   H79   S    
C87   H98   S    
C94   H104  S    
Cu12  O30   S    
C174  H80   S    
C182  C208  S    
C169  C182  A    
C133  H28   S    
C60   H75   S    
C175  H25   S    
C20   C21   A    
C132  C134  A    
C98   C99   A    
Cu5   O12   S    
C112  C200  S    
C26   H46   S    
C77   H89   S    
C66   H81   S    
C163  C181  A    
C163  C175  A    
Cu2   O35   S    
C85   H96   S    
C97   C98   A    
C7    C8    T    
C85   C86   A    
Cu7   O47   S    
C79   C136  A    
C187  C202  S    
C177  C188  A    
Cu4   O43   S    
C23   C29   A    
C165  C204  S    
Cu8   Cu10  S    
C155  O13   A    
C80   H92   S    
C38   C39   A    
C78   C80   A    
C125  C195  A    
C115  C116  A    
C173  H91   S    
Cu3   O36   S    
Cu6   O44   S    
C149  C193  S    
C168  C171  A    
Cu1   O9    S    
C106  H3    S    
C40   H59   S    
C147  C191  S    
Cu10  O5    S    
C107  C108  A    
C113  C139  A    
C89   C91   A    
C138  H33   S    
C35   C43   S    
C172  C185  A    
C162  C180  A    
C95   H105  S    
C20   H42   S    
C168  C183  A    
C66   C67   A    
C21   H43   S    
C24   C37   S    
C170  H13   S    
C49   H66   S    
C152  C196  S    
C139  H34   S    
C24   C192  A    
C110  H6    S    
C76   C82   A    
C39   C40   A    
C145  O44   A    
C25   C26   A    
C189  C198  A    
C178  C186  A    
C117  C122  A    
C167  H2    S    
C203  O37   A    
Cu2   O32   S    
C83   C84   A    
C118  H11   S    
C61   H76   S    
C44   H62   S    
C124  C196  A    
C17   C18   A    
Cu4   O40   S    
C140  H35   S    
C8    C153  S    
C93   H103  S    
C202  O42   A    
C113  C196  A    
C124  C141  A    
Cu9   O24   S    
Cu2   O33   S    
Cu3   O39   S    
C42   H61   S    
C120  C121  A    
C107  H4    S    
C54   C55   A    
C69   H83   S    
C96   C123  S    
C68   C135  A    
C146  O12   A    
Cu9   O19   S    
C129  H24   S    
C79   C193  A    
C14   C159  S    
C153  O9    A    
C35   C131  A    
C71   C72   A    
C117  C118  A    
C64   H78   S    
C162  H19   S    
C59   H74   S    
C33   H53   S    
C126  C144  A    
C56   C58   A    
C34   C36   A    
C61   C62   A    
C114  H8    S    
C63   C64   A    
C24   C130  A    
C9    C155  S    
C2    C23   S    
C62   H77   S    
C141  H37   S    
C12   C158  S    
C21   C22   A    
C3    C183  S    
C15   C207  T    
C160  O22   A    
C148  C192  S    
C87   C88   A    
C104  H111  S    
Cu10  O20   S    
C73   C74   A    
C5    C185  S    
Cu1   O46   S    
C137  H32   S    
C149  O48   A    
C137  C165  A    
C77   C78   A    
C52   C53   A    
C157  O17   A    
C26   C27   A    
C51   H67   S    
C28   C29   A    
C57   C191  A    
C174  C185  A    
C30   C31   A    
C167  C182  A    
C108  H5    S    
C200  O29   A    
Cu4   O42   S    
C18   C19   A    
C151  C195  S    
C144  H39   S    
C177  H1    S    
C160  O25   A    
C156  O14   A    
C109  C116  A    
Cu6   O11   S    
C78   H90   S    
C70   C71   A    
C166  C178  A    
C83   C101  S    
Cu3   O37   S    
C18   H40   S    
C164  C180  A    
C129  C132  A    
Cu5   Cu7   S    
Cu8   O25   S    
Cu5   O15   S    
C35   C189  A    
C169  H17   S    
C1    C199  S    
C151  O7    A    
C6    C9    T    
C103  C124  S    
C55   H72   S    
C171  C184  A    
C153  O11   A    
C84   C85   A    
C58   H73   S    
C86   C87   A    
C142  C176  A    
C58   C59   A    
C53   C54   A    
C197  O33   A    
C60   C61   A    
C176  C205  S    
C89   C95   A    
C52   H68   S    
C136  C154  A    
C126  C194  A    
Cu3   Cu4   S    
C90   C194  A    
C68   C190  A    
C146  O47   A    
C50   C51   A    
C17   C198  S    
C168  H102  S    
C4    C11   T    
C121  C122  A    
C131  H27   S    
C119  H12   S    
C81   H93   S    
C48   C49   A    
C31   H51   S    
C57   C134  A    
C32   H52   S    
Cu7   O17   S    
C44   C45   A    
C28   H49   S    
C145  C189  S    
C46   C192  A    
Cu11  O4    S    
C119  C120  A    
C148  O34   A    
C167  C172  A    
C16   C161  S    
C105  C106  A    
C17   C22   A    
C200  O31   A    
C32   C33   A    
C145  O1    A    
C156  O16   A    
C109  C110  A    
Cu11  O21   S    
C46   C133  A    
C148  O45   A    
C98   H107  S    
C92   C93   A    
C149  O5    A    
C111  C114  A    
C94   C95   A    
C53   H70   S    
C112  C128  A    
C103  C104  A    
C128  H23   S    
Cu12  O28   S    
C123  C193  A    
C134  H29   S    
C97   H106  S    
C172  H58   S    
C101  C195  A    
C76   C90   S    
C205  O43   A    
C170  C173  A    
C2    C128  A    
C99   H108  S    
C93   C94   A    
C170  C183  A    
C81   C82   A    
C130  H26   S    
C34   H54   S    
C159  O19   A    
C29   H50   S    
C16   C206  T    
C159  O21   A    
Cu12  O29   S    
Cu2   Cu12  S    
C48   H65   S    
C118  C119  A    
C84   H95   S    
C3    C12   T    
C120  H14   S    
Cu9   O2    S    
Cu11  O8    S    
C121  H15   S    
Cu8   O7    S    
C199  O28   A    
C147  O46   A    
C103  C108  A    
C36   H55   S    
Cu7   O13   S    
C41   C42   A    
C166  C181  A    
C139  C187  A    
C73   H86   S    
C133  C143  A    
C74   C75   A    
C67   H82   S    
Cu10  O3    S    
C47   C48   A    
C63   C69   A    
C7    C188  S    
C76   C77   A    
C173  C184  A    
C10   C156  S    
C152  O6    A    
C178  H47   S    
C43   C49   A    
C158  O20   A    
Cu12  O27   S    
C123  C140  A    
C152  O4    A    
C67   C69   A    
C204  O38   A    
Cu5   O45   S    
Cu1   Cu6   S    
C19   H41   S    
C39   H57   S    
C99   C100  A    
C125  C142  A    
C96   C97   A    
C100  C102  A    
C33   C34   A    
C102  H110  S    
C136  H31   S    
C199  O32   A    
C4    C184  S    
C130  C143  A    
C163  H18   S    
C179  H36   S    
C72   H85   S    
C109  C125  S    
C40   C41   A    
C201  O35   A    
C138  C176  A    
C112  C135  A    
C70   C75   A    
C90   C137  A    
Cu1   O1    S    
Cu6   O14   S    
C147  O23   A    
C105  H112  S    
C13   C129  A    
C63   C68   S    
C31   C32   A    
C1    C127  A    
C80   C81   A    
C150  O8    A    
C155  O10   A    
C25   H45   S    
Cu9   O6    S    
Cu9   Cu11  S    
C46   C50   S    
C50   C55   A    
C13   C191  A    
C111  H7    S    
C5    C10   T    
Cu2   O31   S    
Cu6   O23   S    
C38   H56   S    
C82   H94   S    
C56   C62   A    
C23   C25   A    
C115  H9    S    
C47   H64   S    
Cu11  O26   S    
C157  O15   A    
C65   C66   A    
C27   C28   A    
C146  C190  S    
C74   H87   S    
C140  C154  A    
