data_mof_unit_pretest_1087.cif
_audit_creation_date              2013-03-05T15:54:21-0500
_audit_creation_method            fapswitch 2.2
_symmetry_space_group_name_H-M    P1
_symmetry_Int_Tables_number       1
_space_group_crystal_system       triclinic
_cell_length_a                    13.568252
_cell_length_b                    13.584513
_cell_length_c                    28.433342
_cell_angle_alpha                 90.336225
_cell_angle_beta                  90.204779
_cell_angle_gamma                 60.144177
_cell_volume                      4545.14806935

loop_
_atom_site_label
_atom_site_type_symbol
_atom_site_description
_atom_site_fract_x
_atom_site_fract_y
_atom_site_fract_z
_atom_type_partial_charge
O1    O     O_R   0.503010 0.303330 0.550820 -0.539368
O2    O     O_R   0.320040 0.522690 0.547470 -0.544742
C1    C     C_R   0.279330 0.620760 0.566372 0.802904
O3    O     O_R   0.303930 0.694040 0.551750 -0.516608
O4    O     O_R   0.523510 0.657900 0.548240 -0.520853
C2    C     C_R   0.621358 0.600475 0.566904 0.792726
O5    O     O_R   0.694770 0.503160 0.551780 -0.546541
O6    O     O_R   0.657990 0.319990 0.547370 -0.532372
C3    C     C_R   0.600790 0.279260 0.565877 0.806218
O7    O     O_R   0.501900 0.302960 0.447930 -0.541761
O8    O     O_R   0.319020 0.522350 0.452090 -0.544728
C4    C     C_R   0.276810 0.620957 0.434448 0.793412
O9    O     O_R   0.302820 0.693680 0.448870 -0.518983
O10   O     O_R   0.522480 0.657560 0.452870 -0.519931
C5    C     C_R   0.620361 0.600464 0.434159 0.788033
O11   O     O_R   0.693670 0.502790 0.448900 -0.545409
O12   O     O_R   0.656970 0.319650 0.452000 -0.531141
C6    C     C_R   0.600441 0.277408 0.433795 0.803393
Cr1   Cr    Cr6+3 0.413560 0.417690 0.499580 0.958229
Cr2   Cr    Cr6+3 0.418030 0.668340 0.500400 1.028972
Cr3   Cr    Cr6+3 0.668390 0.413960 0.499990 0.971091
O13   O     O_3   0.499990 0.499990 0.499990 -0.348131
C7    C     C_3   0.613320 0.764967 0.733503 0.247806
C8    C     C_3   0.549088 0.734702 0.769789 0.223527
C9    C     C_1   0.694707 0.697815 0.888259 -0.149458
C10   C     C_1   0.634894 0.629455 0.613639 -0.097750
C11   C     C_3   0.723030 0.700259 0.761898 0.360108
C12   C     C_3   0.659472 0.670505 0.798816 -0.113793
C13   C     C_3   0.756621 0.588969 0.734515 -0.347785
C14   C     C_3   0.644757 0.655488 0.705611 -0.192263
C15   C     C_3   0.690362 0.560531 0.771457 0.349168
C16   C     C_3   0.580494 0.624384 0.742293 0.238219
C17   C     C_1   0.674224 0.683836 0.848618 0.106856
C18   C     C_1   0.640601 0.644932 0.654827 0.164198
H1    H     H_    0.841745 0.529603 0.719828 0.161696
C19   C     C_1   0.634010 0.230840 0.611623 -0.112556
C20   C     C_R   0.757687 0.182373 0.725979 -0.126656
C21   C     C_R   0.766586 0.168510 0.774771 -0.127253
C22   C     C_R   0.593512 0.157773 0.775522 -0.181039
C23   C     C_R   0.584569 0.170842 0.726529 0.460166
C24   C     C_R   0.667810 0.181850 0.701796 -0.002375
C25   C     C_R   0.683848 0.157287 0.799648 0.018600
C26   C     C_1   0.696589 0.133278 0.849122 -0.010767
C27   C     C_1   0.654181 0.203158 0.652150 0.053827
C28   C     C_1   0.706928 0.104160 0.889586 -0.144975
H2    H     H_    0.821039 0.192873 0.707101 0.180556
H3    H     H_    0.838260 0.165577 0.792944 0.153967
H4    H     H_    0.532051 0.144373 0.794479 0.170825
C29   C     C_1   0.228074 0.638915 0.611725 -0.089415
C30   C     C_R   0.191195 0.568721 0.726709 -0.259136
C31   C     C_R   0.176409 0.573801 0.775446 0.484947
C32   C     C_R   0.124296 0.772719 0.774141 -0.311297
C33   C     C_R   0.136310 0.768872 0.725067 0.384668
C34   C     C_R   0.171676 0.664857 0.701400 -0.036729
C35   C     C_R   0.146661 0.675582 0.799353 0.004224
C36   C     C_1   0.128986 0.684788 0.849288 0.022743
C37   C     C_1   0.196977 0.651954 0.651973 0.096628
C38   C     C_1   0.103873 0.699750 0.890224 -0.151883
H5    H     H_    0.217617 0.489563 0.708490 0.133088
H6    H     H_    0.097975 0.851755 0.792821 0.174714
C39   C     C_1   0.637711 0.635760 0.389215 -0.099572
C40   C     C_R   0.757276 0.606525 0.276653 0.392988
C41   C     C_R   0.761248 0.608962 0.227634 -0.219077
C42   C     C_R   0.566678 0.763092 0.225567 -0.227405
C43   C     C_R   0.560094 0.762176 0.274938 0.326941
C44   C     C_R   0.655665 0.680315 0.300412 -0.108771
C45   C     C_R   0.666340 0.686604 0.202078 0.024329
C46   C     C_1   0.676318 0.694508 0.152105 0.001565
C47   C     C_1   0.646995 0.659556 0.349426 0.114159
C48   C     C_1   0.693232 0.703133 0.111192 -0.157084
H7    H     H_    0.838802 0.550160 0.209548 0.130121
H8    H     H_    0.494479 0.823980 0.205349 0.157750
C49   C     C_1   0.635412 0.225124 0.389047 -0.128632
C50   C     C_R   0.617197 0.120335 0.278074 -0.324153
C51   C     C_R   0.616414 0.112556 0.228780 0.445817
C52   C     C_R   0.733530 0.202078 0.224236 -0.284733
C53   C     C_R   0.732883 0.211011 0.273174 0.427785
C54   C     C_R   0.673327 0.170910 0.299914 -0.003922
C55   C     C_R   0.676246 0.152803 0.202396 0.003807
C56   C     C_1   0.685685 0.134603 0.152853 0.051096
C57   C     C_1   0.657142 0.194380 0.349054 0.038959
C58   C     C_1   0.696306 0.106797 0.112426 -0.134060
H9    H     H_    0.573076 0.088687 0.299423 0.152825
H10   H     H_    0.779399 0.232782 0.203429 0.152730
C59   C     C_1   0.221937 0.639475 0.390260 -0.109616
C60   C     C_R   0.128778 0.765446 0.278845 0.353177
C61   C     C_R   0.126407 0.767901 0.229391 0.260524
C62   C     C_R   0.172701 0.569348 0.227500 0.402285
C63   C     C_R   0.183089 0.565091 0.276342 -0.331555
C64   C     C_R   0.160256 0.662421 0.301866 -0.119302
C65   C     C_R   0.147247 0.669767 0.204070 -0.133891
C66   C     C_1   0.127851 0.677494 0.154539 0.069355
C67   C     C_1   0.188014 0.650833 0.350692 0.100010
C68   C     C_1   0.101128 0.694065 0.114042 -0.152172
H11   H     H_    0.209533 0.485553 0.294258 0.167801
O14   O     O_R   0.035380 0.825870 0.952240 -0.542548
O15   O     O_R   0.818010 0.012400 0.954990 -0.536671
C69   C     C_R   0.720764 0.055136 0.935234 0.797745
O16   O     O_R   0.644810 0.033340 0.949080 -0.537665
O17   O     O_R   0.674910 0.816000 0.950960 -0.527452
C70   C     C_R   0.730035 0.717161 0.932745 0.795948
O18   O     O_R   0.827060 0.642880 0.947470 -0.548660
O19   O     O_R   0.013800 0.673690 0.954100 -0.534947
C71   C     C_R   0.057316 0.729503 0.936448 0.796775
O20   O     O_R   0.031250 0.825430 0.055080 -0.541841
O21   O     O_R   0.814180 0.011990 0.050320 -0.536118
C72   C     C_R   0.714403 0.056440 0.067259 0.796686
O22   O     O_R   0.640680 0.032900 0.051920 -0.537604
O23   O     O_R   0.671090 0.815590 0.046300 -0.531069
C73   C     C_R   0.725781 0.717536 0.065039 0.795235
O24   O     O_R   0.822940 0.642440 0.050310 -0.545381
O25   O     O_R   0.009970 0.673280 0.049430 -0.534689
C74   C     C_R   0.053421 0.727776 0.068633 0.796391
Cr4   Cr    Cr6+3 0.919710 0.916540 0.003080 0.950040
Cr5   Cr    Cr6+3 0.665300 0.919470 0.999630 0.966574
Cr6   Cr    Cr6+3 0.916060 0.665490 0.000390 0.945451
O26   O     O_3   0.833690 0.833830 0.001040 -0.338728
O27   O     O_3   0.445020 0.811107 0.791431 -0.534602
C75   C     C_3   0.356552 0.855830 0.757922 0.222164
H12   H     H_    0.321915 0.797623 0.753839 0.174650
H13   H     H_    0.383658 0.869000 0.722712 0.159332
C76   C     C_3   0.262544 0.970280 0.775426 -0.645713
H14   H     H_    0.297031 0.028130 0.781889 0.235410
H15   H     H_    0.194304 0.009295 0.748637 0.230742
H16   H     H_    0.226109 0.959454 0.808609 0.209996
O28   O     O_3   0.503191 0.158537 0.702014 -0.506574
C77   C     C_3   0.397291 0.258568 0.706425 0.121931
H17   H     H_    0.401346 0.331850 0.691187 0.127234
H18   H     H_    0.369983 0.276778 0.743875 0.144271
C78   C     C_3   0.309032 0.242940 0.679355 -0.610599
H19   H     H_    0.303025 0.170566 0.694124 0.246710
H20   H     H_    0.224501 0.320669 0.681919 0.149015
H21   H     H_    0.333490 0.225596 0.641699 0.234502
O29   O     O_3   0.198263 0.476861 0.799609 -0.558479
C79   C     C_3   0.094888 0.478986 0.809348 0.082950
H22   H     H_    0.019756 0.566099 0.812709 0.135180
H23   H     H_    0.104130 0.437202 0.843813 0.161612
C80   C     C_3   0.071296 0.412170 0.772127 -0.745881
H24   H     H_    0.144915 0.324749 0.769182 0.234254
H25   H     H_    0.994883 0.407174 0.782158 0.223055
H26   H     H_    0.055580 0.454863 0.737532 0.197846
N1    N     N_R   0.111555 0.870823 0.700293 0.059647
O30   O     O_R   0.171078 0.867255 0.663886 -0.370343
O31   O     O_R   0.034555 0.969246 0.716367 -0.415046
O32   O     O_3   0.850611 0.524879 0.300791 -0.551358
C81   C     C_3   0.912045 0.575120 0.319194 0.080286
H27   H     H_    0.858177 0.648355 0.342673 0.132986
H28   H     H_    0.945968 0.604731 0.290285 0.115432
C82   C     C_3   0.011199 0.487576 0.348153 -0.700788
H29   H     H_    0.068969 0.414362 0.325650 0.214636
H30   H     H_    0.059445 0.526324 0.363393 0.185868
H31   H     H_    0.979179 0.456927 0.377258 0.231413
N2    N     N_R   0.456959 0.844212 0.298232 0.094170
O33   O     O_R   0.363407 0.900906 0.274346 -0.379087
O34   O     O_R   0.458407 0.873054 0.341840 -0.368470
N3    N     N_R   0.571413 0.878473 0.714998 0.103344
O35   O     O_R   0.535836 0.963499 0.744072 -0.359458
O36   O     O_R   0.562241 0.896511 0.669924 -0.370530
O37   O     O_3   0.565597 0.059207 0.205288 -0.551558
C83   C     C_3   0.455535 0.094259 0.222741 0.112097
H32   H     H_    0.410466 0.184484 0.234945 0.127437
H33   H     H_    0.461402 0.038186 0.252193 0.176701
C84   C     C_3   0.384602 0.083597 0.183661 -0.667176
H34   H     H_    0.429438 0.997259 0.167990 0.221945
H35   H     H_    0.301870 0.099858 0.198071 0.188392
H36   H     H_    0.369229 0.146214 0.155606 0.219251
O38   O     O_3   0.784616 0.265401 0.294364 -0.553605
C85   C     C_3   0.899588 0.184314 0.302608 0.129047
H37   H     H_    0.942497 0.137196 0.269803 0.162051
H38   H     H_    0.905989 0.123111 0.329976 0.184579
C86   C     C_3   0.962202 0.244157 0.320128 -0.606202
H39   H     H_    0.919493 0.295847 0.351857 0.234977
H40   H     H_    0.051147 0.180442 0.329243 0.214352
H41   H     H_    0.963590 0.300083 0.292141 0.236487
N4    N     N_R   0.100153 0.866725 0.305471 0.107163
O39   O     O_R   0.132365 0.937218 0.291401 -0.352033
O40   O     O_R   0.040187 0.889807 0.343756 -0.396556
O41   O     O_3   0.090717 0.869854 0.206425 -0.529690
C87   C     C_3   0.185986 0.869980 0.186505 0.181472
H42   H     H_    0.217762 0.812757 0.155378 0.096130
H43   H     H_    0.256700 0.842936 0.212308 0.171719
C88   C     C_3   0.151095 0.989499 0.170370 -0.655742
H44   H     H_    0.123195 0.048417 0.200982 0.240405
H45   H     H_    0.224283 0.989909 0.153238 0.162667
H46   H     H_    0.080205 0.019172 0.144674 0.216696
O42   O     O_3   0.190717 0.474294 0.202415 -0.541157
C89   C     C_3   0.088607 0.470397 0.202199 0.099843
H47   H     H_    0.014285 0.553653 0.192030 0.113371
H48   H     H_    0.073337 0.445517 0.237450 0.134048
C90   C     C_3   0.097773 0.382418 0.166568 -0.689846
H49   H     H_    0.168190 0.297453 0.176439 0.218394
H50   H     H_    0.017284 0.379783 0.165828 0.176070
H51   H     H_    0.114077 0.404457 0.130970 0.229933
N5    N     N_R   0.502069 0.582962 0.731653 0.078002
O43   O     O_R   0.444371 0.570581 0.765220 -0.411033
O44   O     O_R   0.485849 0.562455 0.688445 -0.389301
O45   O     O_3   0.736996 0.450879 0.790877 -0.545163
C91   C     C_3   0.663144 0.446577 0.824745 0.167420
H52   H     H_    0.624153 0.398377 0.809707 0.179945
H53   H     H_    0.592631 0.530998 0.836259 0.135778
C92   C     C_3   0.731297 0.384860 0.868166 -0.754341
H54   H     H_    0.768268 0.433594 0.884588 0.225689
H55   H     H_    0.675061 0.376143 0.894058 0.185591
H56   H     H_    0.801143 0.299013 0.858501 0.229030
O46   O     O_3   0.795671 0.742704 0.774307 -0.540169
C93   C     C_3   0.850758 0.752834 0.734022 0.092735
H57   H     H_    0.815092 0.744326 0.699788 0.131409
H58   H     H_    0.941470 0.685728 0.735131 0.110643
C94   C     C_3   0.843159 0.868260 0.734755 -0.588822
H59   H     H_    0.880353 0.879570 0.767787 0.220240
H60   H     H_    0.889449 0.875910 0.704175 0.195619
H61   H     H_    0.752956 0.935915 0.732515 0.255999

loop_
_geom_bond_atom_site_label_1
_geom_bond_atom_site_label_2
_geom_bond_distance
_ccdc_geom_bond_type
C79   C80   1.523788 S    
N5    O44   1.300165 A    
C35   C36   1.435095 S    
C70   O18   1.266886 A    
C61   C65   1.410784 A    
C11   C13   1.549925 S    
C92   H54   1.110530 S    
C84   H34   1.108898 S    
C54   C57   1.424566 S    
C52   C55   1.395528 A    
C15   O45   1.411676 S    
C50   H9    1.083322 S    
C86   H39   1.110826 S    
C52   H10   1.084110 S    
C77   H18   1.113924 S    
O32   C81   1.411918 S    
C1    C29   1.428041 S    
C79   H22   1.116694 S    
N4    O40   1.301391 A    
O4    Cr2   1.924821 S    
C53   C54   1.405468 A    
C86   H40   1.110476 S    
O8    Cr1   1.919501 S    
C40   C41   1.396226 A    
C4    C59   1.416597 S    
O21   Cr4   1.918453 S    
C30   H5    1.078973 S    
O22   Cr5   2.039760 S    
O20   C74   1.267542 A    
N3    O35   1.298849 A    
C84   H35   1.109981 S    
C20   C21   1.397847 A    
C33   N1    1.440024 S    
C28   C69   1.430848 S    
C82   H30   1.109835 S    
O16   Cr5   2.032487 S    
O4    C2    1.273358 A    
C31   O29   1.383656 S    
C93   H58   1.108978 S    
C44   C47   1.440266 S    
O21   C72   1.271495 A    
C51   O37   1.391184 S    
C5    O11   1.270863 A    
C94   H61   1.107634 S    
C29   C37   1.202348 T    
Cr6   O26   1.983420 S    
C60   N4    1.440408 S    
O27   C75   1.410754 S    
C89   C90   1.519530 S    
C43   N2    1.443640 S    
C32   H6    1.084103 S    
C90   H51   1.110921 S    
C94   H60   1.109630 S    
C88   H44   1.110860 S    
C59   C67   1.195402 T    
C10   C18   1.197636 T    
C85   C86   1.520081 S    
C15   C16   1.540922 S    
O6    C3    1.272504 A    
Cr5   O26   1.982075 S    
C40   O32   1.381733 S    
C3    C19   1.427695 S    
C7    C8    1.536610 S    
C91   H52   1.109701 S    
C7    C11   1.528831 S    
N2    O34   1.301188 A    
C48   C73   1.431299 S    
C65   C66   1.426638 S    
C32   C35   1.399310 A    
C87   C88   1.520724 S    
C62   O42   1.382744 S    
N5    O43   1.300141 A    
N2    O33   1.300877 A    
Cr3   O13   1.981890 S    
C92   H55   1.110484 S    
O14   Cr4   2.034828 S    
O17   Cr5   1.924504 S    
C49   C57   1.195246 T    
O25   C74   1.273277 A    
C68   C74   1.414759 S    
O19   C71   1.275815 A    
O15   C69   1.276478 A    
C22   C25   1.399616 A    
C81   H28   1.113664 S    
C75   H13   1.113452 S    
C86   H41   1.110040 S    
C41   C45   1.395968 A    
O1    Cr1   2.036111 S    
N1    O30   1.301027 A    
C42   C45   1.397720 A    
C14   C18   1.453893 S    
C45   C46   1.437534 S    
C7    C14   1.542633 S    
O41   C87   1.413902 S    
O20   Cr4   2.036871 S    
Cr1   O13   1.982529 S    
O1    C3    1.271229 A    
C52   C53   1.395708 A    
C94   H59   1.110161 S    
C83   C84   1.520292 S    
C50   C51   1.405349 A    
C82   H31   1.110687 S    
O38   C85   1.411161 S    
C40   C44   1.408788 A    
C93   H57   1.116239 S    
C30   C31   1.397271 A    
O46   C93   1.414210 S    
O12   Cr3   1.924291 S    
C73   O24   1.270392 A    
C11   O46   1.410438 S    
C88   H46   1.110792 S    
C83   H33   1.111063 S    
C63   H11   1.083897 S    
C78   H20   1.108897 S    
C8    C16   1.546434 S    
C90   H49   1.108035 S    
C13   C14   1.558823 S    
O10   Cr2   1.913384 S    
C81   C82   1.520800 S    
O37   C83   1.413373 S    
C62   C65   1.401399 A    
O7    Cr1   2.036730 S    
C72   O22   1.267593 A    
C23   O28   1.381975 S    
C84   H36   1.110620 S    
C91   C92   1.521301 S    
C66   C68   1.194497 T    
O12   C6    1.271778 A    
C5    C39   1.428328 S    
C30   C34   1.399581 A    
C58   C72   1.414999 S    
C4    O9    1.268851 A    
C26   C28   1.203649 T    
C21   H3    1.082765 S    
C2    O5    1.268885 A    
C80   H25   1.110543 S    
O42   C89   1.412543 S    
C16   N5    1.460238 S    
C23   C24   1.402704 A    
Cr2   O13   1.983584 S    
C12   C17   1.452267 S    
C69   O16   1.269951 A    
C6    C49   1.416551 S    
O14   C71   1.268882 A    
C60   C64   1.408265 A    
C24   C27   1.435352 S    
N1    O31   1.301353 A    
C19   C27   1.201884 T    
C78   H21   1.110732 S    
C38   C71   1.426623 S    
C25   C26   1.436197 S    
C76   H15   1.108831 S    
C1    O3    1.269602 A    
C63   C64   1.397613 A    
O25   Cr6   1.923242 S    
C32   C33   1.403060 A    
C64   C67   1.426105 S    
C81   H27   1.114153 S    
C75   C76   1.520820 S    
C39   C47   1.202557 T    
C79   H23   1.110405 S    
C85   H37   1.115586 S    
C90   H50   1.110470 S    
O9    Cr2   2.040245 S    
O2    Cr1   1.919982 S    
C60   C61   1.406601 A    
C12   C15   1.542065 S    
C8    C12   1.544030 S    
C41   H7    1.082573 S    
C80   H26   1.109710 S    
O6    Cr3   1.914477 S    
C75   H12   1.108200 S    
O11   Cr3   2.029841 S    
C33   C34   1.412702 A    
O29   C79   1.416765 S    
O3    Cr2   2.030370 S    
C87   H42   1.111052 S    
C53   O38   1.381925 S    
C13   H1    1.109437 S    
C8    O27   1.410410 S    
O24   Cr6   2.030032 S    
C42   C43   1.407460 A    
C76   H16   1.110661 S    
N3    O36   1.300072 A    
C78   H19   1.111075 S    
O15   Cr4   1.920382 S    
C77   C78   1.521897 S    
C89   H47   1.116185 S    
C13   C15   1.555029 S    
N4    O39   1.300214 A    
O5    Cr3   2.042544 S    
C82   H29   1.110369 S    
C83   H32   1.116634 S    
C61   O41   1.385528 S    
C14   C16   1.550858 S    
C93   C94   1.519345 S    
C9    C70   1.419830 S    
C2    C10   1.420776 S    
O7    C6    1.268775 A    
O28   C77   1.407884 S    
C85   H38   1.113350 S    
O17   C70   1.274831 A    
C92   H56   1.109672 S    
C56   C58   1.194422 T    
C36   C38   1.201374 T    
O2    C1    1.276663 A    
C31   C35   1.404288 A    
C42   H8    1.081240 S    
C20   C24   1.400905 A    
O45   C91   1.414476 S    
C88   H45   1.110141 S    
C89   H48   1.112173 S    
Cr4   O26   1.983029 S    
O18   Cr6   2.041456 S    
C80   H24   1.110612 S    
O23   Cr5   1.915535 S    
C55   C56   1.423921 S    
C22   C23   1.402529 A    
C21   C25   1.400409 A    
C62   C63   1.394027 A    
C46   C48   1.204119 T    
C43   C44   1.417673 A    
C50   C54   1.396494 A    
O23   C73   1.276785 A    
C11   C12   1.538648 S    
C76   H14   1.110910 S    
O10   C5    1.273975 A    
C91   H53   1.114961 S    
O19   Cr6   1.914346 S    
C20   H2    1.083327 S    
C7    N3    1.453332 S    
C51   C55   1.404214 A    
C77   H17   1.114239 S    
O8    C4    1.271215 A    
C9    C17   1.196451 T    
C22   H4    1.083782 S    
C87   H43   1.113998 S    
C34   C37   1.436783 S    
