data_mof_unit_pretest_835.cif
_audit_creation_date              2012-12-10T18:52:10-0500
_audit_creation_method            fapswitch 2.2
_symmetry_space_group_name_H-M    P1
_symmetry_Int_Tables_number       1
_space_group_crystal_system       triclinic
_cell_length_a                    15.698416
_cell_length_b                    10.654979
_cell_length_c                    9.946301
_cell_angle_alpha                 90.498813
_cell_angle_beta                  90.281794
_cell_angle_gamma                 91.38011
_cell_volume                      1663.1133701

loop_
_atom_site_label
_atom_site_type_symbol
_atom_type_description
_atom_site_fract_x
_atom_site_fract_y
_atom_site_fract_z
_atom_type_partial_charge
C1    C     C_R   0.499922 0.260637 0.499166 0.966956
C2    C     C_R   0.500079 0.739363 0.500834 0.966961
C3    C     C_R   0.574737 0.938038 0.459730 -0.083403
C4    C     C_R   0.425264 0.061962 0.540272 -0.083406
C5    C     C_R   0.501352 0.872031 0.503512 -0.094028
C6    C     C_R   0.498649 0.127969 0.496489 -0.094029
C7    C     C_R   0.555571 0.575844 0.073463 -0.068585
C8    C     C_R   0.444430 0.424155 0.926538 -0.068586
C9    C     C_R   0.555429 0.576675 0.930067 0.197146
C10   C     C_R   0.444572 0.423324 0.069933 0.197120
C11   C     C_R   0.338138 0.499948 0.499679 0.973209
C12   C     C_R   0.661862 0.500051 0.500321 0.973210
C13   C     C_3   0.969586 0.384863 0.532648 -0.285248
C14   C     C_3   0.030414 0.615137 0.467354 -0.285250
C15   C     C_3   0.026101 0.415427 0.409677 0.172148
C16   C     C_3   0.973899 0.584573 0.590324 0.172148
C17   C     C_1   0.249190 0.499575 0.499154 -0.026908
C18   C     C_1   0.750810 0.500425 0.500847 -0.026915
C19   C     C_3   0.027895 0.469549 0.622709 0.180194
C20   C     C_3   0.972105 0.530451 0.377293 0.180191
C21   C     C_3   0.082971 0.499430 0.499916 -0.024021
C22   C     C_3   0.917030 0.500570 0.500085 -0.024021
C23   C     C_1   0.173865 0.499490 0.499353 0.080585
C24   C     C_1   0.826136 0.500510 0.500648 0.080584
C25   C     C_R   0.572670 0.067983 0.454715 0.031540
C26   C     C_R   0.427331 0.932018 0.545286 0.031541
H1    H     H_    0.942824 0.290966 0.559196 0.205764
H2    H     H_    0.057176 0.709034 0.440806 0.205764
N1    N     N_R   0.499980 0.499970 0.857200 -0.153186
N2    N     N_R   0.500020 0.500030 0.142800 -0.153184
O1    O     O_R   0.499990 0.316750 0.614620 -0.660082
O2    O     O_R   0.500010 0.683250 0.385380 -0.660086
O3    O     O_R   0.500000 0.316780 0.385290 -0.578882
O4    O     O_R   0.500000 0.683220 0.614710 -0.578885
O5    O     O_R   0.376780 0.499970 0.614640 -0.588874
O6    O     O_R   0.623220 0.500030 0.385360 -0.588893
O7    O     O_R   0.376780 0.500000 0.385310 -0.599014
O8    O     O_R   0.623220 0.500000 0.614690 -0.599012
Zn1   Zn    Zn3+2 0.500000 0.499980 0.653120 1.027576
Zn2   Zn    Zn3+2 0.500000 0.500020 0.346880 1.027568
I1    I     I_    0.070630 0.279353 0.269011 -0.148157
I2    I     I_    0.929370 0.720647 0.730991 -0.148152
I3    I     I_    0.925402 0.581591 0.183521 -0.116937
I4    I     I_    0.074600 0.418409 0.816480 -0.116945
I5    I     I_    0.683955 0.174447 0.394568 -0.326605
I6    I     I_    0.316046 0.825555 0.605433 -0.326598
C27   C     C_2   0.654203 0.873246 0.422360 0.437972
H3    H     H_    0.693061 0.907287 0.339942 0.118197
O9    O     O_2   0.678372 0.783094 0.485512 -0.563804
C28   C     C_2   0.345800 0.126755 0.577646 0.437994
H4    H     H_    0.306947 0.092722 0.660073 0.118187
O10   O     O_2   0.321626 0.216898 0.514484 -0.563790
C29   C     C_2   0.615414 0.658419 0.148409 0.556360
H5    H     H_    0.592884 0.742776 0.196276 0.038082
O11   O     O_2   0.690979 0.634379 0.153586 -0.517844
C30   C     C_2   0.384588 0.341578 0.851593 0.556409
H6    H     H_    0.407111 0.257214 0.803759 0.038057
O12   O     O_2   0.309033 0.365628 0.846378 -0.517871
I7    I     I_    0.640998 0.704856 0.832474 -0.150119
I8    I     I_    0.359003 0.295142 0.167526 -0.150142

loop_
_geom_bond_atom_site_label_1
_geom_bond_atom_site_label_2
_ccdc_geom_bond_type
O5    Zn1   S    
C10   I8    S    
C11   O7    A    
C25   I5    S    
C12   O6    A    
C10   N2    A    
C29   O11   D    
C4    C26   A    
C27   H3    S    
C9    N1    A    
C3    C5    A    
C2    O4    A    
C22   C24   S    
C11   O5    A    
C28   H4    S    
C1    O3    A    
C27   O9    D    
C7    N2    A    
C29   H5    S    
C19   I4    S    
C6    C25   A    
C8    C30   S    
C17   C23   T    
C15   C21   S    
C16   C19   S    
C18   C24   T    
C8    N1    A    
C14   C21   S    
C3    C27   S    
C19   C21   S    
C20   C22   S    
C13   C22   S    
O7    Zn2   S    
C7    C9    A    
C13   C15   S    
C21   C23   S    
C12   O8    A    
C15   C20   S    
C7    C29   S    
C14   C16   S    
C20   I3    S    
C28   O10   D    
C2    C5    S    
C13   C19   S    
N2    Zn2   S    
C5    C26   A    
O3    Zn2   S    
C16   I2    S    
C1    O1    A    
O2    Zn2   S    
O8    Zn1   S    
C30   H6    S    
C15   I1    S    
C14   C20   S    
C2    O2    A    
C4    C6    A    
C12   C18   S    
N1    Zn1   S    
O1    Zn1   S    
C26   I6    S    
C11   C17   S    
O6    Zn2   S    
C16   C22   S    
C3    C25   A    
C14   H2    S    
C8    C10   A    
C13   H1    S    
C4    C28   S    
O4    Zn1   S    
C30   O12   D    
C9    I7    S    
C1    C6    S    
