data_mof_unit_pretest_227.cif
_audit_creation_date              2012-12-10T17:46:58-0500
_audit_creation_method            fapswitch 2.2
_symmetry_space_group_name_H-M    P1
_symmetry_Int_Tables_number       1
_space_group_crystal_system       triclinic
_cell_length_a                    9.944043
_cell_length_b                    10.689032
_cell_length_c                    13.633516
_cell_angle_alpha                 92.202669
_cell_angle_beta                  83.562174
_cell_angle_gamma                 93.849924
_cell_volume                      1436.05042464

loop_
_atom_site_label
_atom_site_type_symbol
_atom_type_description
_atom_site_fract_x
_atom_site_fract_y
_atom_site_fract_z
_atom_type_partial_charge
Br1   Br    Br    0.796841 0.899576 0.535102 -0.503865
Br2   Br    Br    0.146365 0.178714 0.575373 -0.415938
Br3   Br    Br    0.855903 0.334652 0.330936 -0.542438
C1    C     C_R   0.505999 0.740002 0.492680 0.913328
C2    C     C_R   0.619247 0.949299 0.520356 0.235056
C3    C     C_R   0.599351 0.073548 0.539755 -0.185274
C4    C     C_R   0.476473 0.499857 0.685216 0.880938
C5    C     C_R   0.481688 0.125042 0.516796 -0.105119
C6    C     C_R   0.849783 0.649311 0.640173 -0.049632
C7    C     C_R   0.913420 0.719303 0.711881 -0.120753
C8    C     C_R   0.052583 0.720118 0.711610 -0.193863
C9    C     C_R   0.128613 0.650202 0.640190 -0.114783
C10   C     C_R   0.066701 0.572919 0.569601 0.162980
C11   C     C_R   0.922369 0.572602 0.569650 0.102390
C12   C     C_1   0.460219 0.497417 0.788332 -0.161867
C13   C     C_R   0.935162 0.431998 0.432114 0.335247
C14   C     C_R   0.077600 0.431947 0.432571 -0.074715
C15   C     C_R   0.493737 0.259618 0.506624 0.904920
C16   C     C_R   0.523310 0.497005 0.314810 0.940411
C17   C     C_1   0.539445 0.490451 0.211651 -0.160768
C18   C     C_2   0.561111 0.488512 0.019161 0.387949
C19   C     C_2   0.443896 0.493766 0.980262 0.397394
C20   C     C_1   0.449733 0.495201 0.875673 -0.049205
C21   C     C_1   0.551969 0.487315 0.124187 -0.061792
C22   C     C_3   0.235007 0.582236 0.012525 0.096011
C23   C     C_R   0.338924 0.869630 0.367075 0.520751
C24   C     C_3   0.283397 0.715504 0.044824 -0.379262
C25   C     C_3   0.201976 0.814439 0.005025 -0.969470
C26   C     C_3   0.799003 0.523439 0.009340 0.126975
C27   C     C_3   0.809091 0.664646 0.037786 -0.404130
C28   C     C_3   0.854839 0.689523 0.140495 -0.941924
C29   C     C_3   0.511142 0.824277 0.244428 0.040880
C30   C     C_3   0.491464 0.944417 0.189508 -0.409588
C31   C     C_3   0.609933 0.974140 0.111134 -0.908191
C32   C     C_3   0.984844 0.032709 0.302505 0.167795
C33   C     C_3   0.071637 0.099100 0.216522 -0.407776
C34   C     C_R   0.215211 0.912751 0.349704 -0.424580
C35   C     C_3   0.998624 0.094648 0.123711 -0.905036
C36   C     C_R   0.163394 0.018346 0.402653 0.463960
C37   C     C_R   0.242515 0.081900 0.470943 0.246612
C38   C     C_R   0.376728 0.047662 0.478247 -0.130280
C39   C     C_R   0.411100 0.929027 0.441427 -0.103844
C40   C     C_R   0.518213 0.873819 0.478935 -0.159570
H1    H     H_    0.745487 0.664706 0.637794 0.205817
H2    H     H_    0.272737 0.723160 0.126783 0.257501
H3    H     H_    0.392009 0.734913 0.017431 0.214193
H4    H     H_    0.211764 0.808344 0.923093 0.265225
H5    H     H_    0.240572 0.909487 0.028409 0.274159
H6    H     H_    0.093719 0.801361 0.034123 0.274237
H7    H     H_    0.891128 0.502477 0.959059 0.148771
H8    H     H_    0.801396 0.462398 0.073455 0.169145
H9    H     H_    0.881213 0.714876 0.982197 0.206098
H10   H     H_    0.709515 0.705253 0.036884 0.224050
H11   H     H_    0.779369 0.646985 0.197721 0.282377
H12   H     H_    0.854995 0.777462 0.765268 0.156907
H13   H     H_    0.864498 0.792068 0.156331 0.248790
H14   H     H_    0.954073 0.650213 0.145333 0.270220
H15   H     H_    0.539344 0.750247 0.188165 0.174957
H16   H     H_    0.598194 0.839708 0.288831 0.149178
H17   H     H_    0.396363 0.933103 0.153840 0.230882
H18   H     H_    0.483885 0.025650 0.242791 0.217684
H19   H     H_    0.707174 0.978196 0.144286 0.263538
H20   H     H_    0.598415 0.066454 0.079404 0.274874
H21   H     H_    0.611707 0.901670 0.050622 0.254320
H22   H     H_    0.881269 0.066940 0.308484 0.213237
H23   H     H_    0.102491 0.778127 0.765272 0.148459
H24   H     H_    0.968397 0.930299 0.288132 0.119310
H25   H     H_    0.095433 0.198633 0.238254 0.262799
H26   H     H_    0.169080 0.054076 0.198545 0.201292
H27   H     H_    0.973502 0.996009 0.100483 0.252682
H28   H     H_    0.065335 0.140546 0.062872 0.280290
H29   H     H_    0.904005 0.145212 0.137380 0.285221
H30   H     H_    0.235444 0.661622 0.641530 0.193458
H31   H     H_    0.136269 0.376055 0.377743 0.167381
H32   H     H_    0.162183 0.861509 0.294465 0.177707
H33   H     H_    0.680716 0.131745 0.568217 0.216199
H34   H     H_    0.132254 0.560346 0.050728 0.166175
H35   H     H_    0.222479 0.575804 0.932366 0.140122
N1    N     N_R   0.857120 0.501200 0.500900 -0.141767
N2    N     N_R   0.142720 0.501280 0.500940 -0.128874
O1    O     O_R   0.385310 0.683220 0.500000 -0.617220
O2    O     O_3   0.684508 0.491388 0.957843 -0.659108
O3    O     O_3   0.392598 0.776933 0.303287 -0.637706
O4    O     O_3   0.035482 0.061166 0.394586 -0.565161
O5    O     O_R   0.614640 0.683250 0.500010 -0.614162
O6    O     O_R   0.368830 0.499960 0.640340 -0.626832
O7    O     O_R   0.598160 0.499980 0.640350 -0.630852
O8    O     O_R   0.385360 0.316750 0.499990 -0.590662
O9    O     O_R   0.614690 0.316780 0.500000 -0.581608
O10   O     O_R   0.401840 0.500020 0.359650 -0.585783
O11   O     O_R   0.631170 0.500040 0.359660 -0.584550
O12   O     O_3   0.320718 0.492339 0.040755 -0.652623
Zn1   Zn    Zn3+2 0.346870 0.499980 0.499990 0.992434
Zn2   Zn    Zn3+2 0.653130 0.500020 0.500010 0.997285

loop_
_geom_bond_atom_site_label_1
_geom_bond_atom_site_label_2
_ccdc_geom_bond_type
C35   H27   S    
C25   H4    S    
C23   O3    S    
C38   C39   A    
C16   C17   S    
C29   H15   S    
Br1   C2    S    
C36   O4    S    
C27   C28   S    
C4    O6    A    
C32   H22   S    
O7    Zn2   S    
C31   H19   S    
O5    Zn2   S    
O9    Zn2   S    
O8    Zn1   S    
C4    O7    A    
C1    O1    A    
C17   C21   T    
C13   C14   A    
C22   O12   S    
C28   H13   S    
C6    C7    A    
C8    H23   S    
C24   H2    S    
C4    C12   S    
C34   H32   S    
C10   N2    A    
C18   C19   D    
C9    H30   S    
C26   H7    S    
C27   H10   S    
C35   H29   S    
C22   H35   S    
C5    C38   A    
N1    Zn2   S    
C36   C37   A    
C3    C5    A    
C1    O5    A    
C14   N2    A    
C5    C15   S    
C32   C33   S    
C6    C11   A    
C26   C27   S    
O6    Zn1   S    
O1    Zn1   S    
C25   H6    S    
C32   H24   S    
C8    C9    A    
C31   H21   S    
C30   C31   S    
C11   N1    A    
C9    C10   A    
C7    H12   S    
C24   H3    S    
C37   C38   A    
C30   H17   S    
C14   H31   S    
C22   H34   S    
C39   C40   A    
C33   H26   S    
C23   C39   A    
O10   Zn1   S    
C26   H8    S    
C29   O3    S    
C27   H9    S    
C35   H28   S    
C25   H5    S    
C6    H1    S    
C15   O9    A    
C32   O4    S    
C33   H25   S    
C23   C34   A    
C3    H33   S    
C1    C40   S    
C22   C24   S    
C13   N1    A    
C29   C30   S    
C28   H14   S    
C33   C35   S    
C26   O2    S    
C34   C36   A    
C16   O10   A    
O11   Zn2   S    
C2    C3    A    
C12   C20   T    
C31   H20   S    
C28   H11   S    
C2    C40   A    
C15   O8    A    
C16   O11   A    
C7    C8    A    
Br2   C37   S    
C18   O2    S    
C30   H18   S    
C18   C21   S    
C24   C25   S    
C19   O12   S    
C19   C20   S    
C29   H16   S    
N2    Zn1   S    
C10   C11   A    
Br3   C13   S    
