data_mof_unit_pretest_239.cif
_audit_creation_date              2012-12-11T14:42:04-0500
_audit_creation_method            fapswitch 2.2
_symmetry_space_group_name_H-M    P1
_symmetry_Int_Tables_number       1
_space_group_crystal_system       triclinic
_cell_length_a                    18.907766
_cell_length_b                    10.947008
_cell_length_c                    18.702609
_cell_angle_alpha                 89.854029
_cell_angle_beta                  90.310263
_cell_angle_gamma                 90.057921
_cell_volume                      3871.05958318

loop_
_atom_site_label
_atom_site_type_symbol
_atom_type_description
_atom_site_fract_x
_atom_site_fract_y
_atom_site_fract_z
_atom_type_partial_charge
C1    C     C_R   0.727917 0.953636 0.853093 0.551224
C2    C     C_R   0.274204 0.958849 0.144940 0.555934
C3    C     C_R   0.227916 0.453634 0.853094 0.547500
C4    C     C_R   0.774196 0.458825 0.144949 0.544613
C5    C     C_R   0.695641 0.452390 0.038573 -0.154546
C6    C     C_R   0.307792 0.452548 0.959194 -0.137085
C7    C     C_R   0.195668 0.952536 0.038546 -0.154158
C8    C     C_R   0.807732 0.952693 0.959226 -0.138017
C9    C     C_R   0.761853 0.433183 0.070194 0.034952
C10   C     C_R   0.252205 0.399046 0.920232 0.026049
C11   C     C_R   0.261868 0.933239 0.070178 0.033405
C12   C     C_R   0.752207 0.899078 0.920236 0.024875
C13   C     C_R   0.821183 0.409791 0.027631 -0.125049
C14   C     C_R   0.212368 0.304693 0.951029 -0.131238
C15   C     C_R   0.321196 0.909787 0.027622 -0.125785
C16   C     C_R   0.712425 0.804641 0.951009 -0.131168
C17   C     C_R   0.814683 0.403915 0.954637 -0.133459
C18   C     C_R   0.222547 0.273954 0.022145 -0.129453
C19   C     C_R   0.314700 0.903909 0.954628 -0.132443
C20   C     C_R   0.722601 0.773901 0.022127 -0.129308
C21   C     C_R   0.748014 0.414775 0.923069 0.029394
C22   C     C_R   0.273271 0.335626 0.063255 0.023784
C23   C     C_R   0.248035 0.914829 0.923053 0.031761
C24   C     C_R   0.773265 0.835665 0.063260 0.023471
C25   C     C_R   0.547726 0.282475 0.523126 -0.134005
C26   C     C_R   0.531939 0.280750 0.451763 -0.124768
C27   C     C_R   0.966619 0.779627 0.548469 -0.127697
C28   C     C_R   0.950759 0.781489 0.477056 -0.133852
C29   C     C_R   0.514947 0.169934 0.418485 0.034424
C30   C     C_R   0.553223 0.173408 0.561263 0.024463
C31   C     C_R   0.946817 0.672676 0.438738 0.024283
C32   C     C_R   0.985324 0.669248 0.581466 0.031907
C33   C     C_R   0.526621 0.059089 0.454165 -0.142504
C34   C     C_R   0.546949 0.060812 0.525773 -0.134932
C35   C     C_R   0.955049 0.559990 0.473964 -0.125486
C36   C     C_R   0.975813 0.558338 0.545408 -0.128480
C37   C     C_R   0.782555 0.282814 0.522471 -0.133708
C38   C     C_R   0.216309 0.282549 0.477118 -0.131557
C39   C     C_R   0.323029 0.928977 0.552668 -0.123567
C40   C     C_R   0.717606 0.782415 0.477947 -0.133897
C41   C     C_R   0.789848 0.308338 0.450622 -0.127008
C42   C     C_R   0.208009 0.310525 0.548508 -0.122870
C43   C     C_R   0.334511 0.956356 0.481240 -0.132949
C44   C     C_R   0.710325 0.808137 0.549742 -0.127638
C45   C     C_R   0.529994 0.177292 0.851008 0.564456
C46   C     C_R   0.470886 0.177872 0.149616 0.547560
C47   C     C_R   0.029987 0.677292 0.851004 0.553107
C48   C     C_R   0.970878 0.677872 0.149611 0.559445
C49   C     C_R   0.748045 0.399176 0.418623 0.035042
C50   C     C_R   0.252062 0.397610 0.581217 0.028147
C51   C     C_R   0.277032 0.978378 0.435630 0.025724
C52   C     C_R   0.751846 0.899689 0.581336 0.034847
C53   C     C_R   0.694566 0.455708 0.457846 -0.143505
C54   C     C_R   0.309968 0.444989 0.543690 -0.128941
C55   C     C_R   0.208060 0.979751 0.462778 -0.136719
C56   C     C_R   0.804899 0.957048 0.541708 -0.143674
C57   C     C_R   0.688895 0.432826 0.530634 -0.139937
C58   C     C_R   0.319771 0.413257 0.472265 -0.123025
C59   C     C_R   0.196561 0.953901 0.534307 -0.138808
C60   C     C_R   0.810338 0.934366 0.468936 -0.139189
C61   C     C_R   0.732899 0.345764 0.563222 0.031793
C62   C     C_R   0.270564 0.336661 0.437732 0.022191
C63   C     C_R   0.253779 0.923709 0.578888 0.030184
C64   C     C_R   0.766781 0.846271 0.436785 0.030612
C65   C     C_R   0.738466 0.365453 0.852156 0.560204
C66   C     C_R   0.276416 0.311579 0.140066 0.568257
C67   C     C_R   0.238470 0.865464 0.852153 0.547570
C68   C     C_R   0.776413 0.811589 0.140065 0.569007
C69   C     C_R   0.729030 0.951889 0.648837 0.532500
C70   C     C_R   0.290210 0.000738 0.360264 0.544957
C71   C     C_R   0.228831 0.452341 0.648336 0.549517
C72   C     C_R   0.770959 0.451746 0.351139 0.537031
C73   C     C_R   0.564634 0.180721 0.637703 0.549689
C74   C     C_R   0.473110 0.176313 0.353500 0.535154
C75   C     C_R   0.026975 0.676293 0.646475 0.551264
C76   C     C_R   0.935373 0.680417 0.362300 0.551405
C77   C     C_R   0.726309 0.314914 0.638572 0.541890
C78   C     C_R   0.274788 0.311278 0.361191 0.547686
C79   C     C_R   0.240096 0.865000 0.647188 0.548527
C80   C     C_R   0.773558 0.815075 0.361545 0.543524
C81   C     C_2   0.499041 0.166596 0.922058 -0.115907
C82   C     C_2   0.504881 0.170299 0.079960 -0.104303
C83   C     C_2   0.999013 0.666593 0.922043 -0.113546
C84   C     C_2   0.004849 0.670301 0.079942 -0.103050
C85   C     C_2   0.500183 0.068488 0.040560 -0.159443
C86   C     C_2   0.514651 0.069600 0.963619 -0.164017
C87   C     C_2   0.000146 0.568488 0.040545 -0.160111
C88   C     C_2   0.014608 0.569591 0.963603 -0.162578
C89   C     C_R   0.688598 0.442847 0.964851 -0.141990
C90   C     C_R   0.318619 0.420322 0.030487 -0.134252
C91   C     C_R   0.188627 0.942995 0.964824 -0.141025
C92   C     C_R   0.818554 0.920476 0.030519 -0.135403
Cr1   Cr    Cr6+3 0.769270 0.163730 0.750710 1.003583
Cr2   Cr    Cr6+3 0.230730 0.163730 0.249290 1.014321
Cr3   Cr    Cr6+3 0.269270 0.663730 0.750710 1.021400
Cr4   Cr    Cr6+3 0.730730 0.663730 0.249290 1.002302
Cr5   Cr    Cr6+3 0.612620 0.009790 0.748780 1.005361
Cr6   Cr    Cr6+3 0.387380 0.009790 0.251220 1.009637
Cr7   Cr    Cr6+3 0.112620 0.509790 0.748780 1.016686
Cr8   Cr    Cr6+3 0.887380 0.509790 0.251220 1.012004
Cr9   Cr    Cr6+3 0.614160 0.322500 0.747710 1.007056
Cr10  Cr    Cr6+3 0.385840 0.322500 0.252290 1.012997
Cr11  Cr    Cr6+3 0.114160 0.822500 0.747710 1.012595
Cr12  Cr    Cr6+3 0.885840 0.822500 0.252290 1.012658
H1    H     H_    0.484645 0.982432 0.064679 0.143632
H2    H     H_    0.539924 0.989181 0.941442 0.158193
H3    H     H_    0.984623 0.482430 0.064671 0.143572
H4    H     H_    0.039877 0.489167 0.941427 0.158569
H5    H     H_    0.831290 0.262306 0.421375 0.130817
H6    H     H_    0.163606 0.270392 0.576437 0.133204
H7    H     H_    0.387993 0.956872 0.461030 0.121747
H8    H     H_    0.669228 0.761405 0.579320 0.128923
H9    H     H_    0.659832 0.521956 0.433155 0.112756
H10   H     H_    0.345060 0.511326 0.568071 0.130840
H11   H     H_    0.162810 0.997179 0.428512 0.134882
H12   H     H_    0.839559 0.023560 0.566124 0.111172
H13   H     H_    0.650972 0.484467 0.561349 0.118299
H14   H     H_    0.363570 0.453329 0.443396 0.137479
H15   H     H_    0.142594 0.949386 0.553331 0.133535
H16   H     H_    0.847922 0.986659 0.437931 0.119344
H17   H     H_    0.649825 0.473863 0.070705 0.118358
H18   H     H_    0.339808 0.524577 0.936196 0.132470
H19   H     H_    0.149855 0.974070 0.070670 0.119882
H20   H     H_    0.839698 0.024801 0.936250 0.132281
H21   H     H_    0.873289 0.397435 0.050525 0.131052
H22   H     H_    0.170112 0.260091 0.921684 0.130031
H23   H     H_    0.373296 0.897374 0.050523 0.130821
H24   H     H_    0.670216 0.759961 0.921641 0.130873
H25   H     H_    0.861174 0.382794 0.923347 0.130611
H26   H     H_    0.188294 0.206096 0.046002 0.132216
H27   H     H_    0.361186 0.882726 0.923345 0.130688
H28   H     H_    0.688397 0.705960 0.045967 0.132763
H29   H     H_    0.551724 0.370238 0.549120 0.126407
H30   H     H_    0.525840 0.368055 0.425005 0.133754
H31   H     H_    0.971474 0.866702 0.575499 0.131254
H32   H     H_    0.945641 0.869266 0.451081 0.126614
H33   H     H_    0.515708 0.972523 0.428449 0.124231
H34   H     H_    0.553364 0.975082 0.554088 0.136434
H35   H     H_    0.950067 0.474357 0.445493 0.138693
H36   H     H_    0.988750 0.472007 0.570671 0.128646
H37   H     H_    0.817832 0.217576 0.546900 0.119049
H38   H     H_    0.178335 0.222205 0.451988 0.126993
H39   H     H_    0.367856 0.906224 0.586470 0.131379
H40   H     H_    0.682806 0.716057 0.453907 0.118707
O1    O     O_R   0.784320 0.290430 0.830510 -0.515891
O2    O     O_R   0.215680 0.290430 0.169490 -0.502098
O3    O     O_R   0.284320 0.790430 0.830510 -0.522407
O4    O     O_R   0.715680 0.790430 0.169490 -0.503312
O5    O     O_R   0.554640 0.080370 0.673500 -0.501836
O6    O     O_R   0.445360 0.080370 0.326500 -0.522023
O7    O     O_R   0.054640 0.580370 0.673500 -0.500403
O8    O     O_R   0.945360 0.580370 0.326500 -0.491260
O9    O     O_R   0.543920 0.282180 0.666790 -0.521968
O10   O     O_R   0.456080 0.282180 0.333210 -0.534986
O11   O     O_R   0.043920 0.782180 0.666790 -0.528924
O12   O     O_R   0.956080 0.782180 0.333210 -0.516015
O13   O     O_R   0.679040 0.374160 0.674430 -0.518622
O14   O     O_R   0.320960 0.374160 0.325570 -0.485970
O15   O     O_R   0.179040 0.874160 0.674430 -0.504897
O16   O     O_R   0.820960 0.874160 0.325570 -0.510131
O17   O     O_3   0.665350 0.165340 0.749070 -0.279162
O18   O     O_3   0.334650 0.165340 0.250930 -0.309769
O19   O     O_3   0.165350 0.665340 0.749070 -0.238782
O20   O     O_3   0.834650 0.665340 0.250930 -0.308010
O21   O     O_R   0.762640 0.040960 0.825200 -0.499176
O22   O     O_R   0.237360 0.040960 0.174800 -0.517495
O23   O     O_R   0.262640 0.540960 0.825200 -0.502110
O24   O     O_R   0.737360 0.540960 0.174800 -0.521387
O25   O     O_R   0.667400 0.923970 0.829950 -0.523460
O26   O     O_R   0.332600 0.923970 0.170050 -0.514089
O27   O     O_R   0.167400 0.423970 0.829950 -0.527215
O28   O     O_R   0.832600 0.423970 0.170050 -0.519555
O29   O     O_R   0.553960 0.081340 0.821780 -0.489474
O30   O     O_R   0.446040 0.081340 0.178220 -0.496704
O31   O     O_R   0.053960 0.581340 0.821780 -0.497625
O32   O     O_R   0.946040 0.581340 0.178220 -0.490865
O33   O     O_R   0.543180 0.283240 0.826740 -0.511852
O34   O     O_R   0.456820 0.283240 0.173260 -0.524376
O35   O     O_R   0.043180 0.783240 0.826740 -0.518376
O36   O     O_R   0.956820 0.783240 0.173260 -0.519579
O37   O     O_R   0.678360 0.375140 0.822710 -0.500014
O38   O     O_R   0.321640 0.375140 0.177290 -0.488235
O39   O     O_R   0.178360 0.875140 0.822710 -0.506949
O40   O     O_R   0.821640 0.875140 0.177290 -0.492058
O41   O     O_R   0.785050 0.289380 0.670560 -0.512794
O42   O     O_R   0.214950 0.289380 0.329440 -0.504435
O43   O     O_R   0.285050 0.789380 0.670560 -0.519361
O44   O     O_R   0.714950 0.789380 0.329440 -0.502037
O45   O     O_R   0.763320 0.039990 0.676930 -0.523188
O46   O     O_R   0.236680 0.039990 0.323070 -0.514669
O47   O     O_R   0.263320 0.539990 0.676930 -0.499935
O48   O     O_R   0.736680 0.539990 0.323070 -0.521384
O49   O     O_R   0.668130 0.922920 0.670000 -0.533680
O50   O     O_R   0.331870 0.922920 0.330000 -0.493685
O51   O     O_R   0.168130 0.422920 0.670000 -0.524082
O52   O     O_R   0.831870 0.422920 0.330000 -0.529042
H41   H     H_    0.524562 0.254578 0.056473 0.106984
H42   H     H_    0.472312 0.245770 0.944050 0.106412
H43   H     H_    0.024521 0.754581 0.056449 0.107000
H44   H     H_    0.972287 0.745773 0.944032 0.106289
H45   H     H_    0.636345 0.450518 0.941247 0.133322
H46   H     H_    0.359670 0.466476 0.060689 0.136593
H47   H     H_    0.136380 0.950731 0.941214 0.133599
H48   H     H_    0.859550 0.966720 0.060742 0.136100

loop_
_geom_bond_atom_site_label_1
_geom_bond_atom_site_label_2
_ccdc_geom_bond_type
Cr2   O2    S    
C89   H45   S    
C87   C88   S    
C58   C62   A    
C23   C91   A    
C55   C59   A    
Cr8   O28   S    
C77   O41   A    
C14   C18   A    
C19   C23   A    
C35   C36   A    
C84   C87   D    
C3    O27   A    
Cr2   O22   S    
C32   C75   S    
C31   C76   S    
C3    O23   A    
C21   C89   A    
C85   C86   S    
Cr8   O8    S    
C15   C19   A    
C74   O10   A    
C50   C54   A    
C37   H37   S    
Cr11  O39   S    
C32   C36   A    
C27   C28   A    
C56   C60   A    
C20   H28   S    
C38   C42   A    
Cr3   O19   S    
C79   O15   A    
Cr6   O30   S    
C49   C53   A    
C80   O16   A    
Cr7   O27   S    
C76   O8    A    
C23   C67   S    
Cr7   O51   S    
C58   H14   S    
Cr5   O25   S    
Cr6   O50   S    
Cr5   O49   S    
C46   O34   A    
C22   C66   S    
C9    C13   A    
C52   C69   S    
C35   H35   S    
C69   O49   A    
C46   C82   S    
C11   C15   A    
C78   O14   A    
C12   C16   A    
C29   C33   A    
C61   C77   S    
C49   C72   S    
Cr8   O32   S    
C47   O35   A    
C46   O30   A    
Cr1   O1    S    
C78   O42   A    
C51   C70   S    
Cr9   O9    S    
C8    C12   A    
C22   C90   A    
C25   H29   S    
Cr10  O10   S    
C51   C55   A    
C81   C86   D    
C68   O4    A    
C16   C20   A    
C73   O5    A    
C44   C52   A    
C83   C88   D    
C66   O38   A    
Cr1   O21   S    
Cr9   O17   S    
C15   H23   S    
C64   C80   S    
Cr10  O14   S    
C86   H2    S    
C1    C12   S    
C43   H7    S    
Cr12  O16   S    
C85   H1    S    
C2    C11   S    
C24   C92   A    
C41   C49   A    
Cr6   O18   S    
C53   H9    S    
Cr8   O52   S    
C84   H43   S    
C19   H27   S    
Cr4   O4    S    
Cr5   O29   S    
C30   C34   A    
Cr3   O43   S    
Cr10  O38   S    
C20   C24   A    
Cr3   O3    S    
C82   H41   S    
C10   C14   A    
C33   H33   S    
C81   H42   S    
C30   C73   S    
C53   C57   A    
C8    H20   S    
C65   O37   A    
C29   C74   S    
C56   H12   S    
C25   C26   A    
C6    C90   A    
C24   C68   S    
C17   H25   S    
C76   O12   A    
C17   C21   A    
Cr4   O20   S    
C38   C62   A    
C7    C11   A    
C50   C71   S    
Cr2   O46   S    
C5    C9    A    
C26   H30   S    
C45   O29   A    
C36   H36   S    
C71   O51   A    
Cr1   O17   S    
C70   O50   A    
C7    C91   A    
Cr4   O24   S    
C33   C34   A    
C80   O44   A    
C87   H3    S    
Cr8   O20   S    
Cr12  O12   S    
C16   H24   S    
C77   O13   A    
C79   O43   A    
C42   C50   A    
C8    C92   A    
C44   H8    S    
Cr11  O11   S    
Cr12  O40   S    
C2    O26   A    
C73   O9    A    
Cr5   O17   S    
C40   H40   S    
C67   O3    A    
Cr10  O34   S    
Cr7   O19   S    
C18   H26   S    
C6    H18   S    
C65   O1    A    
C48   O36   A    
Cr9   O37   S    
Cr10  O18   S    
C70   O46   A    
C57   H13   S    
C92   H48   S    
Cr6   O6    S    
C25   C30   A    
C2    O22   A    
C68   O40   A    
C5    H17   S    
C59   H15   S    
Cr1   O45   S    
C4    O28   A    
C21   C65   S    
C1    O21   A    
C28   H32   S    
C4    O24   A    
C59   C63   A    
C62   C78   S    
C28   C31   A    
C45   C81   S    
Cr2   O42   S    
C39   H39   S    
C69   O45   A    
Cr3   O23   S    
C72   O52   A    
C39   C43   A    
C75   O11   A    
C57   C61   A    
C63   C79   S    
Cr3   O47   S    
C82   C85   D    
C39   C63   A    
C83   H44   S    
Cr11  O19   S    
C14   H22   S    
C13   C17   A    
C60   C64   A    
C27   H31   S    
Cr4   O48   S    
C18   C22   A    
C42   H6    S    
C13   H21   S    
C3    C10   S    
C71   O47   A    
C45   O33   A    
C55   H11   S    
Cr11  O15   S    
Cr12  O20   S    
Cr12  O36   S    
Cr7   O7    S    
C43   C51   A    
C88   H4    S    
C40   C64   A    
C54   H10   S    
C31   C35   A    
C1    O25   A    
C34   H34   S    
C38   H38   S    
Cr11  O35   S    
C37   C41   A    
C5    C89   A    
C66   O2    A    
Cr9   O33   S    
C6    C10   A    
C27   C32   A    
C60   H16   S    
Cr9   O13   S    
C47   C83   S    
Cr6   O26   S    
C48   C84   S    
C40   C44   A    
C37   C61   A    
Cr7   O31   S    
C26   C29   A    
C54   C58   A    
C75   O7    A    
C47   O31   A    
Cr5   O5    S    
C74   O6    A    
C67   O39   A    
C41   H5    S    
C90   H46   S    
C4    C9    S    
Cr4   O44   S    
C72   O48   A    
C91   H47   S    
Cr2   O18   S    
C52   C56   A    
C7    H19   S    
C48   O32   A    
Cr1   O41   S    
