data_mof_unit_pretest_142.cif
_audit_creation_date              2012-12-10T17:37:48-0500
_audit_creation_method            fapswitch 2.2
_symmetry_space_group_name_H-M    P1
_symmetry_Int_Tables_number       1
_space_group_crystal_system       triclinic
_cell_length_a                    12.31581
_cell_length_b                    13.19659
_cell_length_c                    17.347886
_cell_angle_alpha                 104.985138
_cell_angle_beta                  74.770321
_cell_angle_gamma                 116.673236
_cell_volume                      2398.40355753

loop_
_atom_site_label
_atom_site_type_symbol
_atom_type_description
_atom_site_fract_x
_atom_site_fract_y
_atom_site_fract_z
_atom_type_partial_charge
C1    C     C_R   0.144576 0.713541 0.506780 0.780572
C2    C     C_R   0.888663 0.526802 0.796362 -0.195004
C3    C     C_R   0.960345 0.552284 0.162277 -0.131119
C4    C     C_R   0.948437 0.542792 0.242074 -0.180972
C5    C     C_R   0.116430 0.481136 0.204278 -0.191179
C6    C     C_R   0.128048 0.490376 0.124165 -0.162634
C7    C     C_R   0.048520 0.523700 0.102597 0.180838
C8    C     C_2   0.958648 0.500288 0.985740 -0.223110
C9    C     C_2   0.058175 0.526424 0.017246 -0.223506
C10   C     C_R   0.025604 0.506198 0.263564 -0.038794
C11   C     C_R   0.736701 0.974640 0.392968 0.376991
C12   C     C_R   0.987110 0.502658 0.652024 0.786814
C13   C     C_R   0.774645 0.164549 0.470858 -0.119295
C14   C     C_R   0.179477 0.916854 0.556693 -0.177441
C15   C     C_R   0.256886 0.032515 0.570631 -0.144684
C16   C     C_R   0.382817 0.069153 0.542137 -0.181437
C17   C     C_R   0.433910 0.990265 0.496020 0.104262
C18   C     C_R   0.352342 0.874906 0.473392 0.085616
C19   C     C_R   0.563066 0.022344 0.470970 0.026434
C20   C     C_R   0.608275 0.942821 0.417135 0.073831
C21   C     C_R   0.524314 0.834512 0.387364 -0.179637
C22   C     C_R   0.398776 0.801821 0.414025 -0.214535
C23   C     C_R   0.855884 0.286248 0.487930 0.828333
C24   C     C_R   0.648740 0.131071 0.499084 -0.256495
C25   C     C_R   0.818827 0.085572 0.419403 -0.223640
C26   C     C_R   0.226138 0.836564 0.509944 -0.101376
C27   C     C_R   0.641658 0.674201 0.629501 -0.293465
C28   C     C_R   0.250197 0.352196 0.389894 0.075901
C29   C     C_R   0.348874 0.319931 0.366321 -0.243863
C30   C     C_R   0.448625 0.375610 0.407687 -0.189302
C31   C     C_R   0.450922 0.464869 0.473657 -0.003277
C32   C     C_R   0.347293 0.494750 0.495746 0.286779
C33   C     C_R   0.551376 0.525239 0.518632 -0.030540
C34   C     C_R   0.013833 0.498770 0.348105 0.789224
C35   C     C_R   0.545698 0.613677 0.584306 0.179279
C36   C     C_R   0.444190 0.641238 0.604834 -0.280722
C37   C     C_R   0.347330 0.583028 0.561801 -0.187592
C38   C     C_R   0.658002 0.502228 0.501765 0.028732
C39   C     C_R   0.743407 0.647206 0.609899 0.075482
C40   C     C_R   0.979404 0.501412 0.737226 -0.028574
C41   C     C_R   0.062171 0.472897 0.759872 -0.207610
C42   C     C_R   0.055277 0.470965 0.840547 -0.147860
C43   C     C_R   0.966475 0.499122 0.899914 0.191104
C44   C     C_R   0.882017 0.525097 0.877306 -0.165692
Cu1   Cu    Cu3+1 0.900140 0.524980 0.518800 0.944472
Cu2   Cu    Cu3+1 0.099860 0.475020 0.481200 0.926798
H1    H     H_    0.131925 0.451314 0.715315 0.159365
H2    H     H_    0.197324 0.469212 0.078721 0.126511
H3    H     H_    0.916791 0.111101 0.397477 0.181863
H4    H     H_    0.554566 0.773714 0.343160 0.200598
H5    H     H_    0.620123 0.192543 0.542991 0.158617
H6    H     H_    0.083071 0.890002 0.584032 0.154987
H7    H     H_    0.436859 0.160215 0.555641 0.128862
H8    H     H_    0.219593 0.093933 0.605922 0.143702
H9    H     H_    0.338912 0.719345 0.385472 0.178528
H10   H     H_    0.817834 0.693664 0.644492 0.118798
H11   H     H_    0.879320 0.564993 0.286902 0.174771
H12   H     H_    0.439199 0.708658 0.655139 0.154007
H13   H     H_    0.637893 0.741964 0.679761 0.136726
H14   H     H_    0.670274 0.436756 0.452876 0.122238
H15   H     H_    0.173160 0.308352 0.357496 0.129946
H16   H     H_    0.522348 0.347013 0.386865 0.137684
H17   H     H_    0.348005 0.251423 0.315807 0.152447
H18   H     H_    0.273971 0.610379 0.582984 0.208486
H19   H     H_    0.177998 0.453998 0.219618 0.153559
H20   H     H_    0.148307 0.545950 0.979341 0.145842
H21   H     H_    0.812115 0.545678 0.922465 0.128955
H22   H     H_    0.901112 0.582796 0.147712 0.144117
H23   H     H_    0.823189 0.548269 0.780250 0.151854
H24   H     H_    0.868601 0.480538 0.023843 0.147161
H25   H     H_    0.118391 0.445815 0.855854 0.124926
N1    N     N_R   0.749710 0.562810 0.547300 -0.180886
N2    N     N_R   0.249640 0.437820 0.453210 -0.209683
O1    O     O_R   0.025490 0.682370 0.523640 -0.574929
O2    O     O_R   0.194150 0.640180 0.491890 -0.605867
O3    O     O_R   0.905900 0.523560 0.631310 -0.589047
O4    O     O_R   0.074570 0.481370 0.599560 -0.604894
O5    O     O_R   0.805850 0.359820 0.508110 -0.588501
O6    O     O_R   0.974510 0.317630 0.476360 -0.585569
O7    O     O_R   0.925430 0.518630 0.400440 -0.584267
O8    O     O_R   0.094100 0.476440 0.368690 -0.599150
Cl1   Cl    Cl    0.799368 0.879830 0.327977 -0.659861

loop_
_geom_bond_atom_site_label_1
_geom_bond_atom_site_label_2
_ccdc_geom_bond_type
C29   H17   S    
C41   C42   A    
C35   C36   A    
C18   C26   A    
C8    C43   S    
Cu1   Cu2   S    
C6    H2    S    
Cu1   O3    S    
C1    O1    A    
C36   C37   A    
C3    H22   S    
C36   H12   S    
C5    C6    A    
C11   C25   A    
C15   C16   A    
C13   C23   S    
C9    H20   S    
C21   H4    S    
C34   O7    A    
C16   H7    S    
C14   H6    S    
C19   C20   A    
C2    C44   A    
C16   C17   A    
C4    H11   S    
C39   N1    A    
C31   C33   A    
Cu1   O5    S    
C34   O8    A    
C2    H23   S    
C28   H15   S    
C24   H5    S    
C21   C22   A    
Cu1   N1    S    
C13   C25   A    
C28   N2    A    
Cu2   O2    S    
C11   Cl1   S    
C38   N1    A    
C11   C20   A    
C1    O2    A    
C15   H8    S    
C5    H19   S    
C27   C39   A    
C32   N2    A    
C8    C9    D    
C27   C35   A    
C13   C24   A    
Cu1   O1    S    
C12   C40   S    
C43   C44   A    
C29   C30   A    
Cu2   O8    S    
C39   H10   S    
C30   C31   A    
C12   O4    A    
C17   C18   A    
C41   H1    S    
C10   C34   S    
C32   C37   A    
C14   C26   A    
C6    C7    A    
C38   H14   S    
C40   C41   A    
C12   O3    A    
C1    C26   S    
C42   C43   A    
C4    C10   A    
C3    C4    A    
C37   H18   S    
C7    C9    S    
C28   C29   A    
C18   C22   A    
C8    H24   S    
C31   C32   A    
Cu2   O4    S    
C22   H9    S    
C3    C7    A    
C33   C38   A    
C30   H16   S    
C19   C24   A    
C5    C10   A    
C27   H13   S    
Cu2   O6    S    
C42   H25   S    
C33   C35   A    
Cu1   O7    S    
C23   O5    A    
C25   H3    S    
C17   C19   A    
C2    C40   A    
C20   C21   A    
C14   C15   A    
C44   H21   S    
C23   O6    A    
Cu2   N2    S    
