data_mof_unit_pretest_149.cif
_audit_creation_date              2012-12-10T18:47:01-0500
_audit_creation_method            fapswitch 2.2
_symmetry_space_group_name_H-M    P1
_symmetry_Int_Tables_number       1
_space_group_crystal_system       triclinic
_cell_length_a                    10.831191
_cell_length_b                    9.815572
_cell_length_c                    14.983533
_cell_angle_alpha                 89.686277
_cell_angle_beta                  90.891926
_cell_angle_gamma                 89.35465
_cell_volume                      1592.64486747

loop_
_atom_site_label
_atom_site_type_symbol
_atom_type_description
_atom_site_fract_x
_atom_site_fract_y
_atom_site_fract_z
_atom_type_partial_charge
C1    C     C_R   0.260358 0.501099 0.491759 0.984933
C2    C     C_R   0.740835 0.499205 0.501929 0.924121
C3    C     C_R   0.295366 0.406306 0.046829 0.363842
C4    C     C_R   0.736118 0.495466 0.955828 0.339403
C5    C     C_R   0.065347 0.380736 0.463404 -0.067854
C6    C     C_R   0.937966 0.623549 0.507728 -0.152713
C7    C     C_R   0.939148 0.376281 0.477684 -0.074737
C8    C     C_R   0.062704 0.627806 0.489878 -0.128781
C9    C     C_R   0.874715 0.498292 0.499313 -0.221340
C10   C     C_R   0.127898 0.504076 0.478066 -0.118607
C11   C     C_R   0.537006 0.070920 0.574168 0.013921
C12   C     C_R   0.464339 0.929075 0.425546 -0.037460
C13   C     C_R   0.464447 0.072973 0.425530 -0.057920
C14   C     C_R   0.536990 0.926959 0.574178 -0.034345
C15   C     C_R   0.499138 0.500651 0.326928 0.941266
C16   C     C_R   0.499781 0.499219 0.672976 0.914912
C17   C     C_R   0.616515 0.506283 0.813533 -0.053573
C18   C     C_R   0.393056 0.499318 0.181540 -0.079852
C19   C     C_R   0.502625 0.493787 0.768843 -0.227152
C20   C     C_R   0.503571 0.501731 0.231135 -0.224162
C21   C     C_R   0.393481 0.464539 0.813737 -0.044914
C22   C     C_R   0.619028 0.496107 0.189894 -0.050621
C23   C     C_R   0.399077 0.442978 0.906496 -0.067926
C24   C     C_R   0.623983 0.495156 0.095677 -0.069242
C25   C     C_R   0.511843 0.467665 0.953403 -0.016591
C26   C     C_R   0.512215 0.472598 0.047112 -0.022726
C27   C     C_R   0.623094 0.489202 0.906926 -0.071150
C28   C     C_R   0.398538 0.461348 0.091929 -0.069685
C29   C     C_R   0.297038 0.393284 0.954270 0.350961
C30   C     C_R   0.735513 0.511354 0.048254 0.345278
H1    H     H_    0.567061 0.124466 0.633366 0.172702
H2    H     H_    0.435720 0.875547 0.365984 0.159003
H3    H     H_    0.436624 0.128083 0.365824 0.151353
H4    H     H_    0.567205 0.871735 0.633358 0.176214
N1    N     N_R   0.500000 0.857200 0.500000 -0.093748
N2    N     N_R   0.500000 0.142800 0.500000 -0.096558
O1    O     O_R   0.316770 0.614620 0.499990 -0.617921
O2    O     O_R   0.683230 0.385380 0.500010 -0.605817
O3    O     O_R   0.683230 0.614620 0.500010 -0.601357
O4    O     O_R   0.316770 0.385380 0.499990 -0.593708
O5    O     O_R   0.499980 0.614680 0.367850 -0.598105
O6    O     O_R   0.500020 0.385320 0.632150 -0.581154
O7    O     O_R   0.500020 0.614680 0.632150 -0.634425
O8    O     O_R   0.499980 0.385320 0.367850 -0.623043
Zn1   Zn    Zn3+2 0.500000 0.653120 0.500000 1.041405
Zn2   Zn    Zn3+2 0.500000 0.346880 0.500000 1.053502
C31   C     C_2   0.723276 0.554425 0.762244 0.978719
O9    O     O_2   0.757990 0.671757 0.770851 -0.526381
O10   O     O_R   0.786142 0.464020 0.706961 -0.758742
H5    H     H_    0.864252 0.504880 0.682586 0.356487
C32   C     C_2   0.276052 0.555966 0.218326 1.027478
O11   O     O_2   0.248357 0.535363 0.295757 -0.608876
O12   O     O_R   0.197738 0.634991 0.163308 -0.709986
H6    H     H_    0.121628 0.668568 0.195454 0.399818
C33   C     C_2   0.272854 0.479047 0.765177 0.972681
O13   O     O_2   0.250881 0.410109 0.699215 -0.593507
O14   O     O_R   0.184116 0.571132 0.796178 -0.704390
H7    H     H_    0.105825 0.571819 0.758156 0.381459
C34   C     C_2   0.731528 0.488219 0.247087 0.964343
O15   O     O_2   0.793932 0.383714 0.249109 -0.513784
O16   O     O_R   0.767657 0.602170 0.296001 -0.752506
H8    H     H_    0.851874 0.589142 0.325279 0.360585
Cl1   Cl    Cl    0.179536 0.295462 0.902313 -0.368325
Cl2   Cl    Cl    0.875380 0.569757 0.097751 -0.402462
Cl3   Cl    Cl    0.171529 0.333305 0.106271 -0.375608
Cl4   Cl    Cl    0.882547 0.466857 0.906789 -0.366668
C35   C     C_2   0.129602 0.257412 0.428322 0.996898
O17   O     O_2   0.130962 0.151099 0.471309 -0.578280
O18   O     O_R   0.187709 0.263943 0.345867 -0.721487
H9    H     H_    0.223477 0.172826 0.327199 0.337711
C36   C     C_2   0.876197 0.752707 0.534245 1.023595
O19   O     O_2   0.862876 0.778461 0.613193 -0.545705
O20   O     O_R   0.833890 0.843945 0.468487 -0.756598
H10   H     H_    0.788514 0.924653 0.494783 0.350973
C37   C     C_2   0.877577 0.242503 0.468400 1.004487
O21   O     O_2   0.848271 0.179125 0.535137 -0.566295
O22   O     O_R   0.855802 0.188998 0.383478 -0.727331
H11   H     H_    0.810787 0.099200 0.385139 0.360440
C38   C     C_2   0.121293 0.763295 0.478084 1.019827
O23   O     O_2   0.129557 0.841928 0.540892 -0.543328
O24   O     O_R   0.166575 0.799610 0.394545 -0.758147
H12   H     H_    0.201062 0.895128 0.393685 0.347270

loop_
_geom_bond_atom_site_label_1
_geom_bond_atom_site_label_2
_ccdc_geom_bond_type
C33   O13   D    
C29   Cl1   S    
C30   Cl2   S    
O20   H10   S    
C5    C35   S    
C6    C9    A    
O24   H12   S    
C21   C33   S    
C31   O10   S    
O22   H11   S    
O4    Zn2   S    
C23   C29   A    
C11   N2    A    
C19   C21   A    
C24   C26   A    
C15   O8    A    
O18   H9    S    
C11   C14   A    
O6    Zn2   S    
C3    C29   A    
C1    O4    A    
C2    O3    A    
C8    C38   S    
N2    Zn2   S    
C1    O1    A    
O3    Zn1   S    
C11   H1    S    
C34   O15   D    
C12   H2    S    
C3    Cl3   S    
O8    Zn2   S    
C18   C32   S    
C15   C20   S    
C34   O16   S    
C32   O11   D    
C17   C27   A    
C18   C28   A    
C15   O5    A    
C13   N2    A    
C14   N1    A    
C38   O24   S    
C7    C37   S    
C25   C26   A    
O12   H6    S    
C35   O17   D    
C35   O18   S    
C37   O21   D    
C13   H3    S    
C37   O22   S    
C2    O2    A    
C31   O9    D    
C12   N1    A    
O7    Zn1   S    
C16   O7    A    
C20   C22   A    
C21   C23   A    
C22   C24   A    
O1    Zn1   S    
N1    Zn1   S    
C16   O6    A    
C22   C34   S    
C4    C27   A    
C5    C7    A    
C7    C9    A    
C3    C28   A    
C1    C10   S    
C17   C31   S    
C6    C36   S    
C14   H4    S    
C6    C8    A    
C25   C27   A    
C26   C28   A    
C33   O14   S    
C5    C10   A    
C4    Cl4   S    
O14   H7    S    
C16   C19   S    
C17   C19   A    
C18   C20   A    
C23   C25   A    
O16   H8    S    
C24   C30   A    
O2    Zn2   S    
C38   O23   D    
C36   O19   D    
C12   C13   A    
C8    C10   A    
O10   H5    S    
C36   O20   S    
O5    Zn1   S    
C32   O12   S    
C2    C9    S    
C4    C30   A    
