data_mof_unit_pretest_993.cif
_audit_creation_date              2012-12-10T17:01:28-0500
_audit_creation_method            fapswitch 2.2
_symmetry_space_group_name_H-M    P1
_symmetry_Int_Tables_number       1
_space_group_crystal_system       triclinic
_cell_length_a                    12.844898
_cell_length_b                    10.543945
_cell_length_c                    10.132423
_cell_angle_alpha                 86.931525
_cell_angle_beta                  97.330561
_cell_angle_gamma                 91.312862
_cell_volume                      1358.94680525

loop_
_atom_site_label
_atom_site_type_symbol
_atom_type_description
_atom_site_fract_x
_atom_site_fract_y
_atom_site_fract_z
_atom_type_partial_charge
C1    C     C_R   0.487197 0.262352 0.501942 0.902818
C2    C     C_2   0.447773 0.131679 0.510902 -0.347760
C3    C     C_2   0.544849 0.587641 0.930417 -0.166558
C4    C     C_R   0.298270 0.495227 0.473910 0.878183
C5    C     C_2   0.560455 0.573867 0.081143 -0.041418
C6    C     C_R   0.498790 0.737886 0.495737 0.919043
C7    C     C_R   0.701624 0.490120 0.527656 0.908964
C8    C     C_R   0.813680 0.462287 0.548099 -0.184187
C9    C     C_R   0.186075 0.475502 0.459807 -0.056275
C10   C     C_R   0.019458 0.450940 0.325538 -0.006192
C11   C     C_R   0.127233 0.471169 0.334768 -0.229399
C12   C     C_R   0.030693 0.442949 0.569855 0.124550
C13   C     C_R   0.138824 0.453251 0.575274 -0.240472
C14   C     C_2   0.445238 0.071745 0.648345 1.004754
C15   C     C_2   0.580054 0.709680 0.871448 1.016038
C16   C     C_2   0.495346 0.372861 0.902491 1.054390
C17   C     C_2   0.642571 0.653277 0.153226 1.006654
C18   C     C_2   0.817119 0.423475 0.795630 0.940295
C19   C     C_2   0.960190 0.435632 0.193040 0.907477
C20   C     C_3   0.046141 0.420874 0.825489 -0.414317
C21   C     C_3   0.089009 0.550212 0.871114 -0.707576
C22   C     C_3   0.309174 0.857942 0.346946 -0.379506
C23   C     C_R   0.970373 0.445814 0.442785 0.060565
C24   C     C_3   0.212265 0.885290 0.412850 -0.788763
C25   C     C_2   0.374289 0.133625 0.269433 0.967741
C26   C     C_R   0.862713 0.454360 0.434496 -0.202438
C27   C     C_R   0.871431 0.440777 0.675856 -0.042551
C28   C     C_R   0.981719 0.433648 0.687966 0.073941
C29   C     C_2   0.405776 0.929052 0.411182 0.180578
C30   C     C_2   0.490425 0.871927 0.480394 -0.280570
C31   C     C_2   0.408379 0.068879 0.401412 -0.103021
H1    H     H_    0.816754 0.462109 0.337723 0.233723
H2    H     H_    0.770252 0.502510 0.953645 0.379456
H3    H     H_    0.860331 0.326387 0.075706 0.369309
H4    H     H_    0.139269 0.596343 0.800720 0.230620
H5    H     H_    0.023237 0.614751 0.878948 0.313554
H6    H     H_    0.136832 0.537836 0.970112 0.247453
H7    H     H_    0.999529 0.377900 0.901613 0.232589
H8    H     H_    0.110947 0.352955 0.825977 0.210462
H9    H     H_    0.223904 0.851388 0.519280 0.285800
H10   H     H_    0.196021 0.988612 0.405493 0.279922
H11   H     H_    0.143088 0.834293 0.362183 0.251294
H12   H     H_    0.434296 0.464334 0.096167 0.158987
H13   H     H_    0.294284 0.886538 0.239302 0.237422
H14   H     H_    0.318736 0.753805 0.353024 0.210863
H15   H     H_    0.292940 0.276150 0.166037 0.336678
H16   H     H_    0.165056 0.480874 0.244920 0.174675
H17   H     H_    0.187716 0.448412 0.669840 0.191767
H18   H     H_    0.558209 0.925914 0.523616 0.113943
H19   H     H_    0.365855 0.962485 0.772681 0.379060
H20   H     H_    0.683057 0.803190 0.765536 0.344322
H21   H     H_    0.566221 0.226354 0.012313 0.386807
H22   H     H_    0.679376 0.815926 0.245592 0.343710
N1    N     N_2   0.501130 0.501330 0.852280 -0.215965
N2    N     N_2   0.501160 0.501360 0.147950 -0.212705
O1    O     O_R   0.499980 0.319060 0.613040 -0.577042
O2    O     O_R   0.358530 0.997483 0.676867 -0.788166
O3    O     O_2   0.536561 0.807619 0.890969 -0.592618
O4    O     O_R   0.665759 0.713862 0.799164 -0.736649
O5    O     O_2   0.417380 0.308474 0.867658 -0.609983
O6    O     O_R   0.580052 0.318577 0.985360 -0.768763
O7    O     O_2   0.734244 0.621894 0.163262 -0.637755
O8    O     O_R   0.616154 0.768861 0.200215 -0.747661
O9    O     O_2   0.771854 0.322850 0.818037 -0.588823
O10   O     O_R   0.814888 0.523542 0.879710 -0.712877
O11   O     O_2   0.967676 0.516668 0.104147 -0.602577
O12   O     O_R   0.500020 0.319100 0.386900 -0.583509
O13   O     O_R   0.895480 0.328500 0.170768 -0.779907
O14   O     O_2   0.398626 0.090688 0.168078 -0.596583
O15   O     O_R   0.311545 0.241096 0.261062 -0.796656
O16   O     O_R   0.346340 0.499960 0.594380 -0.629214
O17   O     O_R   0.346380 0.500000 0.368250 -0.617390
O18   O     O_R   0.499980 0.680900 0.613100 -0.601874
O19   O     O_R   0.500020 0.680940 0.386960 -0.586985
O20   O     O_R   0.653620 0.500000 0.631750 -0.574227
O21   O     O_R   0.653660 0.500040 0.405620 -0.612632
O22   O     O_2   0.518804 0.087661 0.735524 -0.544326
Zn1   Zn    Zn3+2 0.499980 0.499970 0.650990 1.042664
Zn2   Zn    Zn3+2 0.500020 0.500030 0.349010 1.004823

loop_
_geom_bond_atom_site_label_1
_geom_bond_atom_site_label_2
_ccdc_geom_bond_type
C25   C31   S    
C26   H1    S    
C22   C29   S    
C24   H11   S    
C11   H16   S    
O21   Zn2   S    
H2    O10   S    
C7    C8    S    
C21   H5    S    
C18   O10   S    
C12   C23   A    
N2    Zn2   S    
C12   C28   A    
C1    O1    A    
O17   Zn2   S    
H21   O6    S    
C3    N1    D    
C14   O22   D    
C5    C17   S    
O1    Zn1   S    
C19   O11   D    
C1    C2    S    
C16   O5    D    
C23   C26   A    
C9    C13   A    
C24   H9    S    
C22   H13   S    
O18   Zn1   S    
C24   H10   S    
C6    O19   A    
H20   O4    S    
C8    C26   A    
O12   Zn2   S    
H3    O13   S    
C20   H8    S    
C7    O20   A    
C20   C28   S    
C2    C31   D    
C29   C30   D    
C17   O7    D    
C20   H7    S    
C10   C19   S    
C19   O13   S    
C20   C21   S    
C9    C11   A    
H12   N2    S    
C6    C30   S    
C30   H18   S    
O19   Zn2   S    
C15   O3    D    
C22   C24   S    
C25   O14   D    
C16   O6    S    
C4    O17   A    
C3    C15   S    
C6    O18   A    
C14   O2    S    
H19   O2    S    
C15   O4    S    
C5    N2    D    
C18   C27   S    
C3    C5    S    
C13   H17   S    
C7    O21   A    
C21   H4    S    
C10   C23   A    
C29   C31   S    
C17   O8    S    
H22   O8    S    
C18   O9    D    
C1    O12   A    
C4    O16   A    
C2    C14   S    
O20   Zn1   S    
C16   N1    S    
H15   O15   S    
C10   C11   A    
C22   H14   S    
C21   H6    S    
C12   C13   A    
C27   C28   A    
C8    C27   A    
C25   O15   S    
C4    C9    S    
O16   Zn1   S    
N1    Zn1   S    
