data_mof_unit_pretest_1994.cif
_audit_creation_date              2012-12-10T19:06:42-0500
_audit_creation_method            fapswitch 2.2
_symmetry_space_group_name_H-M    P1
_symmetry_Int_Tables_number       1
_space_group_crystal_system       triclinic
_cell_length_a                    13.051002
_cell_length_b                    13.627553
_cell_length_c                    16.732256
_cell_angle_alpha                 89.398914
_cell_angle_beta                  92.407683
_cell_angle_gamma                 94.130911
_cell_volume                      2965.45100701

loop_
_atom_site_label
_atom_site_type_symbol
_atom_type_description
_atom_site_fract_x
_atom_site_fract_y
_atom_site_fract_z
_atom_type_partial_charge
C1    C     C_R   0.481402 0.314878 0.500833 0.900179
C2    C     C_2   0.964327 0.480747 0.472693 0.039016
C3    C     C_1   0.853107 0.483215 0.481869 0.191789
C4    C     C_1   0.146900 0.516884 0.518133 0.191002
C5    C     C_R   0.485849 0.506204 0.347272 0.915866
C6    C     C_R   0.514851 0.497879 0.652824 0.911284
C7    C     C_R   0.479931 0.537677 0.263959 -0.161564
C8    C     C_R   0.526166 0.495027 0.739292 -0.161086
C9    C     C_R   0.567743 0.583721 0.230831 -0.234914
C10   C     C_R   0.444484 0.456851 0.783949 -0.227557
C11   C     C_R   0.564405 0.618279 0.152608 0.429968
C12   C     C_R   0.518596 0.685122 0.499127 0.893042
C13   C     C_R   0.452098 0.458430 0.867000 0.450230
C14   C     C_R   0.473148 0.600648 0.105091 -0.065020
C15   C     C_R   0.541318 0.504585 0.905355 -0.090830
C16   C     C_R   0.381518 0.568036 0.141793 0.212925
C17   C     C_R   0.626806 0.534803 0.860245 0.198956
C18   C     C_R   0.385612 0.535478 0.220930 -0.210815
C19   C     C_R   0.618667 0.529777 0.777427 -0.222296
C20   C     C_2   0.478291 0.590043 0.018370 -0.051167
C21   C     C_2   0.543595 0.528293 0.990158 -0.052048
C22   C     C_1   0.533231 0.788242 0.498165 -0.140649
C23   C     C_1   0.466749 0.211749 0.501545 -0.143984
C24   C     C_2   0.544221 0.979357 0.497220 -0.139538
C25   C     C_2   0.455728 0.020629 0.502043 -0.142872
C26   C     C_1   0.457921 0.124360 0.501963 0.043290
C27   C     C_1   0.542048 0.875628 0.497514 0.044502
C28   C     C_2   0.035680 0.519454 0.527297 0.038406
H1    H     H_    0.639046 0.594442 0.266278 0.213998
H2    H     H_    0.781479 0.800162 0.167279 0.400721
H3    H     H_    0.374870 0.424907 0.753992 0.208413
H4    H     H_    0.683402 0.556520 0.742831 0.194734
H5    H     H_    0.315580 0.507221 0.248253 0.195770
H6    H     H_    0.599424 0.494660 0.029735 0.190439
H7    H     H_    0.420736 0.620893 0.978642 0.182873
H8    H     H_    0.382818 0.977287 0.506083 0.173596
H9    H     H_    0.617137 0.022696 0.493210 0.174534
H10   H     H_    0.256599 0.261162 0.901301 0.401295
I1    I     I_    0.234938 0.564983 0.082143 -0.114440
I2    I     I_    0.769674 0.592225 0.911264 -0.100963
I3    I     I_    0.009053 0.413693 0.366972 -0.260632
I4    I     I_    0.990928 0.586661 0.632961 -0.263480
N1    N     N_1   0.235630 0.515160 0.512550 -0.081068
N2    N     N_1   0.764370 0.484840 0.487450 -0.081331
O1    O     O_R   0.402910 0.365220 0.504590 -0.600415
O2    O     O_2   0.258495 0.458559 0.910776 -0.263546
O3    O     O_3   0.318662 0.288409 0.874342 -0.530958
O4    O     O_2   0.757525 0.615742 0.107466 -0.268930
O5    O     O_2   0.651895 0.737621 0.040732 -0.261319
O6    O     O_3   0.716896 0.768682 0.187779 -0.534751
O7    O     O_R   0.597090 0.634780 0.495410 -0.602715
O8    O     O_R   0.572660 0.355490 0.496530 -0.598391
O9    O     O_R   0.427340 0.644510 0.503470 -0.600859
O10   O     O_R   0.405090 0.505430 0.388710 -0.608325
O11   O     O_R   0.594910 0.494570 0.611290 -0.608086
O12   O     O_R   0.574840 0.495690 0.380650 -0.608197
O13   O     O_R   0.425160 0.504310 0.619350 -0.606193
O14   O     O_2   0.378202 0.380345 0.005024 -0.280181
S1    S     S_3+6 0.349815 0.397534 0.918282 0.042185
S2    S     S_3+6 0.675063 0.685332 0.118228 0.044199
Zn1   Zn    Zn3+2 0.386660 0.506500 0.505380 1.018163
Zn2   Zn    Zn3+2 0.613340 0.493500 0.494620 1.017747

loop_
_geom_bond_atom_site_label_1
_geom_bond_atom_site_label_2
_ccdc_geom_bond_type
C6    C8    S    
C10   C13   A    
O13   Zn1   S    
C13   S1    S    
C4    N1    T    
C12   C22   S    
O2    S1    D    
C5    C7    S    
C16   I1    S    
C5    O12   A    
C12   O9    A    
C24   C27   S    
C9    H1    S    
C6    O11   A    
C7    C18   A    
O6    S2    S    
C1    C23   S    
C2    C3    S    
H2    O6    S    
C16   C18   A    
O8    Zn2   S    
C24   C25   D    
C9    C11   A    
C6    O13   A    
C1    O1    A    
H10   O3    S    
O5    S2    D    
O7    Zn2   S    
C19   H4    S    
O1    Zn1   S    
C17   C19   A    
O4    S2    D    
O12   Zn2   S    
C22   C27   T    
C13   C15   A    
C1    O8    A    
C14   C16   A    
C3    N2    T    
O14   S1    D    
C8    C19   A    
C18   H5    S    
C25   H8    S    
O3    S1    S    
C11   S2    S    
O11   Zn2   S    
C14   C20   S    
C5    O10   A    
C15   C21   S    
C12   O7    A    
C20   C21   D    
N1    Zn1   S    
C24   H9    S    
C4    C28   S    
C23   C26   T    
C28   I4    S    
C11   C14   A    
C7    C9    A    
C2    C28   D    
C21   H6    S    
C2    I3    S    
N2    Zn2   S    
C25   C26   S    
C15   C17   A    
C20   H7    S    
O9    Zn1   S    
C10   H3    S    
C17   I2    S    
C8    C10   A    
O10   Zn1   S    
