data_mof_unit_pretest_168.cif
_audit_creation_date              2012-12-11T14:42:23-0500
_audit_creation_method            fapswitch 2.2
_symmetry_space_group_name_H-M    P1
_symmetry_Int_Tables_number       1
_space_group_crystal_system       triclinic
_cell_length_a                    19.069053
_cell_length_b                    11.022963
_cell_length_c                    18.866594
_cell_angle_alpha                 89.609683
_cell_angle_beta                  90.437875
_cell_angle_gamma                 89.843071
_cell_volume                      3965.48697198

loop_
_atom_site_label
_atom_site_type_symbol
_atom_type_description
_atom_site_fract_x
_atom_site_fract_y
_atom_site_fract_z
_atom_type_partial_charge
C1    C     C_R   0.724799 0.960208 0.855630 0.550867
C2    C     C_R   0.236047 0.435055 0.930790 -0.074353
C3    C     C_2   0.852091 0.047843 0.421719 0.218677
C4    C     C_2   0.639428 0.526881 0.928849 0.350417
C5    C     C_2   0.374726 0.509747 0.066571 0.465982
C6    C     C_2   0.126005 0.001713 0.934143 0.366354
C7    C     C_2   0.874833 0.009619 0.066435 0.468159
C8    C     C_2   0.460683 0.389821 0.568735 0.268152
C9    C     C_2   0.536114 0.391358 0.425954 0.281447
C10   C     C_2   0.960681 0.889821 0.568738 0.268024
C11   C     C_2   0.036108 0.891360 0.425955 0.281311
C12   C     C_2   0.882833 0.402498 0.598953 0.285950
C13   C     C_R   0.250668 0.905823 0.079106 -0.056841
C14   C     C_2   0.116241 0.356901 0.412905 0.286787
C15   C     C_2   0.382831 0.902481 0.598943 0.286170
C16   C     C_2   0.616241 0.856899 0.412904 0.286915
C17   C     C_R   0.736461 0.933710 0.930477 -0.082641
C18   C     C_R   0.790501 0.317225 0.047287 0.426566
C19   C     C_R   0.177600 0.411271 0.973810 0.411845
C20   C     C_R   0.291796 0.817143 0.046732 0.423655
C21   C     C_R   0.678231 0.907685 0.973342 0.386089
C22   C     C_R   0.783026 0.295037 0.976102 0.409223
C23   C     C_R   0.184833 0.407188 0.046361 0.419562
C24   C     C_R   0.282009 0.790853 0.976230 0.404026
C25   C     C_R   0.272702 0.955089 0.147023 0.561932
C26   C     C_R   0.685210 0.904689 0.045880 0.412735
C27   C     C_R   0.733572 0.359669 0.934945 -0.055011
C28   C     C_R   0.250939 0.422434 0.078023 -0.096308
C29   C     C_R   0.229571 0.849958 0.936041 -0.057754
C30   C     C_R   0.751088 0.921581 0.077760 -0.093229
C31   C     C_R   0.491848 0.281302 0.534572 -0.026520
C32   C     C_R   0.509781 0.281282 0.462785 -0.026487
C33   C     C_R   0.991845 0.781302 0.534574 -0.026412
C34   C     C_R   0.009777 0.781283 0.462786 -0.026356
C35   C     C_R   0.502639 0.171424 0.425566 0.039716
C36   C     C_R   0.224630 0.460672 0.855797 0.555714
C37   C     C_R   0.500779 0.171787 0.572736 0.049868
C38   C     C_R   0.002637 0.671425 0.425567 0.039700
C39   C     C_R   0.000776 0.671787 0.572738 0.049257
C40   C     C_R   0.501576 0.062533 0.462846 -0.130564
C41   C     C_R   0.505709 0.062864 0.536028 -0.131576
C42   C     C_R   0.001575 0.562534 0.462847 -0.130545
C43   C     C_R   0.005708 0.562865 0.536029 -0.131809
C44   C     C_R   0.820682 0.410747 0.550787 0.014537
C45   C     C_R   0.180351 0.387894 0.454786 0.000594
C46   C     C_R   0.320678 0.910730 0.550780 0.014030
C47   C     C_R   0.772353 0.454698 0.147362 0.562975
C48   C     C_R   0.680351 0.887893 0.454786 0.000407
C49   C     C_R   0.824705 0.395007 0.476851 -0.048629
C50   C     C_R   0.181864 0.375835 0.528862 -0.050120
C51   C     C_R   0.324701 0.894990 0.476844 -0.048741
C52   C     C_R   0.681863 0.875834 0.528862 -0.049743
C53   C     C_R   0.557823 0.180947 0.858097 0.572894
C54   C     C_R   0.439332 0.182534 0.142337 0.576204
C55   C     C_R   0.057029 0.680747 0.858202 0.560882
C56   C     C_R   0.938889 0.682632 0.142417 0.576432
C57   C     C_R   0.768091 0.440364 0.433467 -0.042224
C58   C     C_R   0.697594 0.467129 0.040471 -0.142429
C59   C     C_R   0.235980 0.433966 0.568578 -0.032021
C60   C     C_R   0.268085 0.940347 0.433462 -0.042144
C61   C     C_R   0.735979 0.933964 0.568578 -0.031918
C62   C     C_R   0.708792 0.488674 0.465888 -0.094355
C63   C     C_R   0.289845 0.493264 0.532343 -0.095029
C64   C     C_R   0.208787 0.988658 0.465883 -0.094321
C65   C     C_R   0.789844 0.993263 0.532344 -0.094847
C66   C     C_R   0.699727 0.479195 0.538944 -0.032813
C67   C     C_R   0.294360 0.486468 0.458523 -0.024093
C68   C     C_R   0.199723 0.979181 0.538938 -0.033061
C69   C     C_R   0.300933 0.459703 0.962024 -0.104552
C70   C     C_R   0.794359 0.986468 0.458523 -0.024116
C71   C     C_R   0.754632 0.430638 0.580958 -0.015377
C72   C     C_R   0.242180 0.424956 0.420018 -0.012286
C73   C     C_R   0.254629 0.930626 0.580953 -0.015102
C74   C     C_R   0.742179 0.924955 0.420019 -0.012408
C75   C     C_R   0.726863 0.323593 0.860640 0.555081
C76   C     C_R   0.261538 0.366534 0.147989 0.556658
C77   C     C_R   0.225172 0.818292 0.860523 0.553557
C78   C     C_R   0.761579 0.866385 0.147919 0.554163
C79   C     C_R   0.725318 0.960241 0.644690 0.547428
C80   C     C_R   0.196111 0.961572 0.041314 -0.138419
C81   C     C_R   0.276981 0.964208 0.356862 0.547262
C82   C     C_R   0.225318 0.460242 0.644690 0.548876
C83   C     C_R   0.776985 0.464221 0.356866 0.547693
C84   C     C_R   0.529180 0.176988 0.644676 0.617006
C85   C     C_R   0.471650 0.176443 0.354685 0.600475
C86   C     C_R   0.029179 0.676988 0.644677 0.618103
C87   C     C_R   0.971650 0.676443 0.354686 0.600474
C88   C     C_R   0.740156 0.367215 0.648201 0.559430
C89   C     C_R   0.258987 0.366584 0.351780 0.552148
C90   C     C_R   0.240155 0.867210 0.648198 0.563657
C91   C     C_R   0.801074 0.959911 0.961845 -0.106687
C92   C     C_R   0.758987 0.866584 0.351780 0.552843
C93   C     C_2   0.536867 0.172863 0.932186 0.376151
C94   C     C_2   0.455571 0.179528 0.066779 0.340739
C95   C     C_2   0.035108 0.671917 0.932019 0.367977
C96   C     C_2   0.954239 0.680089 0.066607 0.337361
C97   C     C_2   0.474978 0.078478 0.032352 0.438563
C98   C     C_2   0.495099 0.083796 0.957293 0.472014
C99   C     C_2   0.970908 0.578713 0.031053 0.437230
C100  C     C_2   0.991209 0.585020 0.955946 0.481858
C101  C     C_R   0.689511 0.447014 0.967901 -0.042621
C102  C     C_R   0.749948 0.406718 0.079353 -0.053396
C103  C     C_R   0.308494 0.460824 0.035832 -0.065232
C104  C     C_R   0.184420 0.935275 0.969907 -0.034280
C105  C     C_R   0.808602 0.960647 0.035664 -0.059206
C106  C     C_2   0.883953 0.323605 0.446427 0.251612
C107  C     C_2   0.130173 0.297062 0.565052 0.268462
C108  C     C_2   0.383950 0.823593 0.446420 0.251622
C109  C     C_2   0.630170 0.797065 0.565053 0.268563
C110  C     C_2   0.633847 0.524885 0.569975 0.213683
C111  C     C_2   0.352093 0.547839 0.421718 0.218665
C112  C     C_2   0.133843 0.024877 0.569969 0.213765
Cr1   Cr    Cr6+3 0.769270 0.163730 0.750710 1.126017
Cr2   Cr    Cr6+3 0.385840 0.322500 0.252290 1.066127
Cr3   Cr    Cr6+3 0.114160 0.822500 0.747710 1.053689
Cr4   Cr    Cr6+3 0.885840 0.822500 0.252290 1.064536
Cr5   Cr    Cr6+3 0.230730 0.163730 0.249290 1.120062
Cr6   Cr    Cr6+3 0.269270 0.663730 0.750710 1.129496
Cr7   Cr    Cr6+3 0.730730 0.663730 0.249290 1.119623
Cr8   Cr    Cr6+3 0.612620 0.009790 0.748780 1.139925
Cr9   Cr    Cr6+3 0.387380 0.009790 0.251220 1.142716
Cr10  Cr    Cr6+3 0.112620 0.509790 0.748780 1.146449
Cr11  Cr    Cr6+3 0.887380 0.509790 0.251220 1.141952
Cr12  Cr    Cr6+3 0.614160 0.322500 0.747710 1.068343
F1    F     F_    0.474257 0.967808 0.064694 -0.493321
F2    F     F_    0.112385 0.393787 0.946323 -0.498994
F3    F     F_    0.345428 0.761491 0.081752 -0.552041
F4    F     F_    0.613385 0.886983 0.945746 -0.510313
F5    F     F_    0.827151 0.213029 0.946916 -0.556097
F6    F     F_    0.126919 0.383564 0.085675 -0.499307
F7    F     F_    0.327328 0.711494 0.946439 -0.555551
F8    F     F_    0.627274 0.880134 0.084972 -0.498299
F9    F     F_    0.471346 0.993763 0.914429 -0.526760
F10   F     F_    0.967676 0.467375 0.062389 -0.499864
F11   F     F_    0.965695 0.498129 0.911905 -0.535888
F12   F     F_    0.446800 0.284924 0.030067 -0.611319
F13   F     F_    0.565367 0.256283 0.976691 -0.619700
F14   F     F_    0.947721 0.786865 0.030830 -0.621750
F15   F     F_    0.065583 0.750939 0.977836 -0.658619
F16   F     F_    0.841433 0.256795 0.083653 -0.559009
H1    H     H_    0.668757 0.532741 0.433794 0.203193
H2    H     H_    0.511652 0.979065 0.564549 0.217752
H3    H     H_    0.997264 0.478709 0.434776 0.218932
H4    H     H_    0.011654 0.479065 0.564550 0.217712
H5    H     H_    0.878369 0.277871 0.396502 0.172622
H6    H     H_    0.147490 0.243588 0.610174 0.134366
H7    H     H_    0.378367 0.777859 0.396494 0.172535
H8    H     H_    0.647485 0.743595 0.610177 0.132369
H9    H     H_    0.628323 0.540330 0.626151 0.148377
H10   H     H_    0.346596 0.575337 0.366636 0.127430
H11   H     H_    0.128317 0.040317 0.626145 0.150759
H12   H     H_    0.328180 0.545865 0.561532 0.194996
H13   H     H_    0.846594 0.075340 0.366637 0.127851
H14   H     H_    0.651050 0.560093 0.876086 0.127767
H15   H     H_    0.378041 0.535789 0.121697 0.152451
H16   H     H_    0.093237 0.958819 0.894847 0.188224
H17   H     H_    0.878381 0.034704 0.121691 0.157171
H18   H     H_    0.469372 0.479744 0.548600 0.206125
H19   H     H_    0.517904 0.480423 0.438998 0.208768
H20   H     H_    0.969369 0.979745 0.548602 0.206286
H21   H     H_    0.017896 0.980424 0.438998 0.208810
H22   H     H_    0.919595 0.327794 0.596799 0.196010
H23   H     H_    0.168753 0.032727 0.433789 0.203219
H24   H     H_    0.084305 0.278981 0.425916 0.199720
H25   H     H_    0.419589 0.827770 0.596792 0.195742
H26   H     H_    0.584306 0.778977 0.425914 0.199712
H27   H     H_    0.828179 0.045863 0.561533 0.195095
H28   H     H_    0.666973 0.537942 0.065281 0.218267
H29   H     H_    0.344697 0.484333 0.928600 0.252013
H30   H     H_    0.163966 0.029468 0.066908 0.221967
H31   H     H_    0.844671 0.985721 0.928500 0.248217
H32   H     H_    0.497263 0.978708 0.434775 0.218917
O1    O     O_R   0.784320 0.290430 0.830510 -0.391934
O2    O     O_R   0.456080 0.282180 0.333210 -0.482745
O3    O     O_R   0.043920 0.782180 0.666790 -0.480779
O4    O     O_R   0.956080 0.782180 0.333210 -0.482835
O5    O     O_R   0.679040 0.374160 0.674430 -0.537423
O6    O     O_R   0.320960 0.374160 0.325570 -0.526775
O7    O     O_R   0.179040 0.874160 0.674430 -0.533656
O8    O     O_R   0.820960 0.874160 0.325570 -0.526303
O9    O     O_3   0.665350 0.165340 0.749070 -0.338191
O10   O     O_3   0.334650 0.165340 0.250930 -0.327705
O11   O     O_3   0.165350 0.665340 0.749070 -0.340406
O12   O     O_R   0.215680 0.290430 0.169490 -0.414421
O13   O     O_3   0.834650 0.665340 0.250930 -0.328520
O14   O     O_R   0.762640 0.040960 0.825200 -0.493132
O15   O     O_R   0.237360 0.040960 0.174800 -0.512961
O16   O     O_R   0.262640 0.540960 0.825200 -0.496761
O17   O     O_R   0.737360 0.540960 0.174800 -0.514802
O18   O     O_R   0.667400 0.923970 0.829950 -0.439359
O19   O     O_R   0.332600 0.923970 0.170050 -0.413579
O20   O     O_R   0.167400 0.423970 0.829950 -0.429063
O21   O     O_R   0.832600 0.423970 0.170050 -0.411765
O22   O     O_R   0.553960 0.081340 0.821780 -0.430198
O23   O     O_R   0.284320 0.790430 0.830510 -0.383186
O24   O     O_R   0.446040 0.081340 0.178220 -0.437618
O25   O     O_R   0.053960 0.581340 0.821780 -0.422613
O26   O     O_R   0.946040 0.581340 0.178220 -0.437217
O27   O     O_R   0.543180 0.283240 0.826740 -0.463445
O28   O     O_R   0.456820 0.283240 0.173260 -0.453553
O29   O     O_R   0.043180 0.783240 0.826740 -0.504928
O30   O     O_R   0.956820 0.783240 0.173260 -0.453979
O31   O     O_R   0.678360 0.375140 0.822710 -0.546891
O32   O     O_R   0.321640 0.375140 0.177290 -0.562456
O33   O     O_R   0.178360 0.875140 0.822710 -0.551261
O34   O     O_R   0.715680 0.790430 0.169490 -0.416305
O35   O     O_R   0.821640 0.875140 0.177290 -0.562970
O36   O     O_R   0.785050 0.289380 0.670560 -0.492519
O37   O     O_R   0.214950 0.289380 0.329440 -0.478924
O38   O     O_R   0.285050 0.789380 0.670560 -0.492480
O39   O     O_R   0.714950 0.789380 0.329440 -0.478392
O40   O     O_R   0.763320 0.039990 0.676930 -0.485548
O41   O     O_R   0.236680 0.039990 0.323070 -0.483069
O42   O     O_R   0.263320 0.539990 0.676930 -0.485419
O43   O     O_R   0.736680 0.539990 0.323070 -0.482500
O44   O     O_R   0.668130 0.922920 0.670000 -0.536109
O45   O     O_R   0.554640 0.080370 0.673500 -0.490968
O46   O     O_R   0.331870 0.922920 0.330000 -0.552404
O47   O     O_R   0.168130 0.422920 0.670000 -0.534409
O48   O     O_R   0.831870 0.422920 0.330000 -0.552110
O49   O     O_2   0.939024 0.306575 0.477910 -0.497726
O50   O     O_2   0.068444 0.294315 0.548403 -0.483700
O51   O     O_2   0.439022 0.806569 0.477902 -0.497721
O52   O     O_2   0.568442 0.794315 0.548400 -0.483623
O53   O     O_2   0.585215 0.555821 0.532123 -0.545988
O54   O     O_2   0.406547 0.569992 0.452660 -0.543699
O55   O     O_2   0.085214 0.055823 0.532116 -0.546193
O56   O     O_R   0.445360 0.080370 0.326500 -0.496043
O57   O     O_2   0.906543 0.070002 0.452662 -0.543769
O58   O     O_2   0.585164 0.560430 0.956673 -0.328689
O59   O     O_2   0.425863 0.528519 0.029494 -0.288086
O60   O     O_2   0.112195 0.106123 0.950386 -0.389175
O61   O     O_2   0.925744 0.029600 0.029239 -0.314672
O62   O     O_2   0.422150 0.378483 0.619779 -0.480986
O63   O     O_2   0.579034 0.381890 0.378550 -0.489734
O64   O     O_2   0.922150 0.878484 0.619783 -0.482498
O65   O     O_2   0.079029 0.881893 0.378552 -0.490377
O66   O     O_2   0.890701 0.477545 0.645663 -0.486034
O67   O     O_R   0.054640 0.580370 0.673500 -0.490535
O68   O     O_2   0.099984 0.417620 0.360857 -0.485186
O69   O     O_2   0.390705 0.977534 0.645648 -0.484072
O70   O     O_2   0.599983 0.917619 0.360857 -0.484657
O71   O     O_R   0.945360 0.580370 0.326500 -0.496157
O72   O     O_R   0.543920 0.282180 0.666790 -0.482169

loop_
_geom_bond_atom_site_label_1
_geom_bond_atom_site_label_2
_ccdc_geom_bond_type
C44   C49   A    
C4    H14   S    
Cr11  O48   S    
C15   O69   D    
Cr7   O43   S    
C72   C89   S    
C6    O60   D    
C83   O43   A    
C75   O1    A    
Cr9   O46   S    
C91   C105  A    
Cr11  O26   S    
C17   C91   A    
C59   C82   S    
C80   H30   S    
C92   O8    A    
C21   C26   A    
C110  H9    S    
C8    H18   S    
C3    O57   D    
C7    O61   D    
C97   C98   S    
Cr5   O12   S    
C54   O28   A    
C57   C62   A    
C1    O14   A    
C87   O4    A    
C5    C103  S    
C98   F9    S    
C33   C39   A    
C106  H5    S    
C80   C104  A    
C50   C59   A    
C64   C68   A    
Cr1   O14   S    
C73   C90   S    
C38   C42   A    
C77   O33   A    
C52   C61   A    
C68   C112  S    
Cr5   O41   S    
Cr5   O10   S    
C106  O49   D    
C56   O30   A    
C9    H19   S    
C2    C36   S    
C65   C70   A    
C55   O29   A    
C96   C99   D    
C11   H21   S    
C49   C57   A    
C16   C48   S    
C44   C71   A    
C86   O3    A    
C18   C102  A    
C74   C92   S    
C3    H13   S    
C24   C29   A    
Cr3   O3    S    
Cr11  O13   S    
C25   O15   A    
C9    C32   S    
C82   O42   A    
C5    O59   D    
Cr1   O9    S    
C82   O47   A    
C20   C24   A    
C16   H26   S    
C51   C108  S    
Cr2   O6    S    
C88   O5    A    
C70   C74   A    
C94   F12   S    
C57   C83   S    
C37   C84   S    
C58   C102  A    
C6    C104  S    
Cr12  O72   S    
C2    C69   A    
C58   H28   S    
Cr8   O9    S    
Cr9   O24   S    
C100  F11   S    
C6    H16   S    
C81   O41   A    
C23   F6    S    
C107  O50   D    
C1    O18   A    
C12   O66   D    
C13   C80   A    
C47   C102  S    
C79   O44   A    
C45   C72   A    
C14   H24   S    
C53   O22   A    
C111  O54   D    
C13   C25   S    
C43   H4    S    
C88   O36   A    
C64   H23   S    
C27   C75   S    
Cr11  O71   S    
C34   C38   A    
C78   O35   A    
C60   C64   A    
C85   O2    A    
C14   C45   S    
C56   O26   A    
C78   O34   A    
C69   C103  A    
C79   O40   A    
C63   C67   A    
C54   O24   A    
Cr10  O47   S    
Cr4   O4    S    
Cr12  O31   S    
C53   C93   S    
C53   O27   A    
Cr1   O36   S    
C48   C74   A    
C67   C72   A    
C3    C70   S    
C93   F13   S    
C20   F3    S    
C55   C95   S    
C25   O19   A    
C90   O38   A    
C107  H6    S    
C62   C66   A    
C95   C100  D    
Cr8   O45   S    
C96   F14   S    
C39   C43   A    
C94   C97   D    
C68   C73   A    
Cr6   O11   S    
C46   C51   A    
C27   C101  A    
C17   C21   A    
C31   C37   A    
C99   F10   S    
C36   O16   A    
C4    O58   D    
C47   O17   A    
C19   C23   A    
Cr7   O13   S    
C32   C35   A    
C66   C71   A    
Cr8   O18   S    
C60   C81   S    
C87   O71   A    
C31   C32   A    
Cr12  O27   S    
Cr2   O2    S    
Cr6   O16   S    
C4    C101  S    
C41   H2    S    
C7    C105  S    
C86   O67   A    
C112  H11   S    
Cr7   O34   S    
C84   O72   A    
C58   C101  A    
C69   H29   S    
C23   C28   A    
C66   C110  S    
C21   F4    S    
C18   F16   S    
Cr6   O23   S    
Cr9   O56   S    
Cr12  O5    S    
C109  O52   D    
C97   F1    S    
C40   C41   A    
C26   C30   A    
Cr10  O67   S    
C22   C27   A    
Cr3   O33   S    
C22   F5    S    
Cr5   O15   S    
C50   C107  S    
Cr2   O32   S    
C95   F15   S    
C109  H8    S    
Cr8   O44   S    
C42   C43   A    
C62   H1    S    
C28   C76   S    
C111  H10   S    
C10   H20   S    
C40   H32   S    
C26   F8    S    
C10   O64   D    
Cr1   O1    S    
C67   C111  S    
C56   C96   S    
Cr4   O8    S    
C28   C103  A    
C90   O7    A    
Cr10  O11   S    
C75   O31   A    
C13   C20   A    
C2    C19   A    
C36   O20   A    
C8    C31   S    
C59   C63   A    
C47   O21   A    
C11   C34   S    
Cr11  O21   S    
Cr7   O17   S    
Cr1   O40   S    
C9    O63   D    
C110  O53   D    
Cr9   O19   S    
Cr3   O11   S    
C76   O32   A    
C5    H15   S    
Cr10  O20   S    
C49   C106  S    
C7    H17   S    
C52   C109  S    
C11   O65   D    
Cr4   O13   S    
C65   H27   S    
C19   F2    S    
Cr7   O39   S    
C39   C86   S    
C99   C100  S    
C91   H31   S    
C38   C87   S    
Cr6   O38   S    
C108  H7    S    
C18   C22   A    
C35   C40   A    
C77   O23   A    
Cr12  O9    S    
C30   C105  A    
Cr2   O10   S    
C14   O68   D    
C83   O48   A    
C35   C85   S    
C24   F7    S    
C55   O25   A    
C45   C50   A    
C61   C79   S    
Cr6   O42   S    
C81   O46   A    
Cr3   O29   S    
Cr5   O37   S    
C33   C34   A    
C10   C33   S    
Cr10  O25   S    
C37   C41   A    
Cr8   O22   S    
C63   H12   S    
C54   C94   S    
Cr4   O35   S    
C89   O6    A    
C84   O45   A    
C12   H22   S    
C71   C88   S    
C30   C78   S    
C61   C65   A    
C48   C52   A    
C29   C77   S    
C1    C17   S    
C29   C104  A    
C12   C44   S    
C108  O51   D    
C85   O56   A    
C42   H3    S    
C112  O55   D    
Cr4   O30   S    
C89   O37   A    
C15   H25   S    
C92   O39   A    
Cr2   O28   S    
C51   C60   A    
C15   C46   S    
C76   O12   A    
C93   C98   D    
C46   C73   A    
Cr3   O7    S    
C8    O62   D    
Cr9   O10   S    
C16   O70   D    
