data_mof_unit_pretest_1519.cif
_audit_creation_date              2012-10-26T19:34:45-0400
_audit_creation_method            fapswitch 2.2
_symmetry_space_group_name_H-M    P1
_symmetry_Int_Tables_number       1
_space_group_crystal_system       triclinic
_cell_length_a                    13.906804
_cell_length_b                    18.250708
_cell_length_c                    19.369338
_cell_angle_alpha                 90.423079
_cell_angle_beta                  92.157595
_cell_angle_gamma                 84.93381
_cell_volume                      4893.39479751

loop_
_atom_site_label
_atom_site_type_symbol
_atom_type_description
_atom_site_fract_x
_atom_site_fract_y
_atom_site_fract_z
_atom_type_partial_charge
C1    C     C_R   0.500603 0.500199 0.632095 0.600661
C2    C     C_R   0.501991 0.567780 0.038046 0.276916
C3    C     C_R   0.504397 0.502222 0.927958 -0.025754
C4    C     C_R   0.502692 0.500027 0.072279 0.044650
C5    C     C_R   0.574481 0.271725 0.531475 0.344890
C6    C     C_R   0.431316 0.722696 0.458874 0.363548
C7    C     C_R   0.575863 0.193472 0.528680 0.280335
C8    C     C_R   0.425332 0.801505 0.457486 0.201809
C9    C     C_R   0.497861 0.160501 0.497402 0.047004
C10   C     C_R   0.496332 0.838896 0.492945 -0.002554
C11   C     C_R   0.421450 0.206163 0.467738 0.261526
C12   C     C_R   0.499813 0.499832 0.367887 0.622743
C13   C     C_R   0.568966 0.797568 0.531423 0.250156
C14   C     C_R   0.424792 0.283120 0.467401 0.372145
C15   C     C_R   0.568781 0.720609 0.536014 0.378062
C16   C     C_R   0.682957 0.488170 0.500209 0.591176
C17   C     C_R   0.317043 0.511826 0.499821 0.598953
C18   C     C_R   0.549891 0.035382 0.446584 0.296435
C19   C     C_R   0.439648 0.964388 0.540186 0.246908
C20   C     C_R   0.548688 0.958164 0.443858 0.282220
C21   C     C_R   0.440893 0.042530 0.542160 0.273899
C22   C     C_R   0.493595 0.921719 0.491313 0.030401
C23   C     C_R   0.419462 0.483302 0.253320 0.190725
C24   C     C_R   0.496731 0.077945 0.495479 0.058667
C25   C     C_1   0.214186 0.518981 0.500007 0.118221
C26   C     C_1   0.785809 0.480996 0.499975 0.126689
C27   C     C_2   0.023999 0.530390 0.500651 0.243729
C28   C     C_2   0.975986 0.469561 0.499193 0.244907
C29   C     C_1   0.872443 0.475236 0.499647 0.120081
C30   C     C_1   0.127547 0.524722 0.500269 0.115434
C31   C     C_R   0.586290 0.515788 0.259799 0.181650
C32   C     C_R   0.588670 0.476610 0.744558 0.245113
C33   C     C_R   0.587524 0.515582 0.186709 0.331303
C34   C     C_R   0.420071 0.526276 0.742570 0.202002
C35   C     C_R   0.591878 0.477841 0.816957 0.342998
C36   C     C_R   0.504042 0.499443 0.148343 0.074927
C37   C     C_R   0.507223 0.502553 0.852026 0.020525
C38   C     C_R   0.420867 0.483655 0.181601 -0.064686
C39   C     C_R   0.422447 0.526519 0.814446 -0.044912
C40   C     C_R   0.501962 0.499383 0.292616 0.011838
C41   C     C_R   0.502977 0.500772 0.707402 -0.010372
C42   C     C_R   0.502983 0.433487 0.034957 0.193195
C43   C     C_R   0.504073 0.568745 0.965228 0.186496
C44   C     C_R   0.502537 0.434654 0.962052 0.238070
Cl1   Cl    Cl    0.036434 0.380453 0.496573 -0.402073
Cl2   Cl    Cl    0.311280 0.556712 0.697918 -0.467550
Cl3   Cl    Cl    0.508159 0.349289 0.080508 -0.461971
Cl4   Cl    Cl    0.509927 0.652114 0.919873 -0.463328
Cl5   Cl    Cl    0.963546 0.619497 0.503210 -0.414410
Cl6   Cl    Cl    0.322333 0.167443 0.426451 -0.339063
Cl7   Cl    Cl    0.659804 0.842002 0.577012 -0.343521
Cl8   Cl    Cl    0.618494 0.078814 0.386644 -0.342681
Cl9   Cl    Cl    0.372493 0.918478 0.599706 -0.426032
Cl10  Cl    Cl    0.689607 0.534668 0.310968 -0.516675
Cl11  Cl    Cl    0.694547 0.447064 0.700879 -0.448161
Cl12  Cl    Cl    0.311798 0.464991 0.292434 -0.486051
Cu1   Cu    Cu3+1 0.500030 0.426640 0.500000 1.098287
Cu2   Cu    Cu3+1 0.499970 0.573360 0.500000 1.145533
H1    H     H_    0.356752 0.471930 0.151443 0.197154
H2    H     H_    0.493502 0.675168 0.048270 0.400206
H3    H     H_    0.622991 0.344986 0.591272 0.388490
H4    H     H_    0.351248 0.712983 0.375659 0.336965
H5    H     H_    0.702475 0.177197 0.576452 0.405514
H6    H     H_    0.293556 0.814848 0.420101 0.368383
H7    H     H_    0.357784 0.545222 0.841338 0.200199
H8    H     H_    0.378046 0.360866 0.406236 0.381786
H9    H     H_    0.620363 0.637676 0.591113 0.370280
H10   H     H_    0.592892 0.867846 0.394629 0.344219
H11   H     H_    0.350627 0.056470 0.617464 0.402905
H12   H     H_    0.721019 0.541581 0.183042 0.397084
H13   H     H_    0.674394 0.465269 0.900976 0.353971
H14   H     H_    0.493593 0.328511 0.951114 0.403906
N1    N     N_R   0.500010 0.316380 0.499980 -0.300563
N2    N     N_R   0.499990 0.683620 0.500020 -0.260042
O1    O     O_R   0.500040 0.438020 0.599820 -0.508855
O2    O     O_3   0.641458 0.684707 0.576376 -0.570588
O3    O     O_3   0.603050 0.920753 0.394251 -0.554548
O4    O     O_3   0.389597 0.086437 0.589096 -0.606625
O5    O     O_3   0.667816 0.530026 0.150728 -0.600869
O6    O     O_3   0.678549 0.455092 0.850928 -0.549631
O7    O     O_3   0.501433 0.371579 0.921978 -0.617186
O8    O     O_3   0.499763 0.631134 0.077942 -0.614895
O9    O     O_3   0.649832 0.301092 0.566546 -0.632860
O10   O     O_3   0.370562 0.683902 0.417664 -0.622015
O11   O     O_3   0.650851 0.147750 0.557972 -0.600132
O12   O     O_R   0.499960 0.561980 0.400180 -0.434553
O13   O     O_3   0.351238 0.843039 0.422743 -0.625978
O14   O     O_R   0.500000 0.561930 0.599810 -0.506033
O15   O     O_R   0.500000 0.438070 0.400190 -0.511268
O16   O     O_R   0.637870 0.429290 0.499990 -0.478300
O17   O     O_R   0.362130 0.570710 0.500010 -0.431315
O18   O     O_R   0.637830 0.553200 0.499980 -0.490006
O19   O     O_R   0.362170 0.446800 0.500020 -0.476520
O20   O     O_3   0.349827 0.323167 0.433075 -0.553319

loop_
_geom_bond_atom_site_label_1
_geom_bond_atom_site_label_2
_ccdc_geom_bond_type
C4    C36   S    
C16   O16   A    
C17   O17   A    
C18   Cl8   S    
C23   Cl12  S    
C10   C22   S    
C3    C43   A    
Cu1   O15   S    
C20   O3    S    
C18   C24   A    
C28   C29   S    
C35   C37   A    
C5    O9    S    
C11   C14   A    
C23   C40   A    
C35   O6    S    
H10   O3    S    
C33   C36   A    
C31   C40   A    
Cu1   N1    S    
C13   Cl7   S    
H2    O8    S    
C21   O4    S    
C32   C41   A    
C31   C33   A    
C34   Cl2   S    
Cu2   O17   S    
H6    O13   S    
H14   O7    S    
H8    O20   S    
C19   Cl9   S    
C1    O14   A    
C15   O2    S    
Cu1   O19   S    
H5    O11   S    
C27   C30   S    
C39   H7    S    
H11   O4    S    
C34   C41   A    
C42   C44   A    
Cu2   O12   S    
H13   O6    S    
C6    N2    A    
C16   C26   S    
C28   Cl1   S    
C3    C44   A    
C6    O10   S    
Cu1   O16   S    
C34   C39   A    
C1    O1    A    
C14   N1    A    
C12   O15   A    
C19   C22   A    
C44   O7    S    
H3    O9    S    
C5    C7    A    
C33   O5    S    
C6    C8    A    
C12   C40   S    
C2    C4    A    
C32   C35   A    
C2    C43   A    
C9    C11   A    
C1    C41   S    
C20   C22   A    
C16   O18   A    
C13   C15   A    
C2    O8    S    
C17   O19   A    
Cu2   N2    S    
C43   Cl4   S    
C25   C30   T    
C7    C9    A    
H4    O10   S    
C32   Cl11  S    
C19   C21   A    
H12   O5    S    
C10   C13   A    
Cu2   O14   S    
C9    C24   S    
C23   C38   A    
C12   O12   A    
C8    O13   S    
C17   C25   S    
Cu1   O1    S    
C36   C38   A    
C37   C39   A    
C11   Cl6   S    
Cu1   Cu2   S    
C7    O11   S    
C4    C42   A    
C18   C20   A    
C42   Cl3   S    
C31   Cl10  S    
C5    N1    A    
C38   H1    S    
C15   N2    A    
C3    C37   S    
C26   C29   T    
C8    C10   A    
C21   C24   A    
C27   C28   D    
H9    O2    S    
Cu2   O18   S    
C14   O20   S    
C27   Cl5   S    
