data_mof_unit_pretest_913.cif
_audit_creation_date              2012-12-11T15:52:11-0500
_audit_creation_method            fapswitch 2.2
_symmetry_space_group_name_H-M    P1
_symmetry_Int_Tables_number       1
_space_group_crystal_system       triclinic
_cell_length_a                    11.296161
_cell_length_b                    11.108577
_cell_length_c                    18.830877
_cell_angle_alpha                 89.743855
_cell_angle_beta                  90.625434
_cell_angle_gamma                 118.949444
_cell_volume                      2067.59389348

loop_
_atom_site_label
_atom_site_type_symbol
_atom_type_description
_atom_site_fract_x
_atom_site_fract_y
_atom_site_fract_z
_atom_type_partial_charge
C1    C     C_R   0.515178 0.459103 0.149830 0.509781
C2    C     C_R   0.574649 0.115776 0.140126 0.569137
C3    C     C_R   0.938643 0.482781 0.147829 0.573222
C4    C     C_R   0.418730 0.545768 0.859361 0.571963
C5    C     C_R   0.069075 0.549086 0.854396 0.603844
C6    C     C_R   0.483389 0.936168 0.852169 0.560640
C7    C     C_3   0.593151 0.831407 0.525837 -0.247841
C8    C     C_3   0.118596 0.771476 0.523240 -0.250209
C9    C     C_3   0.232051 0.349868 0.522263 -0.244913
C10   C     C_3   0.107358 0.756740 0.442940 -0.261650
C11   C     C_3   0.602729 0.855713 0.446552 -0.272752
C12   C     C_3   0.246852 0.355354 0.441887 -0.254771
C13   C     C_R   0.523229 0.455522 0.354520 0.589831
C14   C     C_R   0.547903 0.070992 0.355466 0.598578
C15   C     C_R   0.934726 0.477672 0.354306 0.608183
C16   C     C_R   0.454256 0.518275 0.646733 0.614606
C17   C     C_R   0.063309 0.544747 0.646426 0.618633
C18   C     C_R   0.480362 0.936744 0.646899 0.600793
C19   C     C_R   0.527349 0.004252 0.920930 0.006658
C20   C     C_R   0.023766 0.532115 0.928251 -0.015151
C21   C     C_R   0.424005 0.536911 0.938741 -0.064622
C22   C     C_R   0.005204 0.518630 0.077848 -0.021235
C23   C     C_R   0.558544 0.074573 0.065360 -0.022069
C24   C     C_R   0.471528 0.506968 0.085940 -0.033415
C25   C     C_R   0.444079 0.045928 0.953030 0.078597
C26   C     C_R   0.013009 0.421307 0.964254 -0.027714
C27   C     C_R   0.544548 0.620024 0.971989 -0.044840
C28   C     C_R   0.003136 0.412834 0.037704 0.004311
C29   C     C_R   0.463984 0.086837 0.024286 -0.060287
C30   C     C_R   0.569075 0.602841 0.042834 0.016599
C31   C     C_R   0.616269 0.996589 0.038222 0.018301
C32   C     C_R   0.023089 0.641300 0.041930 -0.031685
C33   C     C_R   0.339659 0.430404 0.055961 0.013719
C34   C     C_R   0.008647 0.635414 0.965464 -0.036617
C35   C     C_R   0.626083 0.988261 0.964125 -0.024355
C36   C     C_R   0.324394 0.428597 0.980683 -0.030931
C37   C     C_3   0.298352 0.950089 0.961959 0.125618
C38   C     C_3   0.893329 0.284548 0.954376 0.176925
C39   C     C_3   0.670848 0.621562 0.951574 0.191639
C40   C     C_3   0.887811 0.270908 0.033893 0.122866
C41   C     C_3   0.321878 0.989862 0.039695 0.109941
C42   C     C_3   0.701033 0.613186 0.029032 0.119316
C43   C     C_R   0.506158 0.993302 0.576145 0.030639
C44   C     C_R   0.023240 0.520133 0.572856 0.029119
C45   C     C_R   0.480166 0.500356 0.573704 0.031428
C46   C     C_R   0.987552 0.486687 0.425599 0.041718
C47   C     C_R   0.518863 0.033109 0.429279 0.035147
C48   C     C_R   0.513671 0.497694 0.426077 0.047019
C49   C     C_R   0.587895 0.962096 0.533328 -0.047371
C50   C     C_R   0.096522 0.627930 0.525991 -0.061202
C51   C     C_R   0.373663 0.464646 0.525642 -0.070555
C52   C     C_R   0.080280 0.612490 0.454181 -0.054025
C53   C     C_R   0.595916 0.983550 0.462141 -0.001834
C54   C     C_R   0.389237 0.465914 0.454144 -0.053879
C55   C     C_R   0.444449 0.078938 0.471820 0.191097
C56   C     C_R   0.930687 0.369026 0.470933 0.194615
C57   C     C_R   0.629227 0.555528 0.472276 0.202960
C58   C     C_R   0.942546 0.387680 0.545896 0.186975
C59   C     C_R   0.445663 0.065996 0.547046 0.184010
C60   C     C_R   0.611274 0.552079 0.547290 0.199196
Cr1   Cr    Cr6+3 0.769160 0.541570 0.250690 1.058001
Cr2   Cr    Cr6+3 0.458430 0.227590 0.250690 1.086286
Cr3   Cr    Cr6+3 0.772410 0.230840 0.250690 1.058690
Cr4   Cr    Cr6+3 0.541570 0.769160 0.749310 1.080489
Cr5   Cr    Cr6+3 0.227590 0.458430 0.749310 1.092272
Cr6   Cr    Cr6+3 0.230840 0.772410 0.749310 1.102053
H1    H     H_    0.267716 0.840958 0.950020 0.109601
H2    H     H_    0.921967 0.220357 0.923790 0.255292
H3    H     H_    0.731629 0.717738 0.922750 0.228669
H4    H     H_    0.795761 0.262748 0.057814 0.080569
H5    H     H_    0.272831 0.046458 0.062407 0.224633
H6    H     H_    0.713283 0.522725 0.044336 0.080662
H7    H     H_    0.496216 0.742434 0.542093 0.134191
H8    H     H_    0.220430 0.845131 0.542676 0.177066
H9    H     H_    0.161806 0.383586 0.541690 0.168567
H10   H     H_    0.021380 0.765915 0.420083 0.186946
H11   H     H_    0.702259 0.877968 0.424627 0.169238
H12   H     H_    0.236615 0.259572 0.418602 0.195889
H13   H     H_    0.686474 0.838370 0.550013 0.183466
H14   H     H_    0.034686 0.781822 0.547517 0.156963
H15   H     H_    0.219249 0.252866 0.546156 0.157587
H16   H     H_    0.205334 0.820203 0.415879 0.158433
H17   H     H_    0.512812 0.778391 0.416474 0.135721
H18   H     H_    0.185723 0.395613 0.414464 0.149025
O1    O     O_R   0.911480 0.572650 0.170990 -0.495761
O2    O     O_R   0.427350 0.338830 0.170990 -0.499788
O3    O     O_R   0.661170 0.088520 0.170990 -0.503768
O4    O     O_R   0.572650 0.911480 0.829010 -0.471944
O5    O     O_R   0.338830 0.427350 0.829010 -0.439828
O6    O     O_R   0.088520 0.661170 0.829010 -0.476801
O7    O     O_R   0.640340 0.528970 0.175680 -0.543086
O8    O     O_R   0.471030 0.111370 0.175680 -0.450936
O9    O     O_R   0.888630 0.359660 0.175680 -0.551721
O10   O     O_R   0.528970 0.640340 0.824320 -0.472631
O11   O     O_R   0.111370 0.471030 0.824320 -0.512305
O12   O     O_R   0.359660 0.888630 0.824320 -0.478153
O13   O     O_R   0.909980 0.572450 0.331530 -0.482461
O14   O     O_R   0.427550 0.337530 0.331530 -0.487752
O15   O     O_R   0.662470 0.090020 0.331530 -0.477901
O16   O     O_R   0.572450 0.909980 0.668470 -0.506191
O17   O     O_R   0.337530 0.427550 0.668470 -0.509999
O18   O     O_R   0.090020 0.662470 0.668470 -0.513817
O19   O     O_R   0.638950 0.528780 0.324500 -0.453759
O20   O     O_R   0.471220 0.110170 0.324500 -0.446330
O21   O     O_R   0.889830 0.361050 0.324500 -0.453859
O22   O     O_R   0.528780 0.638950 0.675500 -0.467767
O23   O     O_R   0.110170 0.471220 0.675500 -0.470181
O24   O     O_R   0.361050 0.889830 0.675500 -0.466973
O25   O     O_3   0.666667 0.333333 0.250560 -0.320373
O26   O     O_3   0.333333 0.666667 0.749440 -0.361855
C61   C     C_2   0.631274 0.898788 0.087018 0.651804
O27   O     O_2   0.742951 0.921772 0.107844 -0.409934
O28   O     O_R   0.516001 0.796542 0.120043 -0.683719
H19   H     H_    0.538629 0.749844 0.160234 0.341342
C62   C     C_2   0.055335 0.768861 0.085873 0.662950
O29   O     O_2   0.045115 0.865092 0.061792 -0.413562
O30   O     O_R   0.109966 0.784882 0.154930 -0.602338
H20   H     H_    0.127460 0.874052 0.178505 0.347017
C63   C     C_2   0.225923 0.336983 0.101666 0.640417
O31   O     O_2   0.172222 0.212423 0.093535 -0.443910
O32   O     O_R   0.190777 0.392112 0.159107 -0.681134
H21   H     H_    0.117759 0.318711 0.189475 0.331533
C64   C     C_2   0.955883 0.714670 0.922383 0.650064
O33   O     O_2   0.970416 0.825282 0.940791 -0.445330
O34   O     O_R   0.882733 0.657964 0.859222 -0.601023
H22   H     H_    0.864400 0.725027 0.830689 0.335637
C65   C     C_2   0.743136 0.970807 0.936538 0.589553
O35   O     O_2   0.805599 0.936144 0.977061 -0.379683
O36   O     O_R   0.796409 0.012057 0.868331 -0.653556
H23   H     H_    0.871784 0.990374 0.857416 0.325078
C66   C     C_2   0.252716 0.292438 0.947851 0.608057
O37   O     O_2   0.318964 0.250040 0.916222 -0.453349
O38   O     O_R   0.113727 0.212319 0.952871 -0.646534
H24   H     H_    0.075219 0.132893 0.918134 0.353067
O39   O     O_3   0.222639 0.995786 0.922951 -0.603434
H25   H     H_    0.172402 0.019378 0.957588 0.396474
O40   O     O_3   0.781240 0.289585 0.923623 -0.670686
H26   H     H_    0.756707 0.346713 0.954066 0.323604
O41   O     O_3   0.647545 0.503206 0.912747 -0.634186
H27   H     H_    0.588303 0.419637 0.940647 0.333602
O42   O     O_3   0.924597 0.174702 0.058151 -0.556540
H28   H     H_    0.920153 0.175714 0.110650 0.370001
O43   O     O_3   0.315863 0.883939 0.084162 -0.639361
H29   H     H_    0.327740 0.815073 0.056161 0.334362
O44   O     O_3   0.799518 0.736951 0.056193 -0.563368
H30   H     H_    0.801598 0.724592 0.108261 0.368507
O45   O     O_3   0.366026 0.127393 0.439416 -0.692517
H31   H     H_    0.285719 0.101646 0.469355 0.312088
O46   O     O_3   0.863501 0.239279 0.441559 -0.680777
H32   H     H_    0.878660 0.175717 0.472656 0.322773
O47   O     O_3   0.756709 0.611053 0.443957 -0.689624
H33   H     H_    0.817459 0.691087 0.473678 0.305873
O48   O     O_3   0.877289 0.280970 0.593310 -0.674888
H34   H     H_    0.796727 0.206947 0.569555 0.344050
O49   O     O_3   0.383805 0.116053 0.591764 -0.681488
H35   H     H_    0.387945 0.198550 0.569201 0.336042
O50   O     O_3   0.717166 0.592235 0.595248 -0.679084
H36   H     H_    0.791390 0.583718 0.572573 0.338060

loop_
_geom_bond_atom_site_label_1
_geom_bond_atom_site_label_2
_ccdc_geom_bond_type
C45   C60   A    
C34   C64   S    
C55   C59   A    
C3    O1    A    
O30   H20   S    
C64   O33   D    
Cr6   O18   S    
C61   O27   D    
C9    C51   S    
Cr5   O17   S    
C10   C52   S    
O44   H30   S    
O46   H32   S    
O39   H25   S    
C7    H7    S    
C5    C20   S    
C48   C54   A    
C6    C19   S    
Cr2   O2    S    
O50   H36   S    
C7    H13   S    
C22   C32   A    
C45   C51   A    
C23   C29   A    
Cr6   O12   S    
Cr1   O19   S    
C41   O43   S    
C17   O23   A    
C64   O34   S    
C28   C40   S    
O43   H29   S    
C46   C52   A    
C33   C36   A    
C6    O4    A    
C12   H18   S    
C13   O14   A    
Cr3   O15   S    
C11   H11   S    
C25   C37   S    
Cr2   O14   S    
C10   H10   S    
O45   H31   S    
C44   C58   A    
C62   O30   S    
C12   H12   S    
C50   C52   A    
O47   H33   S    
C37   O39   S    
C65   O35   D    
C13   O19   A    
C5    O6    A    
C11   C53   S    
C16   O22   A    
C47   C53   A    
C57   O47   S    
C20   C34   A    
C21   C27   A    
Cr1   O25   S    
C1    O7    A    
C22   C28   A    
C40   O42   S    
C27   C30   A    
C18   O16   A    
C15   O13   A    
Cr4   O26   S    
C8    H8    S    
C5    O11   A    
C39   C42   S    
Cr2   O20   S    
C63   O32   S    
Cr5   O23   S    
C25   C29   A    
C39   O41   S    
C48   C57   A    
C60   O50   S    
C7    C49   S    
Cr6   O6    S    
C36   C66   S    
C27   C39   S    
C21   C36   A    
C59   O49   S    
C43   C49   A    
C57   C60   A    
C11   H17   S    
C32   C34   A    
C10   H16   S    
Cr3   O3    S    
Cr2   O8    S    
C23   C31   A    
Cr3   O25   S    
C7    C11   S    
C17   O18   A    
C65   O36   S    
C58   O48   S    
C14   O20   A    
Cr5   O11   S    
C63   O31   D    
C2    C23   S    
C42   H6    S    
C39   H3    S    
Cr1   O13   S    
C2    O3    A    
C61   O28   S    
Cr6   O26   S    
C2    O8    A    
O32   H21   S    
Cr1   O1    S    
C4    O10   A    
C55   O45   S    
C38   H2    S    
C33   C63   S    
C6    O12   A    
O34   H22   S    
C31   C35   A    
C24   C30   A    
Cr3   O21   S    
C66   O37   D    
C8    C50   S    
C35   C65   S    
C47   C55   A    
O28   H19   S    
C44   C50   A    
C1    O2    A    
Cr3   O9    S    
C3    O9    A    
C29   C41   S    
C26   C38   S    
Cr6   O24   S    
C66   O38   S    
C16   C45   S    
C13   C48   S    
O41   H27   S    
Cr4   O22   S    
C14   C47   S    
C43   C59   A    
C4    O5    A    
O40   H26   S    
Cr5   O5    S    
C40   H4    S    
C26   C28   A    
C24   C33   A    
C41   H5    S    
C51   C54   A    
C15   O21   A    
O36   H23   S    
C17   C44   S    
Cr4   O10   S    
C19   C35   A    
C18   C43   S    
C38   C40   S    
C4    C21   S    
C14   O15   A    
O38   H24   S    
Cr2   O25   S    
C20   C26   A    
C49   C53   A    
C37   H1    S    
C38   O40   S    
C56   C58   A    
C32   C62   S    
C37   C41   S    
C19   C25   A    
C9    C12   S    
C18   O24   A    
Cr5   O26   S    
Cr1   O7    S    
C16   O17   A    
Cr4   O16   S    
C1    C24   S    
C8    C10   S    
C46   C56   A    
O49   H35   S    
C8    H14   S    
C31   C61   S    
C30   C42   S    
C3    C22   S    
C9    H9    S    
C15   C46   S    
C56   O46   S    
O42   H28   S    
C42   O44   S    
Cr4   O4    S    
C12   C54   S    
C62   O29   D    
C9    H15   S    
O48   H34   S    
