data_mof_unit_pretest_798.cif
_audit_creation_date              2012-12-10T16:53:11-0500
_audit_creation_method            fapswitch 2.2
_symmetry_space_group_name_H-M    P1
_symmetry_Int_Tables_number       1
_space_group_crystal_system       triclinic
_cell_length_a                    10.843773
_cell_length_b                    11.002784
_cell_length_c                    9.781381
_cell_angle_alpha                 89.673375
_cell_angle_beta                  88.741131
_cell_angle_gamma                 91.041882
_cell_volume                      1166.53681992

loop_
_atom_site_label
_atom_site_type_symbol
_atom_type_description
_atom_site_fract_x
_atom_site_fract_y
_atom_site_fract_z
_atom_type_partial_charge
C1    C     C_R   0.499453 0.265752 0.500402 0.790450
C2    C     C_R   0.054152 0.485882 0.624428 -0.160239
C3    C     C_R   0.125481 0.487126 0.500714 -0.041297
C4    C     C_R   0.064975 0.501792 0.374918 0.441948
C5    C     C_R   0.937226 0.512859 0.375093 -0.247688
C6    C     C_R   0.871676 0.527473 0.497811 -0.111159
C7    C     C_2   0.483431 0.936145 0.398023 -0.084893
C8    C     C_2   0.532375 0.863362 0.495132 -0.183973
C9    C     C_2   0.519786 0.065089 0.394157 -0.073079
C10   C     C_2   0.483799 0.133672 0.501956 0.199293
C11   C     C_2   0.515679 0.405185 0.926961 0.400488
C12   C     C_R   0.261745 0.492652 0.501033 0.838906
C13   C     C_2   0.476490 0.404993 0.076733 0.682652
C14   C     C_R   0.504439 0.733869 0.499333 0.792358
C15   C     C_R   0.737117 0.511586 0.498902 0.799091
C16   C     C_R   0.089492 0.429885 0.748361 -0.027527
C17   C     C_R   0.023342 0.455768 0.870986 0.222436
C18   C     C_R   0.928033 0.542664 0.868599 0.307202
C19   C     C_R   0.885198 0.582915 0.743545 0.431063
C20   C     C_R   0.936450 0.535823 0.621131 -0.148838
Cu1   Cu    Cu3+1 0.500020 0.500020 0.638630 1.054395
Cu2   Cu    Cu3+1 0.499980 0.499980 0.361370 1.100731
H1    H     H_    0.889427 0.508680 0.279332 0.170207
N1    N     N_2   0.498640 0.498660 0.846910 -0.281724
N2    N     N_2   0.498610 0.498630 0.153040 -0.075314
O1    O     O_R   0.500020 0.321960 0.617040 -0.597126
O2    O     O_R   0.499980 0.321920 0.382900 -0.530971
O3    O     O_R   0.319670 0.500020 0.617100 -0.624720
O4    O     O_R   0.319630 0.499980 0.382950 -0.478386
O5    O     O_R   0.500020 0.678080 0.617100 -0.525308
O6    O     O_R   0.499980 0.678040 0.382960 -0.595964
O7    O     O_R   0.680370 0.500020 0.617050 -0.577913
O8    O     O_R   0.680330 0.499980 0.382900 -0.578657
O9    O     O_3   0.130549 0.498767 0.252647 -0.641984
H2    H     H_    0.084817 0.544063 0.183440 0.323491
O10   O     O_3   0.422351 0.077060 0.611663 -0.714803
H3    H     H_    0.412216 0.135154 0.687772 0.371264
O11   O     O_3   0.579947 0.305881 0.881221 -0.721403
H4    H     H_    0.635680 0.333676 0.805355 0.367451
C21   C     C_2   0.413275 0.588237 0.892680 1.048239
O12   O     O_2   0.442111 0.695951 0.884732 -0.482693
O13   O     O_R   0.296452 0.553283 0.944086 -0.760547
H5    H     H_    0.244867 0.625254 0.972275 0.328379
O14   O     O_3   0.417411 0.304360 0.133822 -0.670197
H6    H     H_    0.406563 0.243087 0.060953 0.366043
O15   O     O_3   0.581560 0.578566 0.098577 -0.639973
H7    H     H_    0.608963 0.629718 0.175055 0.391590
C22   C     C_2   0.168565 0.321194 0.743287 0.952670
O16   O     O_2   0.235718 0.296847 0.838047 -0.523182
O17   O     O_R   0.161143 0.243546 0.630987 -0.775491
H8    H     H_    0.206806 0.165301 0.644609 0.354397
O18   O     O_3   0.047971 0.389868 0.987502 -0.637904
H9    H     H_    0.974089 0.389577 0.048895 0.342075
O19   O     O_3   0.869915 0.585390 0.984887 -0.647515
H10   H     H_    0.928489 0.582518 0.060158 0.299425
O20   O     O_3   0.797416 0.672316 0.744497 -0.601667
H11   H     H_    0.796371 0.710118 0.652316 0.308155
C23   C     C_2   0.377098 0.900059 0.311220 0.945372
O21   O     O_2   0.304459 0.819366 0.348010 -0.584446
O22   O     O_R   0.355989 0.964477 0.190579 -0.688187
H12   H     H_    0.280423 0.933462 0.141430 0.352075
C24   C     C_2   0.629555 0.907712 0.589618 0.870588
O23   O     O_2   0.622697 0.881059 0.711120 -0.457577
O24   O     O_R   0.728937 0.978787 0.539422 -0.763823
H13   H     H_    0.788220 0.003100 0.613605 0.354481
C25   C     C_2   0.606359 0.106367 0.281749 0.931891
O25   O     O_2   0.684378 0.185598 0.301793 -0.566270
O26   O     O_R   0.603716 0.048240 0.155097 -0.681500
H14   H     H_    0.667579 0.082782 0.087547 0.365133

loop_
_geom_bond_atom_site_label_1
_geom_bond_atom_site_label_2
_ccdc_geom_bond_type
C19   O20   S    
C11   O11   S    
C25   O26   S    
Cu1   O1    S    
C24   O23   D    
Cu2   O4    S    
C12   O4    A    
C6    C20   A    
Cu1   O5    S    
C7    C23   S    
O20   H11   S    
C19   C20   A    
C5    H1    S    
C14   O6    A    
O24   H13   S    
C16   C22   S    
C22   O17   S    
C17   C18   A    
C6    C15   S    
C15   O7    A    
O15   H7    S    
Cu1   Cu2   S    
O14   H6    S    
C11   C13   S    
C13   N2    D    
C5    C6    A    
C12   O3    A    
C4    C5    A    
C17   O18   S    
C21   O13   S    
C22   O16   D    
N1    C21   S    
Cu1   O3    S    
C14   O5    A    
C2    C3    A    
Cu2   O2    S    
O11   H4    S    
Cu1   O7    S    
C4    O9    S    
C1    O1    A    
C16   C17   A    
Cu2   O6    S    
C18   O19   S    
C2    C20   A    
C3    C4    A    
C7    C9    S    
C11   N1    D    
C7    C8    D    
C2    C16   A    
O18   H9    S    
O10   H3    S    
O9    H2    S    
C9    C10   D    
Cu1   N1    S    
C25   O25   D    
C1    O2    A    
C18   C19   A    
C9    C25   S    
C21   O12   D    
C24   O24   S    
C3    C12   S    
C8    C14   S    
O22   H12   S    
O17   H8    S    
C23   O21   D    
O19   H10   S    
C23   O22   S    
N2    O15   S    
C15   O8    A    
C13   O14   S    
C1    C10   S    
O13   H5    S    
C8    C24   S    
O26   H14   S    
C10   O10   S    
Cu2   N2    S    
Cu2   O8    S    
