data_mof_unit_pretest_1107.cif
_audit_creation_date              2012-12-10T19:07:35-0500
_audit_creation_method            fapswitch 2.2
_symmetry_space_group_name_H-M    P1
_symmetry_Int_Tables_number       1
_space_group_crystal_system       triclinic
_cell_length_a                    10.819751
_cell_length_b                    10.800073
_cell_length_c                    9.546486
_cell_angle_alpha                 90.445567
_cell_angle_beta                  89.96941
_cell_angle_gamma                 90.341398
_cell_volume                      1115.4923692

loop_
_atom_site_label
_atom_site_type_symbol
_atom_type_description
_atom_site_fract_x
_atom_site_fract_y
_atom_site_fract_z
_atom_type_partial_charge
C1    C     C_R   0.498717 0.262583 0.499574 0.820753
C2    C     C_R   0.936161 0.500494 0.625450 0.132542
C3    C     C_3   0.928526 0.600722 0.733845 -0.498703
C4    C     C_3   0.069212 0.602765 0.733194 -0.297039
C5    C     C_R   0.549618 0.065046 0.606294 0.046879
C6    C     C_R   0.491053 0.129631 0.500367 -0.153197
C7    C     C_R   0.417556 0.065401 0.402780 -0.195169
C8    C     C_R   0.411025 0.935950 0.404900 0.379905
C9    C     C_R   0.484887 0.870832 0.502786 -0.207111
C10   C     C_R   0.547863 0.937501 0.606611 -0.011919
C11   C     C_3   0.681319 0.932925 0.649936 0.236713
C12   C     C_R   0.262324 0.498575 0.500044 0.777755
C13   C     C_3   0.681790 0.073673 0.650418 -0.488331
C14   C     C_R   0.590111 0.561575 0.074267 0.248773
C15   C     C_R   0.418942 0.428747 0.073857 -0.004270
C16   C     C_R   0.419226 0.428428 0.924896 -0.004696
C17   C     C_R   0.590281 0.561318 0.926999 0.255682
C18   C     C_3   0.619063 0.696199 0.922789 -0.509640
C19   C     C_3   0.618392 0.696600 0.081606 -0.468039
C20   C     C_R   0.496203 0.737520 0.500427 0.831402
C21   C     C_R   0.737638 0.498260 0.499930 0.828728
C22   C     C_R   0.063621 0.500918 0.625741 0.109964
C23   C     C_R   0.129092 0.488393 0.500452 -0.122834
C24   C     C_R   0.064313 0.459976 0.376548 -0.171865
C25   C     C_R   0.935440 0.459561 0.376474 -0.203077
C26   C     C_R   0.870710 0.487518 0.500304 -0.098362
Cu1   Cu    Cu3+1 0.499990 0.499980 0.640670 0.957325
Cu2   Cu    Cu3+1 0.500010 0.500020 0.359330 0.961606
H1    H     H_    0.112656 0.443033 0.278928 0.191549
H2    H     H_    0.691538 0.114530 0.757096 0.180854
H3    H     H_    0.742149 0.116438 0.569490 0.197528
H4    H     H_    0.351556 0.373218 0.129236 0.139310
H5    H     H_    0.352108 0.372628 0.868578 0.152340
H6    H     H_    0.712236 0.713828 0.878491 0.186768
H7    H     H_    0.542971 0.751668 0.877315 0.224736
H8    H     H_    0.710785 0.715627 0.128162 0.197788
H9    H     H_    0.541451 0.751896 0.126564 0.248539
H10   H     H_    0.887112 0.442505 0.278811 0.174218
H11   H     H_    0.887215 0.687056 0.692428 0.226626
H12   H     H_    0.885978 0.566823 0.832560 0.205495
H13   H     H_    0.108357 0.690083 0.690149 0.131537
H14   H     H_    0.364961 0.115617 0.325339 0.170757
H15   H     H_    0.695720 0.893794 0.755361 0.135306
N1    N     N_R   0.500790 0.500930 0.147930 -0.192513
N2    N     N_R   0.500790 0.500890 0.852020 -0.195052
O1    O     O_R   0.500000 0.319640 0.618810 -0.579117
O2    O     O_R   0.500010 0.319680 0.381230 -0.594432
O3    O     O_R   0.319650 0.499970 0.618810 -0.588484
O4    O     O_R   0.319660 0.500010 0.381230 -0.581009
O5    O     O_R   0.499990 0.680320 0.618770 -0.579305
O6    O     O_R   0.500000 0.680360 0.381190 -0.573293
O7    O     O_R   0.680340 0.499990 0.618770 -0.576468
O8    O     O_R   0.680350 0.500030 0.381190 -0.586720
O9    O     O_3   0.759554 0.880209 0.547870 -0.727929
H16   H     H_    0.741007 0.918156 0.455819 0.338717
C27   C     C_2   0.126836 0.563352 0.870133 0.920413
O10   O     O_2   0.095953 0.465797 0.924328 -0.584776
O11   O     O_R   0.215619 0.637617 0.936811 -0.729439
H17   H     H_    0.236045 0.715721 0.883232 0.293076
O12   O     O_3   0.333659 0.878169 0.309536 -0.713971
H18   H     H_    0.310893 0.795340 0.345248 0.333175

loop_
_geom_bond_atom_site_label_1
_geom_bond_atom_site_label_2
_ccdc_geom_bond_type
Cu1   O3    S    
C2    C22   A    
Cu2   N1    S    
C23   C24   A    
Cu2   O2    S    
C11   H15   S    
C6    C7    A    
C25   H10   S    
C4    C22   S    
Cu2   O4    S    
C1    C6    S    
C9    C20   S    
C5    C13   S    
C14   C17   A    
Cu1   O5    S    
C12   O3    A    
Cu2   O8    S    
C10   C11   S    
Cu1   N2    S    
C12   O4    A    
O11   H17   S    
C24   C25   A    
C3    H11   S    
C7    C8    A    
C2    C26   A    
C3    H12   S    
C8    O12   S    
C21   O8    A    
C11   C13   S    
C12   C23   S    
C11   O9    S    
O12   H18   S    
Cu1   O1    S    
C21   C26   S    
C27   O11   S    
C15   N1    A    
C17   C18   S    
C20   O6    A    
C2    C3    S    
C19   H8    S    
C18   H6    S    
C5    C6    A    
C16   H5    S    
Cu2   O6    S    
C1    O1    A    
C4    H13   S    
C16   N2    A    
C15   C16   A    
C21   O7    A    
C13   H2    S    
C5    C10   A    
Cu1   O7    S    
C18   H7    S    
C14   N1    A    
C18   C19   S    
C9    C10   A    
C7    H14   S    
Cu1   Cu2   S    
C27   O10   D    
O9    H16   S    
C1    O2    A    
C20   O5    A    
C19   H9    S    
C25   C26   A    
C24   H1    S    
C14   C19   S    
C13   H3    S    
C22   C23   A    
C4    C27   S    
C3    C4    S    
C17   N2    A    
C8    C9    A    
C15   H4    S    
