data_mof_unit_pretest_148.cif
_audit_creation_date              2012-12-11T14:08:07-0500
_audit_creation_method            fapswitch 2.2
_symmetry_space_group_name_H-M    P1
_symmetry_Int_Tables_number       1
_space_group_crystal_system       triclinic
_cell_length_a                    10.918563
_cell_length_b                    10.974176
_cell_length_c                    18.766488
_cell_angle_alpha                 89.840107
_cell_angle_beta                  89.258765
_cell_angle_gamma                 60.250247
_cell_volume                      1952.0931225

loop_
_atom_site_label
_atom_site_type_symbol
_atom_type_description
_atom_site_fract_x
_atom_site_fract_y
_atom_site_fract_z
_atom_type_partial_charge
C1    C     C_R   0.236841 0.645024 0.608877 0.569714
C2    C     C_3   0.673666 0.550721 0.800555 0.027147
C3    C     C_3   0.699853 0.676138 0.812522 -0.052817
C4    C     C_3   0.670072 0.650028 0.676456 0.079516
C5    C     C_3   0.816083 0.643857 0.688944 0.361108
C6    C     C_3   0.671915 0.526692 0.719903 -0.229812
C7    C     C_2   0.676875 0.154199 0.669681 -0.063539
C8    C     C_2   0.692118 0.169584 0.828890 0.307420
C9    C     C_2   0.803476 0.110414 0.782009 0.187037
C10   C     C_2   0.786470 0.148070 0.705043 0.171672
C11   C     C_2   0.182013 0.661245 0.681490 -0.050732
C12   C     C_R   0.653522 0.622186 0.601426 0.556308
C13   C     C_2   0.194633 0.663761 0.839011 -0.095270
C14   C     C_2   0.194100 0.561478 0.800236 -0.130145
C15   C     C_2   0.224082 0.548094 0.723409 -0.124821
C16   C     C_2   0.663750 0.652875 0.322160 0.220512
C17   C     C_2   0.628993 0.664122 0.157814 -0.032047
C18   C     C_2   0.702594 0.554124 0.200235 0.193550
C19   C     C_2   0.656160 0.564863 0.274176 -0.153884
C20   C     C_2   0.676878 0.131838 0.336230 0.274095
C21   C     C_2   0.646129 0.150945 0.178192 0.298874
C22   C     C_2   0.605102 0.079724 0.222557 0.243867
C23   C     C_R   0.628480 0.227008 0.601633 0.564005
C24   C     C_2   0.584427 0.113075 0.297884 -0.079210
C25   C     C_2   0.187125 0.663251 0.327395 -0.050240
C26   C     C_2   0.189753 0.640948 0.172432 0.267064
C27   C     C_2   0.240034 0.712656 0.207698 0.247904
C28   C     C_2   0.272940 0.682761 0.282603 -0.088111
C29   C     C_R   0.704121 0.101924 0.897587 0.650214
C30   C     C_R   0.723973 0.688824 0.888356 0.579819
C31   C     C_R   0.118981 0.706762 0.907259 0.560850
C32   C     C_R   0.674660 0.105747 0.104669 0.564549
C33   C     C_R   0.691754 0.688251 0.094436 0.594825
C34   C     C_R   0.223743 0.648868 0.401029 0.542834
C35   C     C_R   0.100140 0.704920 0.110665 0.564684
C36   C     C_R   0.645478 0.624798 0.395255 0.600448
C37   C     C_R   0.621558 0.222629 0.397708 0.597789
C38   C     C_3   0.566938 0.812575 0.784105 0.109747
C39   C     C_3   0.538732 0.790821 0.705289 0.431134
C40   C     C_3   0.833907 0.652056 0.769884 -0.126761
Cr1   Cr    Cr6+3 0.393010 0.398050 0.501480 1.053935
Cr2   Cr    Cr6+3 0.398820 0.707980 0.501630 1.093050
Cr3   Cr    Cr6+3 0.708140 0.393940 0.496850 1.096800
Cr4   Cr    Cr6+3 0.937950 0.938450 0.008940 1.110140
Cr5   Cr    Cr6+3 0.626180 0.937030 0.994750 1.102006
Cr6   Cr    Cr6+3 0.937790 0.625760 0.001410 1.071324
H1    H     H_    0.164888 0.489190 0.824201 0.169215
O1    O     O_R   0.507110 0.256280 0.580300 -0.517956
O2    O     O_R   0.524640 0.695370 0.425100 -0.516493
O3    O     O_R   0.735890 0.504390 0.415980 -0.514263
O4    O     O_R   0.690560 0.277820 0.422350 -0.463068
O5    O     O_3   0.499990 0.499990 0.499980 -0.297217
O6    O     O_R   0.089190 0.825870 0.932320 -0.472931
O7    O     O_R   0.819070 0.053960 0.931440 -0.469327
O8    O     O_R   0.607070 0.076440 0.916460 -0.462679
O9    O     O_R   0.647110 0.806550 0.917690 -0.484974
O10   O     O_R   0.837080 0.593860 0.915300 -0.490280
O11   O     O_R   0.064770 0.636080 0.932550 -0.515169
O12   O     O_R   0.280830 0.527190 0.577940 -0.508687
O13   O     O_R   0.068250 0.829200 0.092940 -0.452568
O14   O     O_R   0.799650 0.057040 0.080330 -0.509283
O15   O     O_R   0.586130 0.079760 0.077080 -0.469087
O16   O     O_R   0.627700 0.809630 0.066580 -0.477805
O17   O     O_R   0.816140 0.597180 0.075920 -0.439119
O18   O     O_R   0.045360 0.639170 0.081440 -0.525312
O19   O     O_3   0.833980 0.833750 0.001700 -0.297088
O20   O     O_R   0.261360 0.738990 0.584270 -0.462685
O21   O     O_R   0.532590 0.694780 0.574370 -0.430899
O22   O     O_R   0.744470 0.503750 0.577000 -0.509235
O23   O     O_R   0.698520 0.277230 0.571620 -0.436320
O24   O     O_R   0.498530 0.256920 0.419280 -0.545569
O25   O     O_R   0.272880 0.527780 0.428680 -0.485424
O26   O     O_R   0.252780 0.739630 0.423250 -0.508242
O27   O     O_3   0.574312 0.936201 0.793531 -0.654605
H2    H     H_    0.661281 0.924209 0.770290 0.322017
H3    H     H_    0.765500 0.425877 0.704376 0.213380
H4    H     H_    0.926922 0.553372 0.787889 0.157625
O28   O     O_3   0.929944 0.514454 0.664772 -0.685889
H5    H     H_    0.957037 0.525664 0.615548 0.357255
O29   O     O_3   0.933179 0.006043 0.805504 -0.704548
H6    H     H_    0.000089 0.971230 0.764628 0.322788
O30   O     O_3   0.884579 0.171773 0.669654 -0.666940
H7    H     H_    0.950023 0.173490 0.705251 0.334828
O31   O     O_3   0.560424 0.279562 0.811720 -0.714805
H8    H     H_    0.571434 0.336595 0.773999 0.309004
H9    H     H_    0.606908 0.124923 0.696756 0.114901
H10   H     H_    0.280917 0.442692 0.701213 0.181224
H11   H     H_    0.231321 0.730759 0.815492 0.122198
H12   H     H_    0.474934 0.827850 0.817277 0.163822
H13   H     H_    0.123531 0.766193 0.703532 0.119207
O32   O     O_3   0.826520 0.438328 0.177272 -0.652645
H14   H     H_    0.866151 0.372201 0.217745 0.358912
H15   H     H_    0.629174 0.486393 0.291807 0.149577
H16   H     H_    0.529360 0.750640 0.176873 0.102292
O33   O     O_3   0.713717 0.744465 0.308206 -0.728395
H17   H     H_    0.751587 0.730707 0.258958 0.343216
O34   O     O_3   0.573419 0.980922 0.196382 -0.701443
H18   H     H_    0.528906 0.954034 0.235096 0.331094
H19   H     H_    0.480737 0.140101 0.318916 0.127408
O35   O     O_3   0.665239 0.259019 0.202506 -0.712643
H20   H     H_    0.690547 0.298348 0.160928 0.344126
O36   O     O_3   0.815484 0.084310 0.315170 -0.654906
H21   H     H_    0.844622 0.006525 0.280419 0.331230
O37   O     O_3   0.250203 0.821263 0.175765 -0.687785
H22   H     H_    0.279794 0.866658 0.212072 0.322253
O38   O     O_3   0.418494 0.774211 0.704877 -0.705242
H23   H     H_    0.334756 0.866905 0.715996 0.352587
H24   H     H_    0.361026 0.692038 0.302520 0.111846
O39   O     O_3   0.213576 0.512983 0.199263 -0.730564
H25   H     H_    0.172098 0.471782 0.167403 0.354636
H26   H     H_    0.096103 0.656545 0.310088 0.140379
O40   O     O_3   0.508288 0.907731 0.661712 -0.631576
H27   H     H_    0.588640 0.924770 0.660783 0.341204
H28   H     H_    0.861908 0.734131 0.782537 0.138225
O41   O     O_3   0.823377 0.755813 0.655918 -0.749107
H29   H     H_    0.806104 0.753421 0.604286 0.318917
O42   O     O_3   0.771541 0.426943 0.835463 -0.677060
H30   H     H_    0.865420 0.391455 0.812441 0.346073
H31   H     H_    0.567797 0.579591 0.823093 0.174129
H32   H     H_    0.578734 0.515349 0.707183 0.127714

loop_
_geom_bond_atom_site_label_1
_geom_bond_atom_site_label_2
_ccdc_geom_bond_type
C7    C10   D    
C12   O22   A    
C39   O38   S    
C24   H19   S    
C27   O37   S    
Cr4   O19   S    
O33   H17   S    
C1    C11   S    
O34   H18   S    
C25   C28   D    
C12   O21   A    
C38   H12   S    
C26   C27   D    
C18   O32   S    
C31   O11   A    
Cr4   O13   S    
C32   O14   A    
Cr6   O19   S    
C1    O12   A    
C38   C39   S    
C37   O4    A    
Cr3   O5    S    
C7    H9    S    
C20   O36   S    
O38   H23   S    
C35   O18   A    
O41   H29   S    
C30   O10   A    
Cr5   O15   S    
C18   C19   S    
O37   H22   S    
C11   C15   D    
Cr4   O6    S    
C40   H28   S    
C20   C24   D    
C3    C38   S    
C8    C9    D    
Cr2   O26   S    
C13   C14   D    
C4    C12   S    
C9    C10   S    
Cr1   O5    S    
Cr5   O9    S    
C25   C34   S    
Cr1   O24   S    
Cr2   O2    S    
Cr3   O22   S    
C22   O34   S    
C21   C22   D    
Cr6   O11   S    
Cr2   O21   S    
C23   O23   A    
C2    C6    S    
C17   C33   S    
C6    H32   S    
O40   H27   S    
C2    O42   S    
C16   C19   D    
C21   C32   S    
O27   H2    S    
O31   H8    S    
Cr1   O12   S    
Cr6   O18   S    
C4    C6    S    
O32   H14   S    
C21   O35   S    
O28   H5    S    
O29   H6    S    
C29   O8    A    
C30   O9    A    
C10   O30   S    
Cr6   O17   S    
C35   O13   A    
C9    O29   S    
C3    C30   S    
C14   C15   S    
C4    C39   S    
C33   O16   A    
C17   C18   D    
C31   O6    A    
C26   O39   S    
Cr1   O25   S    
C39   O40   S    
C3    C40   S    
Cr3   O23   S    
C37   O24   A    
Cr6   O10   S    
Cr2   O20   S    
C22   C24   S    
C8    C29   S    
C34   O25   A    
Cr5   O19   S    
C36   O3    A    
C15   H10   S    
C38   O27   S    
C16   O33   S    
C23   O1    A    
C8    O31   S    
C13   C31   S    
C4    C5    S    
C19   H15   S    
C2    H31   S    
Cr3   O3    S    
C6    H3    S    
C14   H1    S    
Cr4   O14   S    
C2    C3    S    
C32   O15   A    
O42   H30   S    
C16   C36   S    
C20   C37   S    
C11   H13   S    
Cr3   O4    S    
C28   H24   S    
C33   O17   A    
C7    C23   S    
C13   H11   S    
O35   H20   S    
C1    O20   A    
Cr1   O1    S    
Cr5   O16   S    
O36   H21   S    
C25   H26   S    
C34   O26   A    
Cr4   O7    S    
C26   C35   S    
Cr5   O8    S    
O30   H7    S    
C29   O7    A    
C5    C40   S    
C27   C28   S    
C40   H4    S    
C17   H16   S    
C5    O28   S    
O39   H25   S    
C5    O41   S    
C36   O2    A    
Cr2   O5    S    
