data_mof_unit_pretest_1326.cif
_audit_creation_date              2013-03-05T16:32:29-0500
_audit_creation_method            fapswitch 2.2
_symmetry_space_group_name_H-M    P1
_symmetry_Int_Tables_number       1
_space_group_crystal_system       triclinic
_cell_length_a                    15.110534
_cell_length_b                    14.048899
_cell_length_c                    10.838103
_cell_angle_alpha                 90.210476
_cell_angle_beta                  91.129281
_cell_angle_gamma                 88.38006
_cell_volume                      2299.40408422

loop_
_atom_site_label
_atom_site_type_symbol
_atom_site_description
_atom_site_fract_x
_atom_site_fract_y
_atom_site_fract_z
_atom_type_partial_charge
O1    O     O_R   0.369070 0.579480 0.500010 -0.626471
O2    O     O_R   0.369070 0.420520 0.500010 -0.627478
C1    C     C_R   0.326717 0.501603 0.499684 0.858555
O3    O     O_R   0.499990 0.579480 0.314790 -0.638160
O4    O     O_R   0.499990 0.420520 0.314790 -0.630935
C2    C     C_R   0.491180 0.499064 0.257940 0.856795
Zn1   Zn    Zn3+2 0.500010 0.606140 0.500000 0.935155
Zn2   Zn    Zn3+2 0.500010 0.393860 0.500000 0.943025
O5    O     O_R   0.630940 0.579480 0.499990 -0.615209
O6    O     O_R   0.630940 0.420520 0.499990 -0.612854
O7    O     O_R   0.500020 0.579480 0.685200 -0.632225
O8    O     O_R   0.500020 0.420520 0.685200 -0.623099
C3    C     C_R   0.672645 0.498638 0.503948 0.909131
C4    C     C_R   0.498806 0.499703 0.742834 0.862238
C5    C     C_3   0.402036 0.552823 0.065586 -0.156049
C6    C     C_3   0.499403 0.387028 0.073432 -0.152320
H1    H     H_    0.421360 0.621966 0.102443 0.119790
H2    H     H_    0.568411 0.371167 0.104671 0.127395
C7    C     C_3   0.404311 0.559780 0.919354 0.201895
C8    C     C_3   0.497669 0.386173 0.927913 0.220008
H3    H     H_    0.572826 0.619791 0.114527 0.191280
H4    H     H_    0.631651 0.512777 0.114305 0.163833
H5    H     H_    0.573563 0.624351 0.902572 0.211328
H6    H     H_    0.634112 0.521558 0.898175 0.194087
C9    C     C_3   0.569709 0.546554 0.076689 -0.486701
C10   C     C_3   0.485505 0.493793 0.121813 -0.022938
C11   C     C_3   0.491262 0.497634 0.878820 0.057418
C12   C     C_3   0.571562 0.549971 0.934582 -0.523219
C13   C     C_R   0.091433 0.590181 0.437872 -0.152672
C14   C     C_R   0.089146 0.426693 0.504376 -0.176940
H7    H     H_    0.054638 0.654163 0.409879 0.128412
H8    H     H_    0.050632 0.366448 0.531010 0.128983
C15   C     C_R   0.182676 0.591588 0.456380 0.190051
C16   C     C_R   0.180250 0.423899 0.521776 0.169929
C17   C     C_R   0.229227 0.505916 0.493407 -0.091079
C18   C     C_R   0.045706 0.508109 0.459966 0.040256
C19   C     C_R   0.900913 0.450825 0.388993 -0.037487
C20   C     C_R   0.909477 0.564866 0.559640 -0.038494
C21   C     C_R   0.812792 0.434906 0.417289 -0.084281
C22   C     C_R   0.817629 0.561532 0.573371 -0.077081
C23   C     C_R   0.768927 0.496442 0.501013 -0.161851
C24   C     C_R   0.949869 0.512386 0.464055 -0.021454
C25   C     C_R   0.436530 0.105389 0.562678 -0.291188
C26   C     C_R   0.477672 0.895015 0.389843 -0.288863
H9    H     H_    0.387623 0.069363 0.615710 0.136529
H10   H     H_    0.459345 0.931312 0.304852 0.129684
C27   C     C_R   0.436637 0.205283 0.561202 -0.030369
C28   C     C_R   0.476779 0.795187 0.394195 -0.002950
H11   H     H_    0.388706 0.244913 0.614430 0.129861
H12   H     H_    0.457427 0.755997 0.312464 0.122253
N1    N     N_R   0.499980 0.252470 0.500000 -0.096112
N2    N     N_R   0.499980 0.747530 0.500000 -0.095207
C29   C     C_R   0.559170 0.203143 0.429886 0.062194
C30   C     C_R   0.524366 0.796465 0.603372 0.038477
H13   H     H_    0.604394 0.242190 0.375596 0.158803
H14   H     H_    0.542649 0.758069 0.686637 0.155335
C31   C     C_R   0.560121 0.103038 0.425961 -0.273031
C32   C     C_R   0.524520 0.896466 0.603570 -0.292810
H15   H     H_    0.607771 0.064750 0.369946 0.139187
H16   H     H_    0.543175 0.934167 0.687041 0.136001
C33   C     C_R   0.499301 0.052999 0.494964 0.122176
C34   C     C_R   0.500787 0.946917 0.495907 0.129847
C35   C     C_R   0.775843 0.343403 0.375615 0.176171
C36   C     C_R   0.792083 0.262800 0.449915 -0.144915
C37   C     C_R   0.781340 0.171479 0.401432 -0.182646
C38   C     C_R   0.753870 0.160043 0.278585 -0.141275
C39   C     C_R   0.734730 0.239916 0.205421 -0.155506
C40   C     C_R   0.745663 0.331542 0.253595 -0.133566
H17   H     H_    0.818176 0.270733 0.543009 0.122914
H18   H     H_    0.795663 0.109646 0.458437 0.127815
H19   H     H_    0.746378 0.089348 0.240490 0.122938
H20   H     H_    0.712976 0.230119 0.111040 0.148856
H21   H     H_    0.735853 0.392942 0.194853 0.102701
C41   C     C_R   0.776833 0.618889 0.673614 0.148414
C42   C     C_R   0.746177 0.712493 0.650215 -0.106573
C43   C     C_R   0.723886 0.773123 0.748177 -0.176065
C44   C     C_R   0.732510 0.740972 0.869833 -0.116266
C45   C     C_R   0.764077 0.648286 0.893835 -0.150332
C46   C     C_R   0.785437 0.587046 0.796132 -0.169762
H22   H     H_    0.742399 0.739324 0.556594 0.125715
H23   H     H_    0.701180 0.845554 0.729869 0.125012
H24   H     H_    0.715444 0.788107 0.945495 0.119518
H25   H     H_    0.771725 0.623691 0.988143 0.126691
H26   H     H_    0.811802 0.516084 0.815967 0.122461
C47   C     C_R   0.307549 0.555133 0.116851 0.125575
C48   C     C_R   0.264338 0.645469 0.130540 -0.168450
C49   C     C_R   0.173470 0.653898 0.149715 -0.150827
C50   C     C_R   0.123638 0.572692 0.158453 -0.096783
C51   C     C_R   0.164493 0.483129 0.146829 -0.133821
C52   C     C_R   0.254531 0.474676 0.121787 -0.187673
H27   H     H_    0.300271 0.710595 0.121239 0.123441
H28   H     H_    0.141737 0.723612 0.157824 0.123090
H29   H     H_    0.053357 0.579664 0.173713 0.131272
H30   H     H_    0.125926 0.419946 0.151622 0.166591
H31   H     H_    0.279041 0.406037 0.093995 0.122318
C53   C     C_R   0.457868 0.298086 0.133784 0.145785
C54   C     C_R   0.495947 0.207263 0.107116 -0.185359
C55   C     C_R   0.458138 0.123880 0.148445 -0.150346
C56   C     C_R   0.382953 0.128988 0.220704 -0.097595
C57   C     C_R   0.347327 0.217453 0.254790 -0.146586
C58   C     C_R   0.385170 0.300987 0.213864 -0.090874
H32   H     H_    0.554233 0.200439 0.051338 0.130816
H33   H     H_    0.487343 0.055235 0.124377 0.114876
H34   H     H_    0.353410 0.064529 0.252650 0.119283
H35   H     H_    0.290609 0.221341 0.314050 0.122913
H36   H     H_    0.358735 0.367054 0.249648 0.141476
C59   C     C_3   0.317607 0.519484 0.858154 -0.925171
H37   H     H_    0.325971 0.503669 0.758904 0.213138
H38   H     H_    0.290764 0.456203 0.898137 0.246479
H39   H     H_    0.261239 0.571245 0.867591 0.239162
C60   C     C_3   0.413996 0.328915 0.885757 -0.914396
H40   H     H_    0.389549 0.345184 0.791555 0.248599
H41   H     H_    0.425037 0.250899 0.891639 0.217627
H42   H     H_    0.358930 0.337401 0.949471 0.231768
C61   C     C_R   0.404638 0.669727 0.878479 0.145514
C62   C     C_R   0.449376 0.741907 0.946562 -0.229803
C63   C     C_R   0.437518 0.838692 0.919984 -0.161143
C64   C     C_R   0.381572 0.868301 0.823845 -0.117150
C65   C     C_R   0.340612 0.800908 0.750236 -0.155403
C66   C     C_R   0.353428 0.703774 0.774735 -0.091260
H43   H     H_    0.493985 0.726946 0.022387 0.120947
H44   H     H_    0.471651 0.891096 0.975230 0.121322
H45   H     H_    0.371974 0.943405 0.804143 0.120574
H46   H     H_    0.299251 0.824254 0.672964 0.126090
H47   H     H_    0.320929 0.656294 0.711606 0.148505
C67   C     C_R   0.584726 0.330814 0.880168 0.126656
C68   C     C_R   0.671543 0.350979 0.924130 -0.250936
C69   C     C_R   0.747177 0.304830 0.878114 -0.147491
C70   C     C_R   0.739640 0.233999 0.789412 -0.129432
C71   C     C_R   0.656295 0.209019 0.746943 -0.147783
C72   C     C_R   0.580708 0.255891 0.791826 -0.069047
H48   H     H_    0.683702 0.401102 0.996345 0.127715
H49   H     H_    0.811927 0.323038 0.913403 0.142466
H50   H     H_    0.798245 0.197580 0.754985 0.113001
H51   H     H_    0.649943 0.152863 0.678940 0.133117
H52   H     H_    0.519515 0.232156 0.754910 0.137242
C73   C     C_3   0.225663 0.686527 0.439653 -0.862992
H53   H     H_    0.278185 0.681644 0.370065 0.258831
H54   H     H_    0.177556 0.743036 0.408247 0.210984
H55   H     H_    0.254001 0.710608 0.528697 0.236139
C74   C     C_3   0.220932 0.334251 0.577168 -0.925452
H56   H     H_    0.262699 0.352267 0.658657 0.239245
H57   H     H_    0.170214 0.284862 0.609550 0.221250
H58   H     H_    0.259853 0.295344 0.506693 0.252702
C75   C     C_R   0.939720 0.404128 0.278459 0.145242
C76   C     C_R   0.926063 0.447207 0.162676 -0.185603
C77   C     C_R   0.952303 0.399856 0.055255 -0.171899
C78   C     C_R   0.991063 0.308483 0.062490 -0.140275
C79   C     C_R   0.004211 0.264730 0.177337 -0.138751
C80   C     C_R   0.978316 0.312085 0.285063 -0.120828
H59   H     H_    0.893741 0.516846 0.155596 0.117928
H60   H     H_    0.941834 0.433666 0.966394 0.126035
H61   H     H_    0.010839 0.271624 0.979177 0.121496
H62   H     H_    0.033529 0.193655 0.182764 0.123689
H63   H     H_    0.985684 0.275825 0.372694 0.113190
C81   C     C_R   0.964566 0.616981 0.651413 0.155158
C82   C     C_R   0.011050 0.566130 0.744512 -0.142641
C83   C     C_R   0.065638 0.613682 0.828310 -0.149960
C84   C     C_R   0.074201 0.712216 0.819888 -0.113515
C85   C     C_R   0.027518 0.763404 0.727942 -0.133870
C86   C     C_R   0.972636 0.716044 0.643886 -0.144634
H64   H     H_    0.005423 0.489646 0.751340 0.115435
H65   H     H_    0.101520 0.573896 0.899251 0.151885
H66   H     H_    0.117001 0.748830 0.884511 0.129445
H67   H     H_    0.034192 0.839707 0.721454 0.119118
H68   H     H_    0.937447 0.756061 0.572188 0.109936

loop_
_geom_bond_atom_site_label_1
_geom_bond_atom_site_label_2
_geom_bond_distance
_ccdc_geom_bond_type
C32   C34   1.402769 A    
C14   H8    1.083813 S    
C49   C50   1.389140 A    
C16   C74   1.507239 S    
C67   C68   1.422541 A    
C18   C24   1.449236 S    
C77   C78   1.397659 A    
C20   C81   1.488223 S    
C42   C43   1.399100 A    
C69   C70   1.386535 A    
C3    C23   1.455294 S    
C54   C55   1.396810 A    
C52   H31   1.067642 S    
C27   H11   1.076404 S    
C2    C10   1.477866 S    
C65   H46   1.081373 S    
C9    C12   1.541922 S    
C5    C7    1.589350 S    
C73   H54   1.110919 S    
C13   C18   1.384850 A    
C57   H35   1.081114 S    
C82   C83   1.395958 A    
C44   H24   1.082663 S    
C81   C82   1.403867 A    
Zn1   N2    1.986361 S    
C39   H20   1.077782 S    
C77   H60   1.082250 S    
C48   H27   1.083069 S    
C74   H57   1.111037 S    
C47   C48   1.419374 A    
O4    C2    1.268244 A    
O7    C4    1.285854 A    
C31   H15   1.081326 S    
C32   H16   1.083184 S    
C55   H33   1.082348 S    
C13   C15   1.390021 A    
C19   C24   1.401549 A    
C62   C63   1.396778 A    
C5    H1    1.094081 S    
C16   C17   1.424679 A    
C51   H30   1.077509 S    
O5    C3    1.283635 A    
C64   C65   1.387103 A    
C68   H48   1.067601 S    
C74   H56   1.108060 S    
C45   H25   1.083129 S    
C71   H51   1.082613 S    
C15   C73   1.513001 S    
H4    C9    1.108463 S    
C59   H37   1.106545 S    
C1    C17   1.472901 S    
C4    C11   1.480930 S    
C7    C11   1.623763 S    
C42   H22   1.083607 S    
C54   H32   1.079873 S    
C6    C8    1.576855 S    
C5    C47   1.541669 S    
N2    C30   1.362354 A    
C28   H12   1.081016 S    
C38   C39   1.396688 A    
C79   H62   1.082195 S    
C49   H28   1.082287 S    
C13   H7    1.084548 S    
C59   H38   1.082973 S    
C69   H49   1.080585 S    
O3    Zn1   2.040613 S    
C26   H10   1.081957 S    
C75   C76   1.404234 A    
C29   H13   1.074035 S    
C6    C10   1.596754 S    
C73   H55   1.103940 S    
C30   H14   1.080278 S    
C6    C53   1.565123 S    
C41   C42   1.404128 A    
C14   C16   1.385273 A    
C39   C40   1.400216 A    
H6    C12   1.095709 S    
C43   C44   1.397767 A    
C21   C23   1.412671 A    
C72   H52   1.062139 S    
C62   H43   1.070202 S    
C74   H58   1.106585 S    
C29   C31   1.406521 A    
C48   C49   1.394406 A    
C5    C10   1.601301 S    
C27   N1    1.363714 A    
C26   C34   1.402679 A    
C40   H21   1.079108 S    
C44   C45   1.397584 A    
C76   H59   1.083346 S    
O1    C1    1.282993 A    
Zn1   O7    2.043210 S    
C63   H44   1.082879 S    
C38   H19   1.082219 S    
C8    C67   1.602862 S    
C8    C60   1.576836 S    
C71   C72   1.397075 A    
C84   C85   1.398811 A    
C84   H66   1.082460 S    
C7    C61   1.608640 S    
Zn2   O8    2.040506 S    
C53   C54   1.415990 A    
C60   H41   1.105877 S    
C36   H17   1.082525 S    
C78   C79   1.398433 A    
C25   H9    1.082899 S    
Zn2   N1    1.986387 S    
C83   H65   1.080348 S    
O3    C2    1.293770 A    
C22   C23   1.415208 A    
O8    C4    1.273658 A    
C81   C86   1.403296 A    
C37   C38   1.396873 A    
C41   C46   1.405181 A    
C83   C84   1.397448 A    
C59   H39   1.110232 S    
C47   C52   1.405577 A    
H5    C12   1.103650 S    
C78   H61   1.082235 S    
C68   C69   1.397647 A    
C25   C33   1.401418 A    
C76   C77   1.397426 A    
C30   C32   1.404967 A    
C58   H36   1.074221 S    
Zn1   O5    2.003135 S    
H3    C9    1.108115 S    
C50   H29   1.079669 S    
C60   H40   1.101439 S    
O1    Zn1   2.024089 S    
Zn2   O6    2.023942 S    
O2    Zn2   2.003282 S    
C75   C80   1.404898 A    
C35   C36   1.405046 A    
O6    C3    1.281059 A    
C43   H23   1.082418 S    
O4    Zn2   2.043315 S    
C65   C66   1.398545 A    
C61   C66   1.428477 A    
C31   C33   1.401990 A    
C8    C11   1.655300 S    
C21   C35   1.481436 S    
C73   H53   1.106128 S    
C35   C40   1.401269 A    
C63   C64   1.386343 A    
C56   C57   1.391960 A    
C14   C18   1.385625 A    
C80   H63   1.081722 S    
C19   C75   1.486466 S    
C36   C37   1.397110 A    
C85   H67   1.082222 S    
O2    C1    1.290706 A    
C9    C10   1.577359 S    
C19   C21   1.396617 A    
C79   C80   1.398738 A    
C85   C86   1.399040 A    
C20   C22   1.400854 A    
C45   C46   1.398835 A    
C61   C62   1.429467 A    
C46   H26   1.083775 S    
C67   C72   1.422067 A    
C57   C58   1.397399 A    
C15   C17   1.431435 A    
C22   C41   1.483765 S    
C56   H34   1.081892 S    
C60   H42   1.095378 S    
C64   H45   1.082455 S    
C66   H47   1.075239 S    
C33   C34   1.489948 S    
C86   H68   1.082891 S    
C70   H50   1.082227 S    
C20   C24   1.408267 A    
C26   C28   1.403895 A    
C28   N2    1.364801 A    
C50   C51   1.392182 A    
C6    H2    1.106851 S    
C55   C56   1.392558 A    
C11   C12   1.548048 S    
C70   C71   1.386362 A    
N1    C29   1.358492 A    
C51   C52   1.394264 A    
C53   C58   1.412953 A    
C25   C27   1.403610 A    
C82   H64   1.083180 S    
C37   H18   1.082221 S    
C7    C59   1.575394 S    
