data_mof_unit_pretest_977.cif
_audit_creation_date              2013-03-05T15:45:23-0500
_audit_creation_method            fapswitch 2.2
_symmetry_space_group_name_H-M    P1
_symmetry_Int_Tables_number       1
_space_group_crystal_system       triclinic
_cell_length_a                    10.947665
_cell_length_b                    10.947604
_cell_length_c                    18.785271
_cell_angle_alpha                 90.000375
_cell_angle_beta                  90.000277
_cell_angle_gamma                 120.000135
_cell_volume                      1949.79110413

loop_
_atom_site_label
_atom_site_type_symbol
_atom_site_description
_atom_site_fract_x
_atom_site_fract_y
_atom_site_fract_z
_atom_type_partial_charge
O1    O     O_R   0.916700 0.566820 0.669930 -0.470152
O2    O     O_R   0.650120 0.083300 0.830070 -0.470141
O3    O     O_R   0.433180 0.349880 0.669930 -0.470399
O4    O     O_R   0.916700 0.566820 0.830070 -0.470143
O5    O     O_R   0.650120 0.083300 0.669930 -0.470130
O6    O     O_R   0.433180 0.349880 0.830070 -0.470176
O7    O     O_R   0.566820 0.916700 0.169930 -0.464912
O8    O     O_R   0.083300 0.650120 0.330070 -0.464837
O9    O     O_R   0.349880 0.433180 0.169930 -0.464915
O10   O     O_R   0.566820 0.916700 0.330070 -0.464904
O11   O     O_R   0.083300 0.650120 0.169930 -0.464888
O12   O     O_R   0.349880 0.433180 0.330070 -0.464942
O13   O     O_R   0.649840 0.534790 0.674920 -0.457626
O14   O     O_R   0.884950 0.350160 0.825080 -0.457680
O15   O     O_R   0.465210 0.115050 0.674920 -0.457690
O16   O     O_R   0.649840 0.534790 0.825080 -0.457663
O17   O     O_R   0.884950 0.350160 0.674920 -0.457682
O18   O     O_R   0.465210 0.115050 0.825080 -0.457663
O19   O     O_R   0.534790 0.649840 0.174920 -0.474836
O20   O     O_R   0.350160 0.884950 0.325080 -0.474827
O21   O     O_R   0.115050 0.465210 0.174920 -0.474837
O22   O     O_R   0.534790 0.649840 0.325080 -0.474842
O23   O     O_R   0.350160 0.884950 0.174920 -0.474848
O24   O     O_R   0.115050 0.465210 0.325080 -0.474835
C1    C     C_R   0.528388 0.471131 0.647492 0.550299
C2    C     C_R   0.942755 0.471613 0.852506 0.550337
C3    C     C_R   0.528861 0.057258 0.647490 0.550363
C4    C     C_R   0.528388 0.471140 0.852507 0.550345
C5    C     C_R   0.942756 0.471613 0.647495 0.550334
C6    C     C_R   0.528858 0.057248 0.852506 0.550354
C7    C     C_R   0.464240 0.530686 0.144544 0.589874
C8    C     C_R   0.469319 0.933565 0.355453 0.589851
C9    C     C_R   0.066457 0.535764 0.144541 0.589870
C10   C     C_R   0.464252 0.530678 0.355450 0.589909
C11   C     C_R   0.469312 0.933553 0.144544 0.589855
C12   C     C_R   0.066455 0.535763 0.355459 0.589874
Cr1   Cr    Cr6+3 0.776430 0.541680 0.750000 1.193129
Cr2   Cr    Cr6+3 0.765250 0.223570 0.750000 1.193123
Cr3   Cr    Cr6+3 0.458320 0.234750 0.750000 1.193043
Cr4   Cr    Cr6+3 0.541680 0.776430 0.250000 1.184708
Cr5   Cr    Cr6+3 0.223570 0.765250 0.250000 1.184764
Cr6   Cr    Cr6+3 0.234750 0.458320 0.250000 1.184692
O25   O     O_3   0.666667 0.333333 0.750000 -0.328626
O26   O     O_3   0.333333 0.666667 0.250000 -0.361822
C13   C     C_R   0.381392 0.012300 0.537593 0.153964
C14   C     C_R   0.630846 0.618641 0.962392 0.154061
C15   C     C_R   0.987806 0.369154 0.537612 0.154086
C16   C     C_R   0.381362 0.012224 0.962392 0.154041
C17   C     C_R   0.630831 0.618635 0.537607 0.154063
C18   C     C_R   0.987803 0.369153 0.962388 0.154066
C19   C     C_R   0.991008 0.378888 0.037264 0.153871
C20   C     C_R   0.621120 0.612124 0.462730 0.153814
C21   C     C_R   0.387895 0.009019 0.037269 0.153881
C22   C     C_R   0.991010 0.378885 0.462736 0.153877
C23   C     C_R   0.621116 0.612113 0.037268 0.153859
C24   C     C_R   0.387962 0.009107 0.462716 0.153984
C25   C     C_R   0.477651 0.966911 0.430906 -0.014736
C26   C     C_R   0.489257 0.522361 0.069091 -0.014771
C27   C     C_R   0.033133 0.510751 0.430915 -0.014787
C28   C     C_R   0.477631 0.966888 0.069089 -0.014769
C29   C     C_R   0.489283 0.522322 0.430898 -0.014738
C30   C     C_R   0.033136 0.510754 0.069085 -0.014779
C31   C     C_R   0.011491 0.488565 0.921509 -0.037462
C32   C     C_R   0.511430 0.522853 0.578476 -0.037538
C33   C     C_R   0.477081 0.988526 0.921513 -0.037461
C34   C     C_R   0.011491 0.488566 0.578492 -0.037431
C35   C     C_R   0.511436 0.522909 0.921514 -0.037487
C36   C     C_R   0.477083 0.988558 0.578479 -0.037403
C37   C     C_R   0.553493 0.922770 0.473529 -0.138362
C38   C     C_R   0.369274 0.446445 0.026474 -0.138368
C39   C     C_R   0.077234 0.630738 0.473534 -0.138378
C40   C     C_R   0.553519 0.922792 0.026471 -0.138362
C41   C     C_R   0.369306 0.446296 0.473504 -0.138374
C42   C     C_R   0.077242 0.630740 0.026468 -0.138374
C43   C     C_R   0.068302 0.619906 0.953649 -0.146725
C44   C     C_R   0.380117 0.448183 0.546319 -0.146927
C45   C     C_R   0.551614 0.931720 0.953653 -0.146734
C46   C     C_R   0.068296 0.619907 0.546352 -0.146709
C47   C     C_R   0.380103 0.448348 0.953656 -0.146771
C48   C     C_R   0.551591 0.931718 0.546345 -0.146711
H1    H     H_    0.614610 0.879949 0.450609 0.207686
H2    H     H_    0.265350 0.385273 0.049400 0.207766
H3    H     H_    0.120020 0.734665 0.450610 0.207805
H4    H     H_    0.614675 0.880019 0.049396 0.207731
H5    H     H_    0.265391 0.385050 0.450574 0.207933
H6    H     H_    0.120029 0.734668 0.049393 0.207719
H7    H     H_    0.096334 0.713288 0.922591 0.226479
H8    H     H_    0.286742 0.382736 0.577363 0.226582
H9    H     H_    0.616958 0.903682 0.922594 0.226480
H10   H     H_    0.096329 0.713294 0.577410 0.226486
H11   H     H_    0.286722 0.382984 0.922599 0.226496
H12   H     H_    0.616911 0.903655 0.577408 0.226471
N1    N     N_R   0.280045 0.040298 0.571617 0.122642
O27   O     O_R   0.256896 0.138350 0.547862 -0.234478
O28   O     O_R   0.205174 0.962741 0.624763 -0.279940
N2    N     N_R   0.760214 0.719896 0.928372 0.122988
O29   O     O_R   0.881285 0.742289 0.951876 -0.234893
O30   O     O_R   0.757676 0.795022 0.875316 -0.279828
N3    N     N_R   0.959682 0.239783 0.571633 0.122985
O31   O     O_R   0.860982 0.118715 0.548135 -0.234878
O32   O     O_R   0.037345 0.242315 0.624688 -0.279879
N4    N     N_R   0.280089 0.040316 0.928370 0.122929
O33   O     O_R   0.257552 0.138879 0.951920 -0.234820
O34   O     O_R   0.205009 0.962671 0.875296 -0.279838
N5    N     N_R   0.760182 0.719907 0.571636 0.123005
O35   O     O_R   0.881264 0.742294 0.548154 -0.234896
O36   O     O_R   0.757616 0.795022 0.624691 -0.279857
N6    N     N_R   0.959680 0.239780 0.928368 0.122984
O37   O     O_R   0.861006 0.118712 0.951876 -0.234897
O38   O     O_R   0.037333 0.242310 0.875309 -0.279831
N7    N     N_R   0.950744 0.256373 0.080666 0.108433
O39   O     O_R   0.014368 0.183498 0.074030 -0.198198
O40   O     O_R   0.854625 0.221428 0.129515 -0.269751
N8    N     N_R   0.743636 0.694449 0.419340 0.108429
O41   O     O_R   0.816496 0.830939 0.426021 -0.198129
O42   O     O_R   0.778625 0.633346 0.370471 -0.269672
N9    N     N_R   0.305651 0.049284 0.080674 0.108461
O43   O     O_R   0.169135 0.985561 0.074089 -0.198237
O44   O     O_R   0.366840 0.145447 0.129503 -0.269778
N10   N     N_R   0.950736 0.256365 0.419334 0.108427
O45   O     O_R   0.014331 0.183465 0.425980 -0.198225
O46   O     O_R   0.854623 0.221429 0.370481 -0.269746
N11   N     N_R   0.743631 0.694385 0.080668 0.108438
O47   O     O_R   0.816494 0.830883 0.074025 -0.198182
O48   O     O_R   0.778587 0.633231 0.129524 -0.269726
N12   N     N_R   0.305821 0.049467 0.419293 0.108634
O49   O     O_R   0.169216 0.985290 0.425587 -0.198513
O50   O     O_R   0.367163 0.145861 0.370583 -0.269925

loop_
_geom_bond_atom_site_label_1
_geom_bond_atom_site_label_2
_geom_bond_distance
_ccdc_geom_bond_type
O16   C4    1.261897 A    
C36   C48   1.387269 A    
N1    O27   1.299105 A    
N8    O42   1.301225 A    
C22   N10   1.437644 S    
O24   Cr6   1.952182 S    
N7    O39   1.301111 A    
O18   Cr3   1.952179 S    
C12   C27   1.455130 S    
O19   C7    1.271300 A    
N8    O41   1.301103 A    
N11   O47   1.301105 A    
C46   H10   1.079829 S    
N5    O36   1.301310 A    
C45   H9    1.079804 S    
O9    Cr6   2.067293 S    
N12   O49   1.301313 A    
C7    C26   1.455108 S    
C20   C29   1.410068 A    
N9    O44   1.301221 A    
O20   C8    1.271317 A    
C21   N9    1.437615 S    
N11   O48   1.301220 A    
O21   C9    1.271295 A    
C28   C40   1.401886 A    
C15   N3    1.439825 S    
N6    O37   1.298808 A    
O10   Cr4   2.067275 S    
O8    C12   1.264099 A    
O12   Cr6   2.067285 S    
C3    C36   1.463302 S    
O5    C3    1.281703 A    
O6    C4    1.281655 A    
C13   C24   1.409765 A    
C9    C30   1.455107 S    
N2    O30   1.301312 A    
C14   C23   1.409704 A    
C19   N7    1.437630 S    
O7    Cr4   2.067292 S    
O18   C6    1.261880 A    
C24   N12   1.437558 S    
C16   C33   1.423722 A    
C44   H8    1.079812 S    
C15   C34   1.423706 A    
O13   Cr1   1.952173 S    
O1    Cr1   2.067297 S    
O16   Cr1   1.952183 S    
O3    Cr3   2.067291 S    
N1    O28   1.301364 A    
C17   C32   1.423707 A    
O5    Cr2   2.067273 S    
C18   N6    1.439829 S    
C18   C31   1.423701 A    
O13   C1    1.261903 A    
C19   C30   1.410050 A    
Cr6   O26   1.976260 S    
C8    C25   1.455099 S    
O22   C10   1.271316 A    
C21   C28   1.410053 A    
N10   O46   1.301226 A    
O20   Cr5   1.952163 S    
C39   H3    1.080010 S    
C22   C27   1.410064 A    
C16   C21   1.409726 A    
C34   C46   1.387279 A    
C23   N11   1.437636 S    
C33   C45   1.387267 A    
C42   C43   1.372305 A    
O11   C9    1.264087 A    
C4    C35   1.463299 S    
C35   C47   1.387271 A    
O8    Cr5   2.067296 S    
C26   C38   1.401885 A    
Cr3   O25   1.976272 S    
C29   C41   1.401899 A    
C10   C29   1.455092 S    
C42   H6    1.080020 S    
C5    C34   1.463312 S    
C11   C28   1.455116 S    
C1    C32   1.463241 S    
C48   H12   1.079798 S    
C2    C31   1.463313 S    
C40   C45   1.372294 A    
O14   Cr2   1.952162 S    
O2    Cr2   2.067295 S    
O15   C3    1.261848 A    
N3    O31   1.298815 A    
O3    C1    1.281615 A    
C17   C20   1.409702 A    
O22   Cr4   1.952180 S    
N2    O29   1.298814 A    
C13   C36   1.423791 A    
O1    C5    1.281662 A    
C18   C19   1.409705 A    
C32   C44   1.387295 A    
N7    O40   1.301217 A    
O24   C12   1.271292 A    
O14   C2    1.261886 A    
N4    O34   1.301330 A    
O15   Cr3   1.952169 S    
C40   H4    1.080036 S    
C15   C22   1.409711 A    
C43   H7    1.079802 S    
N3    O32   1.301310 A    
Cr4   O26   1.976270 S    
C13   N1    1.439978 S    
O23   C11   1.271304 A    
C41   C44   1.372225 A    
Cr1   O25   1.976259 S    
C24   C25   1.410012 A    
O12   C10   1.264073 A    
N10   O45   1.301107 A    
C41   H5    1.080050 S    
N12   O50   1.301252 A    
C38   C47   1.372292 A    
C47   H11   1.079800 S    
C17   N5    1.439830 S    
O4    C2    1.281667 A    
C20   N8    1.437648 S    
N5    O35   1.298816 A    
O23   Cr5   1.952187 S    
C16   N4    1.439878 S    
O2    C6    1.281681 A    
C14   C35   1.423696 A    
O17   C5    1.261890 A    
C31   C43   1.387265 A    
O7    C11   1.264093 A    
Cr5   O26   1.976271 S    
N6    O38   1.301308 A    
O11   Cr5   2.067275 S    
O17   Cr2   1.952186 S    
N4    O33   1.298883 A    
C38   H2    1.080031 S    
C6    C33   1.463317 S    
C37   H1    1.080036 S    
O19   Cr4   1.952168 S    
O9    C7    1.264085 A    
O21   Cr6   1.952175 S    
O10   C8    1.264077 A    
Cr2   O25   1.976269 S    
C14   N2    1.439828 S    
O4    Cr1   2.067283 S    
C23   C26   1.410057 A    
O6    Cr3   2.067280 S    
C30   C42   1.401881 A    
C37   C48   1.372272 A    
C25   C37   1.401870 A    
N9    O43   1.301141 A    
C39   C46   1.372300 A    
C27   C39   1.401897 A    
