data_mof_unit_pretest_193.cif
_audit_creation_date              2012-12-10T16:38:36-0500
_audit_creation_method            fapswitch 2.2
_symmetry_space_group_name_H-M    P1
_symmetry_Int_Tables_number       1
_space_group_crystal_system       triclinic
_cell_length_a                    10.905696
_cell_length_b                    10.891051
_cell_length_c                    17.622975
_cell_angle_alpha                 98.26871
_cell_angle_beta                  72.737139
_cell_angle_gamma                 98.773318
_cell_volume                      1964.68218293

loop_
_atom_site_label
_atom_site_type_symbol
_atom_type_description
_atom_site_fract_x
_atom_site_fract_y
_atom_site_fract_z
_atom_type_partial_charge
C1    C     C_R   0.157693 0.478317 0.518771 0.730390
C2    C     C_R   0.546835 0.339912 0.918110 0.428557
C3    C     C_R   0.615096 0.282799 0.957808 0.332809
C4    C     C_R   0.844290 0.520955 0.481861 0.901079
C5    C     C_R   0.607499 0.323512 0.039125 -0.097618
C6    C     C_R   0.516418 0.406188 0.082677 -0.003288
C7    C     C_R   0.688240 0.283373 0.077686 -0.171114
C8    C     C_R   0.676535 0.319902 0.158816 0.053227
C9    C     C_R   0.518745 0.458408 0.160693 0.410184
C10   C     C_2   0.984153 0.528766 0.473578 -0.139061
C11   C     C_2   0.021825 0.471950 0.525425 0.298796
C12   C     C_R   0.271482 0.617353 0.844472 0.247902
C13   C     C_2   0.544414 0.968606 0.477875 0.198732
C14   C     C_2   0.451874 0.036963 0.524796 0.262168
C15   C     C_R   0.467531 0.168892 0.517843 0.833455
C16   C     C_R   0.531033 0.833535 0.482844 0.798834
C17   C     C_R   0.564785 0.435924 0.287417 0.792252
C18   C     C_R   0.435929 0.563795 0.713266 0.828033
C19   C     C_R   0.394175 0.578947 0.802403 -0.230643
C20   C     C_R   0.591359 0.408157 0.200514 -0.150387
C21   C     C_R   0.219563 0.605223 0.926802 0.488313
C22   C     C_3   0.088616 0.597782 0.408634 -0.505066
C23   C     C_R   0.469698 0.541207 0.845568 0.120973
C24   C     C_3   0.044364 0.666304 0.352783 -0.289318
C25   C     C_3   0.159803 0.732792 0.294529 -0.840095
C26   C     C_3   0.753984 0.261816 0.200024 -0.415119
C27   C     C_3   0.874005 0.349836 0.208994 -0.325042
C28   C     C_3   0.937326 0.301775 0.263689 -0.824490
C29   C     C_3   0.617390 0.568731 0.815577 -0.323993
C30   C     C_3   0.672309 0.661787 0.875015 -0.437086
C31   C     C_3   0.818391 0.693446 0.842612 -0.759254
C32   C     C_R   0.407247 0.503437 0.923291 -0.030479
C33   C     C_R   0.286427 0.546416 0.966633 -0.155063
C34   C     C_R   0.465625 0.431298 0.961070 -0.092640
C35   C     C_R   0.430187 0.440435 0.044986 -0.143292
C36   C     C_R   0.305692 0.474627 0.087629 0.398421
C37   C     C_R   0.234914 0.529529 0.048964 0.454327
H1    H     H_    0.760574 0.222436 0.045535 0.166253
H2    H     H_    0.981758 0.376540 0.616963 0.326484
H3    H     H_    0.710914 0.965776 0.396353 0.356292
H4    H     H_    0.285822 0.050578 0.604270 0.322414
H5    H     H_    0.480244 0.601159 0.242355 0.326358
H6    H     H_    0.868506 0.294994 0.324134 0.258856
H7    H     H_    0.968756 0.208467 0.238468 0.268768
H8    H     H_    0.023087 0.367400 0.269733 0.275957
H9    H     H_    0.944738 0.357078 0.149184 0.259825
H10   H     H_    0.848141 0.444866 0.234291 0.242880
H11   H     H_    0.691481 0.236554 0.259347 0.214945
H12   H     H_    0.098401 0.563545 0.148535 0.361140
H13   H     H_    0.785756 0.172894 0.165368 0.203251
H14   H     H_    0.682003 0.125732 0.951656 0.334595
H15   H     H_    0.069539 0.692076 0.935151 0.366497
H16   H     H_    0.253546 0.741914 0.783806 0.361740
H17   H     H_    0.867377 0.607704 0.831848 0.281708
H18   H     H_    0.842292 0.736795 0.785880 0.263031
H19   H     H_    0.855118 0.760529 0.886810 0.254310
H20   H     H_    0.625700 0.749198 0.886602 0.234694
H21   H     H_    0.652515 0.622322 0.932679 0.244577
H22   H     H_    0.666353 0.483378 0.801882 0.257773
H23   H     H_    0.214640 0.804087 0.327549 0.261894
H24   H     H_    0.646238 0.612375 0.758741 0.193711
H25   H     H_    0.278673 0.367069 0.171606 0.347157
H26   H     H_    0.604205 0.233669 0.817426 0.385464
H27   H     H_    0.225102 0.664641 0.257475 0.320035
H28   H     H_    0.125189 0.780168 0.254354 0.258133
H29   H     H_    0.990594 0.598420 0.317277 0.246285
H30   H     H_    0.981966 0.738051 0.388398 0.248712
H31   H     H_    0.148315 0.668419 0.439001 0.222840
H32   H     H_    0.152550 0.528738 0.370639 0.233054
O1    O     O_3   0.500000 0.500000 0.500000 -0.500706
O2    O     O_R   0.470800 0.371790 0.332500 -0.625487
O3    O     O_R   0.380610 0.619380 0.674980 -0.612690
O4    O     O_R   0.632640 0.524780 0.317540 -0.649106
O5    O     O_R   0.515950 0.484050 0.674980 -0.626683
O6    O     O_3   0.114626 0.565938 0.090433 -0.699496
O7    O     O_3   0.933873 0.410105 0.586138 -0.729509
O8    O     O_3   0.651204 0.027757 0.425579 -0.806792
O9    O     O_3   0.340473 0.983647 0.576222 -0.759193
O10   O     O_3   0.453364 0.561263 0.194834 -0.755888
O11   O     O_3   0.688777 0.189624 0.915481 -0.777189
O12   O     O_R   0.535460 0.243030 0.556410 -0.615832
O13   O     O_3   0.102308 0.647799 0.969019 -0.681321
O14   O     O_3   0.199818 0.666485 0.806240 -0.751717
O15   O     O_3   0.243853 0.441732 0.163783 -0.783545
O16   O     O_3   0.542367 0.295852 0.841117 -0.757590
O17   O     O_R   0.437420 0.784080 0.535340 -0.575063
O18   O     O_R   0.223560 0.397520 0.472140 -0.643537
O19   O     O_R   0.803560 0.575360 0.436110 -0.683894
O20   O     O_R   0.209690 0.568800 0.556400 -0.622916
O21   O     O_R   0.763190 0.458310 0.535350 -0.562038
O22   O     O_R   0.414000 0.207090 0.472140 -0.646910
O23   O     O_R   0.613120 0.765800 0.436110 -0.669460
Zn1   Zn    Zn3+2 0.577310 0.422690 0.565550 1.035146
Zn2   Zn    Zn3+2 0.403760 0.371330 0.445150 0.987362
Zn3   Zn    Zn3+2 0.634990 0.589920 0.423760 0.946381
Zn4   Zn    Zn3+2 0.383940 0.616050 0.565540 1.022639

loop_
_geom_bond_atom_site_label_1
_geom_bond_atom_site_label_2
_ccdc_geom_bond_type
C1    O18   A    
C16   O17   A    
O18   Zn2   S    
C8    C26   S    
C19   C23   A    
C35   C36   A    
C1    C11   S    
C6    C9    A    
C7    C8    A    
C15   O12   A    
O2    Zn2   S    
C10   C22   S    
C26   C27   S    
C8    C20   A    
C23   C29   S    
C36   C37   A    
O1    Zn2   S    
C18   C19   S    
C11   O7    S    
C26   H13   S    
C5    C6    A    
C21   C33   A    
C30   H20   S    
C17   C20   S    
C6    C35   A    
C2    O16   S    
C34   C35   A    
C9    O10   S    
H14   O11   S    
C24   H30   S    
C29   H22   S    
H12   O6    S    
C25   H23   S    
C31   H19   S    
C22   H32   S    
C26   H11   S    
C2    C34   A    
C37   O6    S    
O19   Zn3   S    
H5    O10   S    
C18   O5    A    
C29   H24   S    
C13   C14   D    
H26   O16   S    
C17   O4    A    
O5    Zn1   S    
C3    O11   S    
C4    O21   A    
C18   O3    A    
C13   O8    S    
C28   H8    S    
O1    Zn1   S    
C25   H28   S    
C24   C25   S    
H4    O9    S    
C5    C7    A    
C12   C21   A    
C28   H7    S    
O23   Zn3   S    
C33   C37   A    
C12   O14   S    
C25   H27   S    
C32   C34   A    
O1    Zn4   S    
C29   C30   S    
O12   Zn1   S    
C9    C20   A    
H2    O7    S    
H15   O13   S    
C22   H31   S    
O17   Zn4   S    
C27   H9    S    
C16   O23   A    
C22   C24   S    
O4    Zn3   S    
C4    C10   S    
O21   Zn1   S    
C27   H10   S    
H25   O15   S    
C1    O20   A    
C14   C15   S    
C3    C5    A    
C17   O2    A    
C4    O19   A    
C24   H29   S    
C28   H6    S    
H16   O14   S    
C32   C33   A    
O20   Zn4   S    
O1    Zn3   S    
C23   C32   A    
O22   Zn2   S    
C30   C31   S    
C36   O15   S    
C30   H21   S    
C12   C19   A    
C7    H1    S    
C2    C3    A    
C14   O9    S    
C31   H17   S    
C10   C11   D    
C15   O22   A    
O3    Zn4   S    
C21   O13   S    
C13   C16   S    
C27   C28   S    
H3    O8    S    
C31   H18   S    
