data_mof_unit_pretest_217.cif
_audit_creation_date              2012-12-11T15:34:32-0500
_audit_creation_method            fapswitch 2.2
_symmetry_space_group_name_H-M    P1
_symmetry_Int_Tables_number       1
_space_group_crystal_system       triclinic
_cell_length_a                    15.062676
_cell_length_b                    15.062162
_cell_length_c                    34.875541
_cell_angle_alpha                 90.448298
_cell_angle_beta                  90.197801
_cell_angle_gamma                 59.898083
_cell_volume                      6845.11494755

loop_
_atom_site_label
_atom_site_type_symbol
_atom_type_description
_atom_site_fract_x
_atom_site_fract_y
_atom_site_fract_z
_atom_type_partial_charge
C1    C     C_R   0.302861 0.608395 0.555913 0.577572
C2    C     C_R   0.234832 0.711515 0.386637 -0.160361
C3    C     C_R   0.743718 0.101979 0.269209 -0.146463
C4    C     C_R   0.750466 0.096343 0.229455 -0.108643
C5    C     C_R   0.679642 0.178428 0.207041 0.030099
C6    C     C_R   0.737216 0.196101 0.351527 0.122397
C7    C     C_R   0.719613 0.219634 0.391069 0.280378
C8    C     C_R   0.551741 0.234084 0.384898 -0.188697
C9    C     C_R   0.740118 0.572998 0.651368 0.060781
C10   C     C_R   0.569885 0.209035 0.346324 -0.151789
C11   C     C_R   0.659419 0.195531 0.329101 0.042293
C12   C     C_R   0.622849 0.246463 0.407041 0.001931
C13   C     C_R   0.216861 0.714460 0.347184 0.248564
C14   C     C_R   0.090507 0.702827 0.092607 0.013818
C15   C     C_R   0.083218 0.626075 0.112447 -0.175541
C16   C     C_R   0.122762 0.598813 0.149026 -0.136492
C17   C     C_R   0.168889 0.648746 0.166888 0.044604
C18   C     C_R   0.186731 0.718382 0.146110 0.284324
C19   C     C_R   0.149180 0.743730 0.108296 0.102264
C20   C     C_R   0.275486 0.608251 0.225759 -0.168021
C21   C     C_3   0.766379 0.379518 0.613396 -0.056141
C22   C     C_3   0.883084 0.233079 0.711590 -0.116418
C23   C     C_3   0.672495 0.351452 0.798767 -0.106311
C24   C     C_R   0.206672 0.635565 0.330017 0.105449
C25   C     C_3   0.096966 0.915531 0.894889 -0.051276
C26   C     C_3   0.287501 0.370507 0.721190 -0.082524
C27   C     C_3   0.382075 0.451293 0.799093 -0.128606
C28   C     C_3   0.304715 0.722422 0.828766 -0.104567
C29   C     C_3   0.782247 0.477077 0.930959 -0.081718
C30   C     C_3   0.233917 0.845432 0.603135 -0.108179
C31   C     C_3   0.986878 0.575060 0.822653 -0.104410
C32   C     C_3   0.085235 0.591722 0.555276 -0.089200
C33   C     C_3   0.787955 0.443176 0.313420 -0.103445
C34   C     C_3   0.501641 0.948003 0.176392 -0.149975
C35   C     C_R   0.582770 0.739066 0.647185 0.248992
C36   C     C_3   0.706662 0.878259 0.291517 -0.093351
C37   C     C_3   0.494372 0.927390 0.353357 -0.103598
C38   C     C_3   0.869176 0.503081 0.415665 -0.078359
C39   C     C_3   0.416326 0.866188 0.659994 -0.085669
C40   C     C_3   0.848728 0.134264 0.433448 -0.110512
C41   C     C_3   0.297078 0.800102 0.325900 -0.090329
C42   C     C_3   0.981915 0.618384 0.288814 -0.038677
C43   C     C_3   0.950197 0.817392 0.213410 -0.100479
C44   C     C_3   0.180879 0.848672 0.182107 -0.124551
C45   C     C_3   0.478535 0.883185 0.919306 -0.076491
C46   C     C_R   0.247885 0.628156 0.408610 -0.008545
C47   C     C_3   0.592879 0.912468 0.815061 -0.093943
C48   C     C_R   0.735334 0.026490 0.943382 0.557858
C49   C     C_R   0.744718 0.722857 0.945111 0.559666
C50   C     C_R   0.038587 0.733651 0.948259 0.570721
C51   C     C_R   0.723112 0.038700 0.052978 0.558914
C52   C     C_R   0.733026 0.734211 0.054743 0.548066
C53   C     C_R   0.666754 0.666130 0.668707 0.012191
C54   C     C_R   0.029399 0.743530 0.057426 0.572040
C55   C     C_R   0.568874 0.715227 0.609172 -0.157364
C56   C     C_R   0.673323 0.674869 0.788194 0.346971
C57   C     C_R   0.667721 0.679660 0.710624 0.375941
C58   C     C_R   0.744794 0.591730 0.851801 0.035322
C59   C     C_R   0.760400 0.603833 0.890851 0.231549
C60   C     C_R   0.627720 0.784049 0.887836 0.210812
C61   C     C_R   0.615885 0.773676 0.848525 0.245115
C62   C     C_R   0.676006 0.678548 0.830167 -0.044310
C63   C     C_R   0.610934 0.587162 0.555831 0.551134
C64   C     C_R   0.283330 0.607237 0.265488 -0.177386
C65   C     C_R   0.708328 0.702147 0.908226 -0.057505
C66   C     C_R   0.722599 0.075736 0.905567 0.057292
C67   C     C_R   0.633838 0.106964 0.882870 0.090669
C68   C     C_R   0.636674 0.125838 0.843732 -0.143377
C69   C     C_R   0.725758 0.116082 0.827172 0.034442
C70   C     C_R   0.809355 0.096110 0.850460 -0.096650
C71   C     C_R   0.807406 0.076930 0.889352 -0.173595
C72   C     C_R   0.753037 0.196454 0.769090 0.277874
C73   C     C_R   0.755772 0.203732 0.728956 0.254419
C74   C     C_R   0.726118 0.146518 0.705495 0.072084
C75   C     C_R   0.196983 0.634159 0.288318 0.077432
C76   C     C_R   0.590273 0.300691 0.553581 0.593339
C77   C     C_R   0.708918 0.071387 0.721704 0.045968
C78   C     C_R   0.713447 0.059485 0.761486 -0.195146
C79   C     C_R   0.732027 0.123707 0.785334 -0.035052
C80   C     C_R   0.590768 0.260794 0.659896 0.083864
C81   C     C_R   0.556459 0.296022 0.622748 0.079900
C82   C     C_R   0.724198 0.170040 0.597039 0.038859
C83   C     C_R   0.758536 0.133709 0.634595 0.104606
C84   C     C_R   0.692118 0.180428 0.665884 0.104630
C85   C     C_R   0.623351 0.251581 0.591287 0.043606
C86   C     C_R   0.101954 0.661547 0.271583 0.314563
C87   C     C_R   0.092642 0.694919 0.911036 -0.061524
C88   C     C_R   0.299567 0.610438 0.446094 0.558204
C89   C     C_R   0.134901 0.746830 0.891285 0.270203
C90   C     C_R   0.163417 0.722858 0.852278 0.222775
C91   C     C_R   0.145394 0.650656 0.832969 0.020013
C92   C     C_R   0.108064 0.596062 0.853253 0.254889
C93   C     C_R   0.085011 0.616198 0.892164 -0.182558
C94   C     C_R   0.223321 0.548798 0.772615 0.305225
C95   C     C_R   0.226621 0.542932 0.732044 0.248695
C96   C     C_R   0.162324 0.631379 0.710540 0.019876
C97   C     C_R   0.092272 0.670956 0.231524 0.259964
C98   C     C_R   0.087059 0.721241 0.728949 0.040337
C99   C     C_R   0.083971 0.725835 0.768996 -0.140652
C100  C     C_R   0.607976 0.591320 0.445360 0.558771
C101  C     C_R   0.152881 0.641449 0.790821 0.022275
C102  C     C_R   0.237344 0.687305 0.659320 0.109364
C103  C     C_R   0.263545 0.688998 0.621076 0.250417
C104  C     C_R   0.192589 0.580477 0.603036 0.253052
C105  C     C_R   0.158809 0.585479 0.640967 0.105857
C106  C     C_R   0.185149 0.635166 0.669580 0.017115
C107  C     C_R   0.249549 0.628260 0.593310 -0.039758
C108  C     C_R   0.180192 0.640713 0.208647 -0.002443
C109  C     C_R   0.691852 0.718680 0.091175 -0.024080
C110  C     C_R   0.598243 0.796326 0.107281 0.097758
C111  C     C_R   0.577755 0.791221 0.146558 0.270931
C112  C     C_R   0.588452 0.301629 0.444045 0.548970
C113  C     C_R   0.646532 0.705522 0.168316 0.084645
C114  C     C_R   0.730915 0.621634 0.150606 0.070006
C115  C     C_R   0.753591 0.629497 0.112371 -0.162295
C116  C     C_R   0.577105 0.672915 0.228228 0.112465
C117  C     C_R   0.576467 0.668114 0.268294 -0.148452
C118  C     C_R   0.633516 0.699392 0.290594 0.066127
C119  C     C_R   0.210923 0.555928 0.352056 0.088431
C120  C     C_R   0.687923 0.741406 0.273285 0.338735
C121  C     C_R   0.693253 0.741874 0.232944 0.055671
C122  C     C_R   0.637062 0.708271 0.210466 0.070021
C123  C     C_R   0.558837 0.754403 0.355668 0.258833
C124  C     C_R   0.635705 0.618441 0.593106 -0.047502
C125  C     C_R   0.549721 0.728142 0.393446 0.029580
C126  C     C_R   0.714532 0.569356 0.386664 0.234703
C127  C     C_R   0.717556 0.591973 0.347762 0.243400
C128  C     C_R   0.638338 0.683201 0.332266 0.014336
C129  C     C_R   0.625659 0.631812 0.408869 -0.065353
C130  C     C_R   0.229301 0.553204 0.391761 0.087303
C131  C     C_R   0.701587 0.099094 0.088855 0.036095
C132  C     C_R   0.783170 0.103190 0.106935 -0.141575
C133  C     C_R   0.775013 0.136423 0.144984 0.097685
C134  C     C_R   0.683346 0.166908 0.165143 0.037812
C135  C     C_R   0.598203 0.173781 0.146054 -0.151335
C136  C     C_R   0.722636 0.547513 0.614542 0.297908
C137  C     C_R   0.606352 0.140313 0.108024 0.085907
C138  C     C_R   0.602174 0.267167 0.224740 -0.116084
C139  C     C_R   0.595564 0.274017 0.264774 0.101382
C140  C     C_R   0.666155 0.190251 0.287076 0.073646
Cr1   Cr    Cr6+3 0.421670 0.426920 0.499620 1.073655
Cr2   Cr    Cr6+3 0.427030 0.651190 0.500980 1.003789
Cr3   Cr    Cr6+3 0.651280 0.421870 0.499380 1.086803
Cr4   Cr    Cr6+3 0.910810 0.908010 0.001130 1.026748
Cr5   Cr    Cr6+3 0.682800 0.909890 0.998370 1.078690
Cr6   Cr    Cr6+3 0.908370 0.682300 0.002180 1.025028
H1    H     H_    0.874905 0.057308 0.906325 0.117718
H2    H     H_    0.855876 0.074615 0.092282 0.131521
H3    H     H_    0.528451 0.426726 0.273699 0.219100
H4    H     H_    0.446712 0.380453 0.273132 0.229337
H5    H     H_    0.372958 0.926245 0.681929 0.144435
H6    H     H_    0.401697 0.801956 0.665477 0.192326
H7    H     H_    0.386685 0.901040 0.631566 0.113574
H8    H     H_    0.839888 0.210975 0.170084 0.244046
H9    H     H_    0.924138 0.106098 0.145556 0.215225
H10   H     H_    0.882587 0.178243 0.353291 0.272238
H11   H     H_    0.813872 0.234902 0.313955 0.217563
H12   H     H_    0.887882 0.066905 0.413759 0.118816
H13   H     H_    0.511036 0.206269 0.329255 0.121931
H14   H     H_    0.798676 0.123152 0.453936 0.115786
H15   H     H_    0.908906 0.138504 0.450433 0.144540
H16   H     H_    0.249480 0.779858 0.084728 0.256640
H17   H     H_    0.137955 0.882061 0.099829 0.234441
H18   H     H_    0.367246 0.722937 0.323318 0.107899
H19   H     H_    0.300379 0.839797 0.352363 0.165172
H20   H     H_    0.296866 0.845985 0.301138 0.167465
H21   H     H_    0.877411 0.464728 0.835859 0.260532
H22   H     H_    0.778648 0.488980 0.806748 0.240800
H23   H     H_    0.044652 0.538033 0.283552 0.103545
H24   H     H_    0.547262 0.330898 0.207534 0.110511
H25   H     H_    0.926871 0.643704 0.264616 0.211238
H26   H     H_    0.940416 0.617647 0.314916 0.185469
H27   H     H_    0.877281 0.848387 0.197296 0.144751
H28   H     H_    0.997993 0.842306 0.197804 0.101083
H29   H     H_    0.932294 0.851123 0.242799 0.152487
H30   H     H_    0.142224 0.470124 0.346085 0.228430
H31   H     H_    0.270598 0.405992 0.337528 0.225109
H32   H     H_    0.288551 0.402342 0.404351 0.229180
H33   H     H_    0.160523 0.477267 0.412680 0.214180
H34   H     H_    0.162055 0.831041 0.210770 0.138622
H35   H     H_    0.798312 0.037247 0.286067 0.132603
H36   H     H_    0.109117 0.901280 0.166387 0.098444
H37   H     H_    0.223314 0.890358 0.186849 0.160585
H38   H     H_    0.497766 0.823268 0.941421 0.096792
H39   H     H_    0.432149 0.875625 0.895937 0.141444
H40   H     H_    0.430467 0.959015 0.933277 0.141731
H41   H     H_    0.649963 0.868686 0.792246 0.127199
H42   H     H_    0.630530 0.931174 0.838776 0.132544
H43   H     H_    0.533548 0.986009 0.802468 0.134672
H44   H     H_    0.483120 0.193856 0.895157 0.226407
H45   H     H_    0.521425 0.070851 0.883682 0.264154
H46   H     H_    0.809766 0.027150 0.215997 0.119531
H47   H     H_    0.527033 0.198846 0.161462 0.099762
H48   H     H_    0.478270 0.251188 0.396579 0.138366
H49   H     H_    0.041121 0.591198 0.100747 0.142951
H50   H     H_    0.356636 0.585642 0.278584 0.113617
H51   H     H_    0.342892 0.585660 0.208319 0.155822
H52   H     H_    0.570057 0.145697 0.826028 0.098588
H53   H     H_    0.110176 0.544172 0.164671 0.137253
H54   H     H_    0.244076 0.771807 0.399677 0.135421
H55   H     H_    0.685048 0.402848 0.607178 0.120389
H56   H     H_    0.780513 0.367092 0.644636 0.160594
H57   H     H_    0.815888 0.305081 0.598755 0.138867
H58   H     H_    0.870339 0.985855 0.626400 0.238468
H59   H     H_    0.912942 0.070594 0.630899 0.212225
H60   H     H_    0.920633 0.161201 0.694168 0.123494
H61   H     H_    0.916731 0.218584 0.740896 0.163634
H62   H     H_    0.900496 0.288606 0.697795 0.141014
H63   H     H_    0.698634 0.002519 0.773897 0.112337
H64   H     H_    0.615884 0.332985 0.811302 0.089455
H65   H     H_    0.641739 0.395977 0.771887 0.142016
H66   H     H_    0.682641 0.400950 0.819875 0.161061
H67   H     H_    0.610056 0.023443 0.706796 0.240335
H68   H     H_    0.735401 0.933550 0.702432 0.244246
H69   H     H_    0.514931 0.252913 0.706523 0.229323
H70   H     H_    0.552119 0.342141 0.709781 0.241580
H71   H     H_    0.447449 0.444179 0.632663 0.249981
H72   H     H_    0.402043 0.362020 0.627867 0.278774
H73   H     H_    0.814202 0.047214 0.563261 0.227553
H74   H     H_    0.878015 0.090446 0.838203 0.142807
H75   H     H_    0.855559 0.132746 0.568453 0.221075
H76   H     H_    0.029887 0.927711 0.877279 0.103275
H77   H     H_    0.149001 0.930805 0.877260 0.164575
H78   H     H_    0.067438 0.973041 0.918485 0.121425
H79   H     H_    0.134795 0.482830 0.669674 0.245445
H80   H     H_    0.028090 0.597534 0.661886 0.214328
H81   H     H_    0.207748 0.391657 0.729472 0.115442
H82   H     H_    0.341991 0.323393 0.744012 0.168008
H83   H     H_    0.307452 0.321480 0.695125 0.132598
H84   H     H_    0.380860 0.501266 0.822849 0.104105
H85   H     H_    0.504907 0.771212 0.592394 0.150066
H86   H     H_    0.412785 0.466273 0.772396 0.126093
H87   H     H_    0.436002 0.370798 0.807417 0.129674
H88   H     H_    0.326891 0.668909 0.803969 0.112223
H89   H     H_    0.343591 0.680463 0.855474 0.116364
H90   H     H_    0.332781 0.776376 0.822777 0.166094
H91   H     H_    0.969943 0.788884 0.691424 0.233326
H92   H     H_    0.969232 0.870385 0.724577 0.241085
H93   H     H_    0.203164 0.796226 0.700493 0.256862
H94   H     H_    0.312542 0.682632 0.708444 0.237345
H95   H     H_    0.742408 0.450677 0.910889 0.133523
H96   H     H_    0.053058 0.575196 0.906669 0.180888
H97   H     H_    0.726959 0.532351 0.952297 0.099500
H98   H     H_    0.840253 0.409048 0.946909 0.140742
H99   H     H_    0.194403 0.887683 0.629769 0.123854
H100  H     H_    0.176756 0.847959 0.582119 0.109882
H101  H     H_    0.270283 0.885884 0.589804 0.120728
H102  H     H_    0.965830 0.644761 0.805404 0.112072
H103  H     H_    0.934662 0.595732 0.847721 0.134617
H104  H     H_    0.975640 0.521763 0.803903 0.157091
H105  H     H_    0.096556 0.648796 0.539166 0.085647
H106  H     H_    0.017071 0.631569 0.574413 0.130898
H107  H     H_    0.027682 0.795561 0.783390 0.132204
H108  H     H_    0.069177 0.546455 0.533996 0.147920
H109  H     H_    0.461740 0.932583 0.099421 0.258039
H110  H     H_    0.499944 0.849838 0.062732 0.221145
H111  H     H_    0.714354 0.469322 0.297903 0.108787
H112  H     H_    0.793017 0.395116 0.338260 0.177921
H113  H     H_    0.851087 0.394012 0.293401 0.137648
H114  H     H_    0.489357 0.604692 0.222832 0.209269
H115  H     H_    0.459681 0.702154 0.192832 0.280543
H116  H     H_    0.425523 0.019011 0.177705 0.136911
H117  H     H_    0.551213 0.963985 0.157327 0.111005
H118  H     H_    0.822946 0.567491 0.099818 0.138941
H119  H     H_    0.533148 0.932222 0.205932 0.126859
H120  H     H_    0.622820 0.924031 0.285312 0.091556
H121  H     H_    0.750750 0.890164 0.268745 0.160391
H122  H     H_    0.720380 0.908940 0.318515 0.127578
H123  H     H_    0.875533 0.532738 0.677671 0.253686
H124  H     H_    0.809606 0.478059 0.696505 0.245710
H125  H     H_    0.815038 0.711524 0.199252 0.254824
H126  H     H_    0.715708 0.833358 0.196526 0.203952
H127  H     H_    0.576039 0.907799 0.355456 0.115786
H128  H     H_    0.456287 0.954948 0.381617 0.154870
H129  H     H_    0.533566 0.637378 0.282263 0.091520
H130  H     H_    0.455723 0.991975 0.332974 0.118830
H131  H     H_    0.482945 0.814614 0.441267 0.234813
H132  H     H_    0.411188 0.770783 0.417851 0.261162
H133  H     H_    0.847177 0.471678 0.153853 0.222810
H134  H     H_    0.838857 0.546075 0.191228 0.223626
H135  H     H_    0.837096 0.562219 0.438849 0.102346
H136  H     H_    0.901505 0.528257 0.392264 0.133129
H137  H     H_    0.933286 0.432300 0.428149 0.141946
H138  H     H_    0.459328 0.220688 0.090065 0.224456
H139  H     H_    0.495934 0.101562 0.106048 0.227902
N1    N     N_R   0.583682 0.706031 0.769360 -0.193428
N2    N     N_3   0.096715 0.540806 0.649615 -0.576886
N3    N     N_3   0.017312 0.808881 0.706669 -0.631617
N4    N     N_3   0.268310 0.736280 0.687558 -0.610297
N5    N     N_3   0.526428 0.880414 0.083901 -0.584795
N6    N     N_3   0.521118 0.637727 0.205384 -0.590930
N7    N     N_3   0.830794 0.499451 0.671225 -0.598683
N8    N     N_3   0.758993 0.772890 0.215213 -0.634359
N9    N     N_3   0.460603 0.800001 0.414643 -0.616958
N10   N     N_3   0.795206 0.530082 0.172051 -0.607025
N11   N     N_3   0.519063 0.144385 0.089749 -0.586292
N12   N     N_R   0.581218 0.707340 0.731220 -0.194203
N13   N     N_3   0.518381 0.366376 0.282808 -0.642868
N14   N     N_3   0.860744 0.134927 0.163895 -0.641756
N15   N     N_3   0.831457 0.176175 0.333522 -0.625842
N16   N     N_3   0.169982 0.810842 0.085990 -0.590835
N17   N     N_3   0.798974 0.490169 0.835293 -0.601210
N18   N     N_3   0.202274 0.475278 0.333455 -0.651764
N19   N     N_3   0.231557 0.473512 0.414802 -0.599699
N20   N     N_3   0.541554 0.117933 0.899075 -0.577198
N21   N     N_R   0.756574 0.651605 0.729641 -0.268052
N22   N     N_R   0.759278 0.649608 0.767749 -0.277522
N23   N     N_3   0.860531 0.050514 0.641394 -0.627745
N24   N     N_3   0.681676 0.010874 0.697853 -0.605622
N25   N     N_3   0.521623 0.308981 0.691459 -0.600659
N26   N     N_3   0.454799 0.381286 0.617035 -0.571055
N27   N     N_3   0.790787 0.125266 0.564595 -0.643474
O1    O     O_R   0.502070 0.323090 0.541280 -0.477925
O2    O     O_R   0.831550 0.656950 0.958960 -0.473644
O3    O     O_R   0.998590 0.685540 0.963930 -0.512057
O4    O     O_R   0.338340 0.520690 0.539540 -0.447036
O5    O     O_R   0.008220 0.831200 0.045060 -0.477702
O6    O     O_R   0.813270 0.997930 0.038810 -0.523644
O7    O     O_R   0.657500 0.016560 0.039940 -0.455694
O8    O     O_R   0.685680 0.820940 0.038120 -0.467264
O9    O     O_R   0.822130 0.666070 0.043610 -0.531467
O10   O     O_R   0.989860 0.694000 0.042400 -0.512917
O11   O     O_3   0.833990 0.833400 0.000560 -0.264593
O12   O     O_R   0.520720 0.641670 0.461580 -0.524548
O13   O     O_R   0.324760 0.674070 0.543580 -0.484559
O14   O     O_R   0.522400 0.640310 0.540110 -0.498116
O15   O     O_R   0.675940 0.500630 0.542210 -0.467673
O16   O     O_R   0.641790 0.337020 0.538150 -0.500439
O17   O     O_R   0.500260 0.324550 0.456580 -0.529641
O18   O     O_R   0.336660 0.522040 0.461020 -0.455084
O19   O     O_R   0.322940 0.675540 0.458880 -0.547706
O20   O     O_3   0.791979 0.451870 0.599678 -0.515587
O21   O     O_3   0.775701 0.275415 0.712790 -0.584391
O22   O     O_3   0.768401 0.262386 0.792311 -0.553813
O23   O     O_R   0.674120 0.502090 0.457500 -0.438387
O24   O     O_3   0.152707 0.816674 0.911126 -0.539043
O25   O     O_3   0.299555 0.455616 0.712846 -0.566930
O26   O     O_3   0.283919 0.462678 0.794383 -0.531496
O27   O     O_3   0.197013 0.779416 0.832204 -0.579923
O28   O     O_3   0.833009 0.519763 0.910975 -0.523908
O29   O     O_3   0.311076 0.744030 0.611597 -0.536707
O30   O     O_3   0.090216 0.525190 0.834615 -0.519944
O31   O     O_3   0.173939 0.524050 0.576055 -0.513396
O32   O     O_3   0.800100 0.526420 0.324962 -0.563546
O33   O     O_3   0.487732 0.866897 0.163198 -0.576252
O34   O     O_R   0.640110 0.338380 0.459630 -0.443792
O35   O     O_3   0.742819 0.772421 0.296336 -0.555471
O36   O     O_3   0.483085 0.845042 0.339759 -0.570115
O37   O     O_3   0.794897 0.480411 0.401574 -0.513748
O38   O     O_3   0.521013 0.835732 0.663258 -0.554796
O39   O     O_3   0.792925 0.226353 0.412859 -0.540686
O40   O     O_3   0.205858 0.795323 0.324924 -0.570405
O41   O     O_3   0.017794 0.687943 0.294890 -0.556459
O42   O     O_3   0.996933 0.709657 0.214578 -0.583536
O43   O     O_3   0.245040 0.757470 0.161569 -0.578584
O44   O     O_3   0.567658 0.879167 0.904752 -0.526653
O45   O     O_3   0.499990 0.499990 0.499990 -0.270635
O46   O     O_3   0.544975 0.858232 0.828046 -0.531998
O47   O     O_R   0.017640 0.822070 0.960410 -0.464023
O48   O     O_R   0.822000 0.989470 0.960340 -0.525814
O49   O     O_R   0.666920 0.007430 0.955290 -0.446180
O50   O     O_R   0.694410 0.812480 0.959650 -0.460101

loop_
_geom_bond_atom_site_label_1
_geom_bond_atom_site_label_2
_ccdc_geom_bond_type
C126  C127  A    
C35   C53   A    
C103  O29   S    
H33   N19   S    
H69   N25   S    
C114  C115  A    
C30   O29   S    
H4    N13   S    
H79   N2    S    
C72   C79   A    
C93   H96   S    
H75   N27   S    
H3    N13   S    
H31   N18   S    
H134  N10   S    
H32   N19   S    
C112  O34   A    
C110  C111  A    
H67   N24   S    
C37   O36   S    
C88   O18   A    
C43   H29   S    
C113  C122  S    
Cr2   O45   S    
C45   O44   S    
C54   O10   A    
H126  N8    S    
C126  O37   S    
C114  N10   S    
Cr6   O9    S    
H22   N17   S    
C36   H122  S    
C38   O37   S    
C104  C105  A    
Cr1   O1    S    
C21   H55   S    
H72   N26   S    
H123  N7    S    
C6    C11   A    
C51   C131  S    
C72   C73   A    
C126  C129  A    
Cr5   O50   S    
Cr4   O48   S    
Cr3   O34   S    
C11   C140  S    
C92   O30   S    
C80   N25   S    
C75   C86   A    
H70   N25   S    
C43   O42   S    
C26   H81   S    
N21   N22   A    
C29   H97   S    
C22   H62   S    
C111  C113  A    
C38   H137  S    
C99   C101  A    
C100  O23   A    
C60   C65   A    
C87   C89   A    
C56   C62   S    
Cr5   O11   S    
C135  C137  A    
C30   H100  S    
C14   C19   A    
C4    C5    A    
C139  C140  A    
C6    C7    A    
H109  N5    S    
C82   C85   A    
H124  N7    S    
C43   H27   S    
C45   H39   S    
H133  N10   S    
C69   C70   A    
Cr2   O13   S    
C118  C120  A    
C125  C129  A    
C31   H104  S    
C8    C10   A    
C98   C99   A    
C41   H18   S    
C33   H111  S    
C56   N1    A    
H91   N3    S    
C76   C85   S    
C104  C107  A    
C45   H38   S    
C28   H88   S    
C20   C108  A    
C77   N24   S    
C42   H25   S    
C20   C64   A    
C121  N8    S    
C21   H57   S    
C117  H129  S    
C119  C130  A    
C63   C124  S    
Cr5   O7    S    
C34   H117  S    
H71   N26   S    
C57   N12   A    
C23   H66   S    
H132  N9    S    
C39   H5    S    
C22   H60   S    
C86   C97   A    
C38   H135  S    
C22   O21   S    
C74   C77   A    
C96   C98   A    
C66   C67   A    
Cr3   O16   S    
C90   O27   S    
C91   C101  S    
C23   O22   S    
C7    C12   A    
C76   O1    A    
C102  C103  A    
C136  O20   S    
C139  N13   S    
C91   C92   A    
C38   H136  S    
C16   C17   A    
Cr3   O23   S    
C37   H128  S    
C83   C84   A    
C8    C12   A    
C41   H20   S    
C33   H113  S    
C17   C18   A    
C25   H76   S    
C44   H37   S    
Cr4   O6    S    
C50   C87   S    
C28   H90   S    
C102  N4    S    
C50   O3    A    
C112  O17   A    
C33   O32   S    
C1    C107  S    
C10   C11   A    
C120  O35   S    
C44   O43   S    
C31   H102  S    
C69   C79   S    
C47   H41   S    
C3    C4    A    
C48   O48   A    
C12   C112  S    
C120  C121  A    
C67   N20   S    
C130  N19   S    
C74   C84   S    
C56   N22   A    
C46   C130  A    
C103  C107  A    
C123  O36   S    
C134  C135  A    
C23   H64   S    
C50   O47   A    
C31   O30   S    
C117  C118  A    
Cr3   O45   S    
C28   O27   S    
C83   N23   S    
C87   C93   A    
C64   C75   A    
C61   C62   A    
Cr4   O5    S    
C27   H86   S    
C59   O28   S    
C42   O41   S    
C32   H108  S    
C14   C15   A    
C48   C66   S    
C32   O31   S    
C81   C85   A    
C49   O2    A    
C104  O31   S    
C58   C62   A    
Cr6   O10   S    
C73   C74   A    
C4    H46   S    
C34   H119  S    
C71   H1    S    
C63   O14   A    
C80   C84   A    
C44   H34   S    
H44   N20   S    
C125  N9    S    
C77   C78   A    
H94   N4    S    
C32   H105  S    
C105  N2    S    
C116  C122  A    
C39   H7    S    
C36   O35   S    
C40   H12   S    
C26   O25   S    
C37   H130  S    
C76   O16   A    
C123  C125  A    
H138  N11   S    
H9    N14   S    
Cr6   O3    S    
Cr1   O18   S    
C25   H78   S    
C18   C19   A    
H125  N8    S    
H131  N9    S    
C48   O49   A    
C26   H82   S    
C68   C69   A    
C60   O44   S    
N1    N12   A    
C8    H48   S    
C70   C71   A    
C7    O39   S    
C15   H49   S    
C94   O26   S    
C26   H83   S    
C89   O24   S    
C30   H101  S    
C124  C136  A    
C67   C68   A    
C55   H85   S    
C17   C108  S    
C53   C57   S    
C100  C129  S    
C58   C59   A    
C52   O9    A    
C60   C61   A    
C131  C137  A    
C42   H23   S    
C27   H84   S    
C66   C71   A    
H93   N4    S    
C3    H35   S    
C21   O20   S    
C121  C122  A    
C58   N17   S    
C47   O46   S    
C100  O12   A    
C133  C134  A    
C36   H121  S    
C9    C53   A    
C127  C128  A    
C44   H36   S    
H92   N3    S    
C113  C114  A    
C86   O41   S    
C55   C124  A    
C24   C119  A    
C111  O33   S    
C21   H56   S    
C40   H14   S    
C137  N11   S    
C9    N7    S    
C24   C75   S    
C105  C106  A    
Cr4   O47   S    
C40   H15   S    
C6    N15   S    
C109  C110  A    
C90   C91   A    
C51   O6    A    
C23   H65   S    
C52   C109  S    
H115  N6    S    
H139  N11   S    
C92   C93   A    
C29   H98   S    
Cr6   O2    S    
C22   H61   S    
C94   C95   A    
C20   H51   S    
H59   N23   S    
C138  C139  A    
C81   N26   S    
Cr1   O45   S    
C82   N27   S    
C82   C83   A    
Cr4   O11   S    
C119  N18   S    
C89   C90   A    
C10   H13   S    
C59   C65   A    
C39   O38   S    
C30   H99   S    
C138  H24   S    
Cr3   O15   S    
C95   C96   A    
Cr2   O19   S    
H110  N5    S    
C5    C138  A    
C2    C46   A    
C31   H103  S    
C49   C65   S    
C2    H54   S    
C63   O15   A    
C88   O19   A    
C43   H28   S    
C45   H40   S    
C18   O43   S    
C40   O39   S    
C15   C16   A    
C95   O25   S    
C64   H50   S    
C109  C115  A    
C116  C117  A    
C68   H52   S    
C35   O38   S    
C2    C13   A    
Cr2   O12   S    
C37   H127  S    
C97   C108  A    
C27   O26   S    
C94   C101  A    
C132  C133  A    
C41   H19   S    
C33   H112  S    
C19   N16   S    
C25   H77   S    
C49   O50   A    
C54   O5    A    
C61   O46   S    
C110  N5    S    
C34   O33   S    
Cr1   O4    S    
C57   N21   A    
C118  C128  S    
C98   N3    S    
C46   C88   S    
Cr5   O8    S    
C5    C134  S    
C34   H116  S    
C35   C55   A    
C132  H2    S    
H80   N2    S    
C115  H118  S    
C73   O21   S    
C78   C79   A    
C13   O40   S    
C39   H6    S    
C70   H74   S    
C13   C24   A    
C47   H43   S    
C135  H47   S    
C25   O24   S    
Cr2   O14   S    
C97   O42   S    
C133  N14   S    
C78   H63   S    
C16   H53   S    
C42   H26   S    
C14   C54   S    
H8    N14   S    
C1    O4    A    
C41   O40   S    
C96   C106  S    
C72   O22   S    
Cr6   O11   S    
C36   H120  S    
H10   N15   S    
C80   C81   A    
H58   N23   S    
H68   N24   S    
Cr5   O49   S    
C32   H106  S    
C116  N6    S    
H45   N20   S    
H30   N18   S    
C99   H107  S    
H16   N16   S    
H73   N27   S    
C123  C128  A    
H21   N17   S    
Cr1   O17   S    
C102  C106  A    
H11   N15   S    
C127  O32   S    
H114  N6    S    
C27   H87   S    
C28   H89   S    
H17   N16   S    
C9    C136  A    
C51   O7    A    
C29   O28   S    
C52   O8    A    
C29   H95   S    
C3    C140  A    
C47   H42   S    
C1    O13   A    
C131  C132  A    
