data_mof_unit_pretest_590.cif
_audit_creation_date              2012-10-26T21:20:13-0400
_audit_creation_method            fapswitch 2.2
_symmetry_space_group_name_H-M    P1
_symmetry_Int_Tables_number       1
_space_group_crystal_system       triclinic
_cell_length_a                    12.996365
_cell_length_b                    10.781891
_cell_length_c                    9.574353
_cell_angle_alpha                 90.746097
_cell_angle_beta                  96.682369
_cell_angle_gamma                 91.34343
_cell_volume                      1331.96187563

loop_
_atom_site_label
_atom_site_type_symbol
_atom_type_description
_atom_site_fract_x
_atom_site_fract_y
_atom_site_fract_z
_atom_type_partial_charge
C1    C     C_R   0.496552 0.262448 0.498768 0.521596
C2    C     C_R   0.699511 0.500388 0.526670 0.540862
C3    C     C_R   0.812542 0.500334 0.542014 -0.001882
C4    C     C_R   0.187457 0.499664 0.457987 -0.001850
C5    C     C_R   0.022715 0.506223 0.312005 -0.108327
C6    C     C_R   0.977285 0.493767 0.687997 -0.108331
C7    C     C_R   0.130387 0.504684 0.324558 -0.112613
C8    C     C_R   0.869613 0.495304 0.675444 -0.112561
C9    C     C_R   0.136042 0.495585 0.578876 -0.112121
C10   C     C_R   0.863958 0.504415 0.421126 -0.112124
C11   C     C_R   0.028543 0.497277 0.567241 0.050234
C12   C     C_R   0.503445 0.737553 0.501231 0.521606
C13   C     C_R   0.971457 0.502719 0.432761 0.050238
C14   C     C_R   0.564306 0.068383 0.420795 -0.090358
C15   C     C_R   0.435679 0.931617 0.579193 -0.090396
C16   C     C_R   0.572036 0.939788 0.423560 -0.002686
C17   C     C_R   0.427950 0.060213 0.576442 -0.002708
C18   C     C_2   0.652823 0.879436 0.349956 0.252854
C19   C     C_2   0.347202 0.120568 0.650115 0.252938
C20   C     C_2   0.345794 0.352275 0.113605 0.244854
C21   C     C_2   0.654276 0.647586 0.886397 0.244845
C22   C     C_R   0.505770 0.871675 0.502693 -0.038061
C23   C     C_R   0.494219 0.128325 0.497300 -0.038040
C24   C     C_R   0.426944 0.431155 0.059522 0.123846
C25   C     C_R   0.573070 0.568806 0.940478 0.123857
C26   C     C_R   0.427929 0.432384 0.911351 0.053391
C27   C     C_R   0.572076 0.567610 0.088648 0.053381
C28   C     C_R   0.300489 0.499612 0.473330 0.540846
Cu1   Cu    Cu3+1 0.500000 0.500020 0.640660 0.943630
Cu2   Cu    Cu3+1 0.500000 0.499980 0.359340 0.943608
H1    H     H_    0.820579 0.508693 0.317514 0.141709
H2    H     H_    0.384232 0.876928 0.636958 0.180653
H3    H     H_    0.673069 0.783910 0.370668 0.118912
H4    H     H_    0.326985 0.216118 0.629479 0.118943
H5    H     H_    0.353398 0.319473 0.219561 0.170605
H6    H     H_    0.646562 0.680642 0.780545 0.170454
H7    H     H_    0.179422 0.491312 0.682487 0.141636
H8    H     H_    0.831194 0.492043 0.769862 0.162184
H9    H     H_    0.168806 0.507936 0.230140 0.161960
H10   H     H_    0.979643 0.510342 0.208257 0.135887
H11   H     H_    0.020357 0.489641 0.791745 0.135832
H12   H     H_    0.371516 0.377721 0.842998 0.164816
H13   H     H_    0.628496 0.622276 0.156990 0.164751
H14   H     H_    0.615759 0.123071 0.363037 0.180664
N1    N     N_R   0.500030 0.500030 0.852080 -0.279590
N2    N     N_R   0.499970 0.499970 0.147920 -0.279584
O1    O     O_R   0.499990 0.319660 0.618740 -0.498671
O2    O     O_2   0.301083 0.063531 0.734093 -0.473665
O3    O     O_2   0.267476 0.320373 0.037252 -0.528269
O4    O     O_2   0.732797 0.679102 0.962680 -0.528331
O5    O     O_R   0.500010 0.680340 0.381260 -0.498650
O6    O     O_R   0.499990 0.319630 0.381170 -0.523941
O7    O     O_R   0.500010 0.680370 0.618830 -0.523955
O8    O     O_R   0.349000 0.499990 0.599490 -0.515280
O9    O     O_R   0.651000 0.500010 0.400510 -0.515261
O10   O     O_R   0.348990 0.499960 0.361920 -0.520355
O11   O     O_R   0.651010 0.500040 0.638080 -0.520219
O12   O     O_2   0.698978 0.936473 0.265998 -0.473765

loop_
_geom_bond_atom_site_label_1
_geom_bond_atom_site_label_2
_ccdc_geom_bond_type
C14   C23   A    
C6    C8    A    
Cu2   O5    S    
C10   C13   A    
C15   C17   A    
Cu1   Cu2   S    
C12   C22   S    
C25   C27   A    
C9    C11   A    
Cu2   O9    S    
C5    C13   A    
C12   O7    A    
C24   N2    A    
C9    H7    S    
C2    C3    S    
C28   O10   A    
C2    O11   A    
C15   H2    S    
C21   H6    S    
C17   C23   A    
C11   C13   A    
C26   H12   S    
C20   O3    D    
C8    H8    S    
Cu1   O1    S    
C4    C7    A    
C7    H9    S    
C14   H14   S    
C21   O4    D    
C4    C28   S    
C24   C26   A    
C1    C23   S    
C5    C7    A    
C2    O9    A    
C28   O8    A    
C1    O6    A    
C14   C16   A    
C18   H3    S    
C25   N1    A    
C27   H13   S    
C12   O5    A    
C27   N2    A    
C16   C18   S    
C3    C8    A    
Cu1   O8    S    
C5    H10   S    
Cu1   N1    S    
C6    C11   A    
C3    C10   A    
C21   C25   S    
C19   O2    D    
C1    O1    A    
C16   C22   A    
C26   N1    A    
C17   C19   S    
C4    C9    A    
C20   H5    S    
Cu2   O10   S    
C10   H1    S    
Cu2   N2    S    
C15   C22   A    
C18   O12   D    
C20   C24   S    
Cu1   O7    S    
Cu1   O11   S    
Cu2   O6    S    
C6    H11   S    
C19   H4    S    
