data_mof_unit_pretest_1568.cif
_audit_creation_date              2012-12-10T19:01:19-0500
_audit_creation_method            fapswitch 2.2
_symmetry_space_group_name_H-M    P1
_symmetry_Int_Tables_number       1
_space_group_crystal_system       triclinic
_cell_length_a                    15.864409
_cell_length_b                    14.259766
_cell_length_c                    13.381914
_cell_angle_alpha                 89.9999
_cell_angle_beta                  89.997618
_cell_angle_gamma                 89.999691
_cell_volume                      3027.29351741

loop_
_atom_site_label
_atom_site_type_symbol
_atom_type_description
_atom_site_fract_x
_atom_site_fract_y
_atom_site_fract_z
_atom_type_partial_charge
C1    C     C_R   0.500000 0.326572 0.500000 0.934868
C2    C     C_1   0.500000 0.499971 0.950478 -0.044459
C3    C     C_R   0.336000 0.501488 0.500003 0.943051
C4    C     C_R   0.664000 0.501489 0.499997 0.943051
C5    C     C_R   0.500000 0.673454 0.500000 0.918260
C6    C     C_3   0.049335 0.436551 0.597037 -0.194576
C7    C     C_3   0.049418 0.435962 0.403356 -0.195045
C8    C     C_3   0.950582 0.436003 0.596670 -0.195044
C9    C     C_3   0.950665 0.436515 0.402987 -0.194574
C10   C     C_1   0.752010 0.496209 0.499989 -0.192595
C11   C     C_1   0.247990 0.496206 0.500011 -0.192595
C12   C     C_1   0.500000 0.141356 0.500000 0.005881
C13   C     C_3   0.082437 0.485690 0.500043 0.229879
C14   C     C_3   0.917564 0.485693 0.499960 0.229879
C15   C     C_3   0.951499 0.587699 0.500242 -0.453093
C16   C     C_3   0.048502 0.587697 0.499714 -0.453090
C17   C     C_1   0.826559 0.491127 0.499976 -0.085811
C18   C     C_1   0.173441 0.491123 0.500025 -0.085812
C19   C     C_1   0.500000 0.225921 0.500000 -0.211625
C20   C     C_1   0.912544 0.342079 0.611903 0.205922
C21   C     C_1   0.911839 0.343218 0.386253 0.204993
C22   C     C_1   0.088159 0.343259 0.613812 0.204993
C23   C     C_1   0.500000 0.042297 0.500000 0.019090
C24   C     C_1   0.087454 0.342031 0.388166 0.205922
C25   C     C_1   0.500000 0.957736 0.500000 0.015950
C26   C     C_1   0.500000 0.858675 0.500000 -0.002836
C27   C     C_1   0.500000 0.774108 0.500000 -0.220978
C28   C     C_1   0.500000 0.499974 0.169449 0.076339
C29   C     C_1   0.500000 0.499974 0.830551 0.076341
C30   C     C_1   0.500000 0.499971 0.049522 -0.044459
H1    H     H_    0.070647 0.478208 0.337999 0.126661
H2    H     H_    0.069815 0.479753 0.662016 0.126955
H3    H     H_    0.930186 0.479693 0.337990 0.126956
H4    H     H_    0.929355 0.478276 0.662007 0.126660
H5    H     H_    0.071995 0.626597 0.566310 0.187323
H6    H     H_    0.071502 0.625955 0.432455 0.187373
H7    H     H_    0.928500 0.625985 0.567483 0.187374
H8    H     H_    0.928006 0.626572 0.433629 0.187322
N1    N     N_1   0.500000 0.499980 0.261870 -0.063333
N2    N     N_1   0.500000 0.499980 0.738130 -0.063332
N3    N     N_1   0.882757 0.268873 0.624093 -0.179341
N4    N     N_1   0.881433 0.270509 0.372894 -0.179376
N5    N     N_1   0.118563 0.270554 0.627202 -0.179373
N6    N     N_1   0.117239 0.268818 0.376012 -0.179341
O1    O     O_R   0.500000 0.373720 0.576470 -0.594390
O2    O     O_R   0.500000 0.373720 0.423530 -0.594392
O3    O     O_R   0.377150 0.500010 0.576490 -0.607800
O4    O     O_R   0.377150 0.500010 0.423510 -0.607915
O5    O     O_R   0.622850 0.500010 0.576490 -0.607912
O6    O     O_R   0.622850 0.500010 0.423510 -0.607801
O7    O     O_R   0.500000 0.626290 0.576440 -0.598621
O8    O     O_R   0.500000 0.626290 0.423560 -0.598620
Zn1   Zn    Zn3+2 0.500000 0.500010 0.602090 0.978551
Zn2   Zn    Zn3+2 0.500000 0.500010 0.397910 0.978548

loop_
_geom_bond_atom_site_label_1
_geom_bond_atom_site_label_2
_ccdc_geom_bond_type
C6    H2    S    
C9    C14   S    
C5    O8    A    
C22   N5    T    
C12   C23   S    
O3    Zn1   S    
C4    O5    A    
C2    C30   T    
C9    C21   S    
O2    Zn2   S    
C28   C30   S    
C20   N3    T    
O1    Zn1   S    
C11   C18   T    
C8    H4    S    
C16   H6    S    
C6    C13   S    
O4    Zn2   S    
C14   C17   S    
C1    O1    A    
C26   C27   T    
O6    Zn2   S    
C15   H8    S    
C13   C18   S    
C8    C20   S    
C2    C29   S    
O5    Zn1   S    
C9    H3    S    
C6    C8    S    
C12   C19   T    
C3    O3    A    
O8    Zn2   S    
C23   C25   T    
C16   H5    S    
C24   N6    T    
C1    O2    A    
C1    C19   S    
N1    Zn2   S    
C7    H1    S    
C10   C17   T    
C4    C10   S    
C7    C24   S    
C6    C22   S    
C3    O4    A    
C7    C13   S    
C3    C11   S    
C29   N2    T    
N2    Zn1   S    
C13   C16   S    
C7    C9    S    
C14   C15   S    
C15   H7    S    
C8    C14   S    
C21   N4    T    
C28   N1    T    
C25   C26   S    
C5    C27   S    
C5    O7    A    
C15   C16   S    
C4    O6    A    
O7    Zn1   S    
