data_mof_unit_pretest_1226.cif
_audit_creation_date              2012-12-11T15:22:43-0500
_audit_creation_method            fapswitch 2.2
_symmetry_space_group_name_H-M    P1
_symmetry_Int_Tables_number       1
_space_group_crystal_system       triclinic
_cell_length_a                    22.875133
_cell_length_b                    7.29756
_cell_length_c                    20.656428
_cell_angle_alpha                 90.550323
_cell_angle_beta                  93.473268
_cell_angle_gamma                 89.409698
_cell_volume                      3441.57658373

loop_
_atom_site_label
_atom_site_type_symbol
_atom_type_description
_atom_site_fract_x
_atom_site_fract_y
_atom_site_fract_z
_atom_type_partial_charge
O1    O     O_R   0.438030 0.494310 0.439340 -0.535010
O2    O     O_R   0.561970 0.994310 0.560660 -0.535923
O3    O     O_R   0.556900 0.822900 0.435960 -0.533346
O4    O     O_R   0.443100 0.322900 0.564040 -0.534247
C1    C     C_R   0.575483 0.654594 0.421172 0.703763
C2    C     C_R   0.424305 0.157090 0.578782 0.708953
O5    O     O_R   0.438170 0.823950 0.431660 -0.538461
O6    O     O_R   0.561830 0.323950 0.568340 -0.536836
O7    O     O_R   0.442390 0.995390 0.556340 -0.523902
O8    O     O_R   0.557610 0.495390 0.443660 -0.532793
C3    C     C_R   0.418876 0.655638 0.415963 0.683455
C4    C     C_R   0.581506 0.155684 0.583973 0.688196
O9    O     O_3   0.501520 0.661170 0.540910 -0.371729
O10   O     O_3   0.498480 0.161170 0.459090 -0.376337
V1    V     V_3+5 0.499720 0.935580 0.492410 1.450608
V2    V     V_3+5 0.500280 0.435580 0.507590 1.454659
C5    C     C_R   0.811200 0.044927 0.885902 0.146850
C6    C     C_R   0.187936 0.616189 0.111464 0.147222
C7    C     C_R   0.867970 0.087147 0.867898 -0.167850
C8    C     C_R   0.131395 0.585351 0.132469 -0.164962
C9    C     C_R   0.876163 0.158656 0.806340 0.137301
C10   C     C_R   0.122398 0.573468 0.198792 0.122568
C11   C     C_R   0.827020 0.204918 0.764305 0.005926
C12   C     C_R   0.168485 0.617072 0.245073 0.004628
C13   C     C_R   0.770396 0.148252 0.779906 -0.064084
C14   C     C_R   0.226594 0.629362 0.224782 -0.065485
C15   C     C_R   0.761484 0.081990 0.842908 0.033153
C16   C     C_R   0.236489 0.636622 0.157474 0.029862
C17   C     C_R   0.831929 0.311906 0.708293 0.125698
C18   C     C_R   0.158333 0.654424 0.310700 0.129102
C19   C     C_R   0.785929 0.315912 0.659767 0.166250
C20   C     C_R   0.205324 0.653543 0.357932 0.158131
C21   C     C_R   0.731776 0.230211 0.669968 0.102629
C22   C     C_R   0.263847 0.636877 0.339264 0.099735
C23   C     C_R   0.722703 0.159352 0.732507 -0.106724
C24   C     C_R   0.274537 0.638297 0.272044 -0.109565
C25   C     C_R   0.666363 0.097716 0.747530 0.020792
C26   C     C_R   0.332992 0.644610 0.252130 0.020132
C27   C     C_R   0.655708 0.065846 0.813832 0.167415
C28   C     C_R   0.342328 0.641001 0.184725 0.170501
C29   C     C_R   0.702986 0.064220 0.861544 0.178470
C30   C     C_R   0.294714 0.660986 0.138759 0.177622
C31   C     C_R   0.685299 0.224729 0.620984 0.156273
C32   C     C_R   0.312049 0.629152 0.385953 0.152585
C33   C     C_R   0.630821 0.149791 0.634302 -0.188194
C34   C     C_R   0.369468 0.646937 0.366388 -0.183576
C35   C     C_R   0.622172 0.079190 0.696283 0.153350
C36   C     C_R   0.379915 0.661988 0.300235 0.161356
C37   C     C_3   0.231880 0.298184 0.793970 0.298482
C38   C     C_3   0.738351 0.717276 0.176736 0.301147
C39   C     C_3   0.257574 0.947530 0.802610 -0.031968
C40   C     C_3   0.771793 0.407235 0.227318 -0.029472
C41   C     C_3   0.311440 0.002507 0.765197 0.023850
C42   C     C_3   0.723665 0.421470 0.277997 -0.006365
H1    H     H_    0.319938 0.374925 0.763938 0.188540
H2    H     H_    0.652309 0.611296 0.200286 0.154531
H3    H     H_    0.241638 0.818221 0.780307 0.186312
H4    H     H_    0.810117 0.332881 0.250008 0.216568
H5    H     H_    0.342216 0.079540 0.798915 0.161019
H6    H     H_    0.683394 0.349612 0.259054 0.143353
C43   C     C_1   0.378586 0.153270 0.624404 -0.107193
C44   C     C_1   0.620737 0.643707 0.375241 -0.131726
C45   C     C_3   0.207140 0.095635 0.791265 0.018479
C46   C     C_3   0.792090 0.603019 0.207621 0.026354
C47   C     C_3   0.278347 0.322655 0.740180 -0.101869
C48   C     C_3   0.685346 0.707303 0.222898 -0.087275
C49   C     C_3   0.291932 0.133059 0.707868 0.017823
C50   C     C_3   0.706725 0.625697 0.290954 0.031178
C51   C     C_3   0.233050 0.069604 0.671407 0.034245
C52   C     C_3   0.762110 0.734729 0.316939 0.070738
C53   C     C_3   0.182240 0.059559 0.719558 -0.045761
C54   C     C_3   0.814664 0.700406 0.272585 -0.044025
C55   C     C_1   0.339863 0.148040 0.662114 0.067766
C56   C     C_1   0.659121 0.635268 0.337217 0.061620
C57   C     C_1   0.159730 0.080748 0.837684 0.093746
C58   C     C_1   0.840392 0.593056 0.162151 0.072915
C59   C     C_1   0.121258 0.076454 0.875671 -0.098689
C60   C     C_1   0.879078 0.585430 0.124471 -0.103968
H7    H     H_    0.149607 0.167034 0.705354 0.164610
H8    H     H_    0.833547 0.835435 0.261495 0.148391
H9    H     H_    0.219532 0.176756 0.635481 0.176822
H10   H     H_    0.750049 0.881466 0.312252 0.151084
O11   O     O_R   0.942420 0.735670 0.056390 -0.534195
O12   O     O_R   0.057580 0.235670 0.943610 -0.526630
O13   O     O_R   0.061840 0.404850 0.068350 -0.528899
O14   O     O_R   0.938160 0.904850 0.931650 -0.533684
C61   C     C_R   0.081166 0.573435 0.084045 0.716981
C62   C     C_R   0.918451 0.073622 0.916229 0.719734
O15   O     O_R   0.943100 0.406010 0.064050 -0.532087
O16   O     O_R   0.056900 0.906010 0.935950 -0.534582
O17   O     O_R   0.938020 0.234710 0.939330 -0.530837
O18   O     O_R   0.061980 0.734710 0.060670 -0.536663
C63   C     C_R   0.924563 0.575263 0.078744 0.720025
C64   C     C_R   0.075672 0.072850 0.921396 0.721435
O19   O     O_3   0.998500 0.567790 0.959120 -0.370241
O20   O     O_3   0.001500 0.067790 0.040880 -0.374202
V3    V     V_3+5 0.000280 0.293330 0.007580 1.512741
V4    V     V_3+5 0.999720 0.793330 0.992420 1.501807
N1    N     N_3   0.805013 0.947661 0.945106 -0.598927
H11   H     H_    0.823337 0.025201 0.983917 0.233984
H12   H     H_    0.827655 0.822807 0.942879 0.245810
N2    N     N_3   0.196425 0.604735 0.043299 -0.600897
H13   H     H_    0.171566 0.707553 0.019454 0.232659
H14   H     H_    0.182106 0.477063 0.025617 0.243156
I1    I     I_    0.273993 0.367803 0.888296 -0.334422
I2    I     I_    0.708827 0.627468 0.078854 -0.335025
N3    N     N_3   0.274228 0.901470 0.870402 -0.577754
H15   H     H_    0.300891 0.999718 0.893524 0.294853
H16   H     H_    0.237418 0.880651 0.896822 0.261864
N4    N     N_3   0.751534 0.293857 0.171797 -0.685908
H17   H     H_    0.708054 0.321675 0.156639 0.272953
H18   H     H_    0.778762 0.304483 0.133226 0.279230
I3    I     I_    0.365919 0.770329 0.742344 -0.346640
I4    I     I_    0.747616 0.264979 0.363887 -0.317265
I5    I     I_    0.124801 0.825571 0.708343 -0.281486
I6    I     I_    0.891472 0.565999 0.318833 -0.174416
N5    N     N_3   0.182252 0.428616 0.786980 -0.621080
H19   H     H_    0.195754 0.559318 0.801601 0.263495
H20   H     H_    0.164733 0.437464 0.739370 0.280094
N6    N     N_3   0.757515 0.906078 0.167452 -0.629939
H21   H     H_    0.727554 0.972658 0.135318 0.295974
H22   H     H_    0.758416 0.979050 0.211060 0.272435
N7    N     N_3   0.258520 0.455208 0.690451 -0.633700
H23   H     H_    0.291572 0.472164 0.658313 0.281040
H24   H     H_    0.253684 0.582160 0.712854 0.283751
N8    N     N_3   0.655808 0.886153 0.229389 -0.650708
H25   H     H_    0.617871 0.869503 0.254364 0.250399
H26   H     H_    0.640397 0.928222 0.183153 0.271074
I7    I     I_    0.962544 0.124900 0.772061 -0.235769
I8    I     I_    0.045956 0.428598 0.224680 -0.259959
I9    I     I_    0.242961 0.845062 0.603704 -0.351048
I10   I     I_    0.782292 0.732696 0.421258 -0.203730
I11   I     I_    0.897592 0.519839 0.704515 -0.262067
I12   I     I_    0.077327 0.776013 0.338267 -0.226389
N9    N     N_3   0.793431 0.415409 0.601265 -0.564627
H27   H     H_    0.797130 0.555036 0.612239 0.263927
H28   H     H_    0.831557 0.368724 0.580683 0.289742
N10   N     N_3   0.193634 0.681014 0.424865 -0.564771
H29   H     H_    0.177004 0.813385 0.431322 0.274002
H30   H     H_    0.162835 0.585152 0.437778 0.278779
N11   N     N_3   0.694355 0.285283 0.556346 -0.572458
H31   H     H_    0.684690 0.178122 0.523580 0.244964
H32   H     H_    0.666483 0.396330 0.545178 0.246360
N12   N     N_3   0.302900 0.604598 0.453542 -0.580468
H33   H     H_    0.324541 0.484865 0.469419 0.233217
H34   H     H_    0.320715 0.716033 0.479814 0.248639
N13   N     N_3   0.570027 0.977635 0.705533 -0.600984
H35   H     H_    0.569246 0.862393 0.675069 0.252628
H36   H     H_    0.533376 0.060069 0.693442 0.235955
N14   N     N_3   0.437673 0.707880 0.282703 -0.618763
H37   H     H_    0.449188 0.834403 0.303666 0.238872
H38   H     H_    0.467261 0.608005 0.300854 0.224114
I13   I     I_    0.567813 0.053634 0.846680 -0.160527
I14   I     I_    0.425117 0.562375 0.147356 -0.205904
I15   I     I_    0.683349 0.081213 0.962553 -0.203905
I16   I     I_    0.314894 0.767242 0.045643 -0.194563

loop_
_geom_bond_atom_site_label_1
_geom_bond_atom_site_label_2
_ccdc_geom_bond_type
C48   C50   S    
N8    H25   S    
C37   C45   S    
C36   N14   S    
C38   C46   S    
C17   I11   S    
N13   H35   S    
O1    C3    A    
C46   C54   S    
O2    C4    A    
C2    O7    A    
C53   H7    S    
C41   H5    S    
O19   V4    S    
O18   V4    S    
N7    H23   S    
C27   C29   A    
C42   H6    S    
O5    C3    A    
C41   C49   S    
C37   C47   S    
C27   I13   S    
C38   N6    S    
O12   V3    S    
C11   C17   A    
C2    C43   S    
C23   C25   A    
C12   C14   A    
N11   H32   S    
O14   C62   A    
N7    H24   S    
C42   C50   S    
C60   C63   S    
C50   C56   S    
O11   C63   A    
C8    C61   S    
C59   C64   S    
C6    N2    S    
C51   C53   S    
N4    H17   S    
N4    H18   S    
C5    C7    A    
C37   N5    S    
C32   C34   A    
C47   C49   S    
O11   V4    S    
N3    H15   S    
C19   C21   A    
C39   H3    S    
C25   C35   A    
C26   C36   A    
O13   V3    S    
C51   I9    S    
C40   C42   S    
C10   C12   A    
C33   C35   A    
O6    V2    S    
C61   O18   A    
C10   I8    S    
N3    H16   S    
C28   I14   S    
C39   N3    S    
C52   H10   S    
H1    C47   S    
C41   I3    S    
O16   C64   A    
C34   C36   A    
O13   C61   A    
C25   C27   A    
C35   N13   S    
N13   H36   S    
C53   I5    S    
C58   C60   T    
C21   C31   A    
N9    H27   S    
C6    C16   A    
O4    C2    A    
C7    C62   S    
C40   C46   S    
N12   H33   S    
C37   I1    S    
O5    V1    S    
C18   I12   S    
C48   N8    S    
O15   V3    S    
C49   C51   S    
C5    C15   A    
O4    V2    S    
C30   I16   S    
C20   N10   S    
C18   C20   A    
N12   H34   S    
C57   C59   T    
C15   C29   A    
C28   C30   A    
N1    H11   S    
C62   O17   A    
C40   N4    S    
O6    C4    A    
O20   V3    S    
C52   I10   S    
C46   C58   S    
C39   C45   S    
O1    V2    S    
O12   C64   A    
O17   V3    S    
N2    H14   S    
O2    V1    S    
C5    N1    S    
C9    I7    S    
C40   H4    S    
C13   C23   A    
C49   C55   S    
C19   N9    S    
N1    H12   S    
C45   C53   S    
C9    C11   A    
N14   H38   S    
C31   N11   S    
C24   C26   A    
O3    V1    S    
N6    H21   S    
N6    H22   S    
C14   C24   A    
N9    H28   S    
C22   C32   A    
N8    H26   S    
C7    C9    A    
N14   H37   S    
C8    C10   A    
C4    C33   S    
O3    C1    A    
C38   C48   S    
N10   H30   S    
C13   C15   A    
C54   I6    S    
C14   C16   A    
C43   C55   T    
N5    H20   S    
O7    V1    S    
C1    O8    A    
C54   H8    S    
O8    V2    S    
N5    H19   S    
C26   C28   A    
C45   C57   S    
H2    C48   S    
C42   I4    S    
C16   C30   A    
C21   C23   A    
C22   C24   A    
C1    C44   S    
C6    C8    A    
C47   N7    S    
O15   C63   A    
N2    H13   S    
O14   V4    S    
C12   C18   A    
C51   H9    S    
N10   H29   S    
C11   C13   A    
C17   C19   A    
O9    V2    S    
C38   I2    S    
C50   C52   S    
O10   V1    S    
C44   C56   T    
C3    C34   S    
C52   C54   S    
C32   N12   S    
C39   C41   S    
N11   H31   S    
C31   C33   A    
O16   V4    S    
C20   C22   A    
C29   I15   S    
