data_mof_unit_pretest_711.cif
_audit_creation_date              2012-12-10T17:07:09-0500
_audit_creation_method            fapswitch 2.2
_symmetry_space_group_name_H-M    P1
_symmetry_Int_Tables_number       1
_space_group_crystal_system       triclinic
_cell_length_a                    17.218474
_cell_length_b                    11.076886
_cell_length_c                    9.993028
_cell_angle_alpha                 111.942167
_cell_angle_beta                  95.480995
_cell_angle_gamma                 93.199408
_cell_volume                      1751.13172897

loop_
_atom_site_label
_atom_site_type_symbol
_atom_type_description
_atom_site_fract_x
_atom_site_fract_y
_atom_site_fract_z
_atom_type_partial_charge
C1    C     C_R   0.495498 0.253520 0.439554 0.781946
C2    C     C_R   0.506293 0.746273 0.560261 0.805968
C3    C     C_2   0.495765 0.111761 0.402171 -0.208347
C4    C     C_2   0.508882 0.887768 0.598370 -0.181807
C5    C     C_2   0.505651 0.069550 0.512124 -0.193602
C6    C     C_2   0.514826 0.933534 0.492206 -0.192723
C7    C     C_2   0.502821 0.517571 0.083093 0.594976
C8    C     C_2   0.503063 0.476723 0.916701 0.588192
C9    C     C_R   0.352561 0.516387 0.520961 0.786321
C10   C     C_R   0.647694 0.485380 0.478983 0.781002
C11   C     C_R   0.270135 0.550993 0.530517 -0.157930
C12   C     C_R   0.730952 0.458911 0.462852 -0.177440
C13   C     C_R   0.233660 0.594184 0.423784 -0.032981
C14   C     C_R   0.788618 0.495718 0.587058 -0.005300
C15   C     C_R   0.152732 0.597592 0.407173 -0.101359
C16   C     C_R   0.867717 0.491550 0.568853 -0.147190
C17   C     C_R   0.107134 0.563054 0.496522 0.112184
C18   C     C_R   0.891128 0.446615 0.430556 0.115828
C19   C     C_R   0.142116 0.532865 0.610261 -0.135473
C20   C     C_R   0.835462 0.398134 0.307966 -0.096726
C21   C     C_R   0.223562 0.531125 0.632204 -0.025601
C22   C     C_R   0.755461 0.400052 0.321946 -0.050292
C23   C     C_2   0.021791 0.562676 0.473136 -0.150908
C24   C     C_2   0.975269 0.447356 0.416130 -0.138513
Cu1   Cu    Cu3+1 0.513640 0.521550 0.643210 1.055749
Cu2   Cu    Cu3+1 0.486360 0.478450 0.356790 1.046038
H1    H     H_    0.105487 0.514051 0.684209 0.170458
H2    H     H_    0.854794 0.356662 0.201341 0.173754
H3    H     H_    0.911838 0.521638 0.663268 0.152623
H4    H     H_    0.124797 0.627942 0.324440 0.163561
H5    H     H_    0.523916 0.866693 0.385148 0.238744
H6    H     H_    0.508722 0.139402 0.622275 0.255785
N1    N     N_2   0.465840 0.446060 0.141630 -0.032631
N2    N     N_2   0.534160 0.553940 0.858370 -0.032538
O1    O     O_R   0.507280 0.332200 0.576490 -0.549150
O2    O     O_R   0.492720 0.667800 0.423510 -0.534119
O3    O     O_R   0.484240 0.295800 0.334620 -0.526550
O4    O     O_R   0.515760 0.704200 0.665380 -0.555316
O5    O     O_R   0.399260 0.520290 0.634950 -0.550965
O6    O     O_R   0.600740 0.479710 0.365050 -0.578163
O7    O     O_R   0.376220 0.483890 0.393080 -0.605551
O8    O     O_R   0.623780 0.516110 0.606920 -0.580385
C25   C     C_2   0.278068 0.646213 0.334054 0.880940
O9    O     O_2   0.256640 0.611837 0.203848 -0.593624
O10   O     O_R   0.341881 0.739961 0.400155 -0.740644
H7    H     H_    0.366083 0.770401 0.328295 0.379157
C26   C     C_2   0.770126 0.530074 0.737410 0.851633
O11   O     O_2   0.799135 0.633127 0.833005 -0.601660
O12   O     O_R   0.724091 0.440041 0.771445 -0.713760
H8    H     H_    0.718408 0.471590 0.878748 0.340099
C27   C     C_2   0.700612 0.330005 0.187326 0.858165
O13   O     O_2   0.644317 0.258298 0.188565 -0.529176
O14   O     O_R   0.716071 0.340034 0.056891 -0.780618
H9    H     H_    0.674968 0.287195 0.972348 0.365014
C28   C     C_2   0.255669 0.516582 0.767091 0.830833
O15   O     O_2   0.311349 0.590630 0.845553 -0.545931
O16   O     O_R   0.216676 0.426941 0.812189 -0.762532
H10   H     H_    0.239161 0.433468 0.912379 0.347072
C29   C     C_2   0.006654 0.317737 0.349855 0.881940
O17   O     O_2   0.968786 0.218505 0.343411 -0.561322
O18   O     O_R   0.077731 0.307936 0.291246 -0.748111
H11   H     H_    0.091900 0.214595 0.249406 0.347347
C30   C     C_2   0.990033 0.692972 0.518158 0.883110
O19   O     O_2   0.029742 0.789560 0.607424 -0.557161
O20   O     O_R   0.916486 0.706533 0.455571 -0.744381
H12   H     H_    0.902264 0.799918 0.495105 0.349516
C31   C     C_2   0.502220 0.973459 0.751389 0.891421
O21   O     O_2   0.451708 0.944137 0.815070 -0.528991
O22   O     O_R   0.555593 0.083934 0.824333 -0.743615
H13   H     H_    0.544879 0.133592 0.927689 0.401313
C32   C     C_2   0.485361 0.021472 0.246257 0.890482
O23   O     O_2   0.518181 0.051170 0.158132 -0.513048
O24   O     O_R   0.436170 0.904911 0.199369 -0.745773
H14   H     H_    0.433556 0.852922 0.091007 0.394091
O25   O     O_3   0.483015 0.346324 0.828145 -0.589329
C33   C     C_3   0.401134 0.320705 0.785337 -0.174096
H15   H     H_    0.366541 0.386939 0.864706 0.146965
H16   H     H_    0.383167 0.219161 0.773436 0.183864
H17   H     H_    0.385132 0.323108 0.676979 0.168533
O26   O     O_3   0.531811 0.644130 0.173812 -0.575281
C34   C     C_3   0.613976 0.654269 0.210630 -0.236558
H18   H     H_    0.640363 0.744092 0.202254 0.174134
H19   H     H_    0.643378 0.569195 0.143100 0.135793
H20   H     H_    0.628007 0.673080 0.327271 0.177922
O27   O     O_3   0.545400 0.682165 0.943846 -0.490521
C35   C     C_3   0.621172 0.728829 0.931378 -0.031646
H21   H     H_    0.628363 0.723606 0.821055 0.177792
H22   H     H_    0.666440 0.674503 0.964153 0.113509
H23   H     H_    0.632770 0.833206 0.005402 0.166120
O28   O     O_3   0.443712 0.320022 0.056052 -0.501290
C36   C     C_3   0.367066 0.290206 0.081368 -0.066934
H24   H     H_    0.329197 0.370541 0.090632 0.129972
H25   H     H_    0.367147 0.265104 0.178352 0.182110
H26   H     H_    0.339627 0.202223 0.987924 0.145585

loop_
_geom_bond_atom_site_label_1
_geom_bond_atom_site_label_2
_ccdc_geom_bond_type
C28   O15   D    
C30   O20   S    
C10   O8    A    
O24   H14   S    
C2    C4    S    
C33   H17   S    
O25   C33   S    
C34   H18   S    
O16   H10   S    
C7    C8    S    
C26   O12   S    
O14   H9    S    
C31   O22   S    
C17   C23   S    
C18   C24   S    
C19   C21   A    
C33   H16   S    
C5    C6    S    
C35   H22   S    
C12   C22   A    
C9    O5    A    
C10   O6    A    
C23   C24   D    
C19   H1    S    
C1    O3    A    
Cu1   N2    S    
C5    H6    S    
C23   C30   S    
C6    H5    S    
C29   O17   D    
C7    N1    D    
O22   H13   S    
C34   H19   S    
C29   O18   S    
C27   O13   D    
C33   H15   S    
C4    C6    D    
C36   H24   S    
C32   O24   S    
C35   H21   S    
C20   H2    S    
C16   H3    S    
O27   C35   S    
C11   C21   A    
C8    O25   S    
C31   O21   D    
C1    C3    S    
N2    O27   S    
C3    C32   S    
C25   O9    D    
Cu1   O4    S    
C36   H25   S    
C9    C11   S    
C2    O4    A    
Cu2   N1    S    
C26   O11   D    
C8    N2    D    
C25   O10   S    
C10   C12   S    
Cu1   O1    S    
Cu2   O2    S    
C12   C14   A    
O12   H8    S    
C28   O16   S    
C14   C16   A    
C13   C25   S    
C34   H20   S    
C1    O1    A    
C15   H4    S    
C21   C28   S    
C2    O2    A    
C15   C17   A    
C20   C22   A    
O26   C34   S    
C3    C5    D    
C35   H23   S    
Cu1   O8    S    
C4    C31   S    
Cu2   O3    S    
C14   C26   S    
C9    O7    A    
C13   C15   A    
Cu1   Cu2   S    
C32   O23   D    
N1    O28   S    
Cu1   O5    S    
C36   H26   S    
C11   C13   A    
Cu2   O6    S    
O28   C36   S    
C24   C29   S    
C17   C19   A    
C18   C20   A    
O18   H11   S    
C30   O19   D    
O10   H7    S    
C16   C18   A    
O20   H12   S    
C7    O26   S    
C27   O14   S    
Cu2   O7    S    
C22   C27   S    
