data_mof_unit_pretest_1817.cif
_audit_creation_date              2013-03-05T16:22:38-0500
_audit_creation_method            fapswitch 2.2
_symmetry_space_group_name_H-M    P1
_symmetry_Int_Tables_number       1
_space_group_crystal_system       triclinic
_cell_length_a                    36.015147
_cell_length_b                    43.165684
_cell_length_c                    28.114635
_cell_angle_alpha                 90.032751
_cell_angle_beta                  129.784597
_cell_angle_gamma                 89.975381
_cell_volume                      33587.2899663

loop_
_atom_site_label
_atom_site_type_symbol
_atom_site_description
_atom_site_fract_x
_atom_site_fract_y
_atom_site_fract_z
_atom_type_partial_charge
Zn1   Zn    Zn3+2 0.443260 0.224070 0.948090 1.073646
Zn2   Zn    Zn3+2 0.556740 0.775930 0.051910 1.066167
Zn3   Zn    Zn3+2 0.556740 0.224070 0.051910 1.073061
Zn4   Zn    Zn3+2 0.443260 0.775930 0.948090 1.075685
Zn5   Zn    Zn3+2 0.943260 0.724070 0.948090 1.072431
Zn6   Zn    Zn3+2 0.056740 0.275930 0.051910 1.073288
Zn7   Zn    Zn3+2 0.056740 0.724070 0.051910 1.073479
Zn8   Zn    Zn3+2 0.943260 0.275930 0.948090 1.072510
Zn9   Zn    Zn3+2 0.504820 0.275980 0.948070 1.108740
Zn10  Zn    Zn3+2 0.495180 0.724020 0.051930 1.098235
Zn11  Zn    Zn3+2 0.495180 0.275980 0.051930 1.108044
Zn12  Zn    Zn3+2 0.504820 0.724020 0.948070 1.110774
Zn13  Zn    Zn3+2 0.004820 0.775980 0.948070 1.108004
Zn14  Zn    Zn3+2 0.995180 0.224020 0.051930 1.108031
Zn15  Zn    Zn3+2 0.995180 0.775980 0.051930 1.108089
Zn16  Zn    Zn3+2 0.004820 0.224020 0.948070 1.107996
H1    H     H_    0.516693 0.528571 0.941296 0.167404
H2    H     H_    0.488227 0.471440 0.068433 0.168797
H3    H     H_    0.488480 0.528087 0.069225 0.169230
H4    H     H_    0.516170 0.472053 0.940180 0.168585
H5    H     H_    0.011100 0.028249 0.933056 0.169058
H6    H     H_    0.988909 0.971751 0.066951 0.169154
H7    H     H_    0.988895 0.028338 0.066910 0.169156
H8    H     H_    0.011113 0.971662 0.933097 0.169053
O1    O     O_3   0.500000 0.250020 0.000000 -0.553380
O2    O     O_3   0.500000 0.749980 0.000000 -0.553749
O3    O     O_3   0.000000 0.750020 0.000000 -0.553492
O4    O     O_3   0.000000 0.249980 0.000000 -0.553464
O5    O     O_R   0.600360 0.231850 0.036310 -0.609604
O6    O     O_R   0.399640 0.768150 0.963690 -0.608200
O7    O     O_R   0.399640 0.231850 0.963690 -0.608876
O8    O     O_R   0.600360 0.768150 0.036310 -0.610198
O9    O     O_R   0.100360 0.731850 0.036310 -0.608650
O10   O     O_R   0.899640 0.268150 0.963690 -0.609356
O11   O     O_R   0.899640 0.731850 0.963690 -0.609309
O12   O     O_R   0.100360 0.268150 0.036310 -0.608699
O13   O     O_R   0.452240 0.268200 0.861400 -0.572020
O14   O     O_R   0.547760 0.731800 0.138600 -0.573790
O15   O     O_R   0.547760 0.268200 0.138600 -0.572086
O16   O     O_R   0.452240 0.731800 0.861400 -0.567217
O17   O     O_R   0.952240 0.768200 0.861400 -0.571979
O18   O     O_R   0.047760 0.231800 0.138600 -0.572066
O19   O     O_R   0.047760 0.768200 0.138600 -0.572218
O20   O     O_R   0.952240 0.231800 0.861400 -0.572123
O21   O     O_R   0.503360 0.319320 0.963650 -0.600278
O22   O     O_R   0.496640 0.680680 0.036350 -0.605292
O23   O     O_R   0.496640 0.319320 0.036350 -0.601757
O24   O     O_R   0.503360 0.680680 0.963650 -0.585932
O25   O     O_R   0.003360 0.819320 0.963650 -0.600566
O26   O     O_R   0.996640 0.180680 0.036350 -0.600606
O27   O     O_R   0.996640 0.819320 0.036350 -0.600752
O28   O     O_R   0.003360 0.180680 0.963650 -0.600723
O29   O     O_R   0.539730 0.180720 0.036330 -0.608421
O30   O     O_R   0.460270 0.819280 0.963670 -0.608111
O31   O     O_R   0.460270 0.180720 0.963670 -0.608290
O32   O     O_R   0.539730 0.819280 0.036330 -0.607161
O33   O     O_R   0.039730 0.680720 0.036330 -0.608069
O34   O     O_R   0.960270 0.319280 0.963670 -0.608175
O35   O     O_R   0.960270 0.680720 0.963670 -0.608183
O36   O     O_R   0.039730 0.319280 0.036330 -0.608044
O37   O     O_R   0.409160 0.231870 0.861420 -0.647153
O38   O     O_R   0.590840 0.768130 0.138580 -0.648017
O39   O     O_R   0.590840 0.231870 0.138580 -0.647464
O40   O     O_R   0.409160 0.768130 0.861420 -0.647083
O41   O     O_R   0.909160 0.731870 0.861420 -0.647552
O42   O     O_R   0.090840 0.268130 0.138580 -0.647127
O43   O     O_R   0.090840 0.731870 0.138580 -0.646970
O44   O     O_R   0.909160 0.268130 0.861420 -0.647501
O45   O     O_R   0.564010 0.268190 0.963640 -0.608851
O46   O     O_R   0.435990 0.731810 0.036360 -0.607733
O47   O     O_R   0.435990 0.268190 0.036360 -0.609450
O48   O     O_R   0.564010 0.731810 0.963640 -0.607664
O49   O     O_R   0.064010 0.768190 0.963640 -0.608769
O50   O     O_R   0.935990 0.231810 0.036360 -0.608670
O51   O     O_R   0.935990 0.768190 0.036360 -0.608819
O52   O     O_R   0.064010 0.231810 0.963640 -0.608891
C1    C     C_R   0.599744 0.250025 0.999958 0.851113
C2    C     C_R   0.400257 0.749976 0.000043 0.852489
C3    C     C_R   0.400259 0.250030 0.000055 0.850733
C4    C     C_R   0.599739 0.749971 0.999942 0.838539
C5    C     C_R   0.099743 0.750025 0.999957 0.850272
C6    C     C_R   0.900256 0.249975 0.000042 0.850493
C7    C     C_R   0.900259 0.750031 0.000054 0.850791
C8    C     C_R   0.099741 0.249970 0.999945 0.850559
C9    C     C_R   0.415752 0.250066 0.831522 0.902619
C10   C     C_R   0.584247 0.749935 0.168478 0.896906
C11   C     C_R   0.584245 0.250071 0.168485 0.902740
C12   C     C_R   0.415754 0.749929 0.831515 0.904227
C13   C     C_R   0.915752 0.750066 0.831522 0.901697
C14   C     C_R   0.084248 0.249934 0.168478 0.902060
C15   C     C_R   0.084245 0.750070 0.168485 0.902504
C16   C     C_R   0.915755 0.249929 0.831515 0.902045
C17   C     C_R   0.500000 0.334101 0.000034 0.940753
C18   C     C_R   0.500252 0.665874 0.000138 0.897738
C19   C     C_R   0.000001 0.834105 0.000013 0.938484
C20   C     C_R   0.999999 0.165895 0.999987 0.938468
C21   C     C_R   0.500000 0.165899 0.000002 1.020029
C22   C     C_R   0.499999 0.834104 0.999999 1.019646
C23   C     C_R   0.000000 0.665894 0.000001 1.017579
C24   C     C_R   0.999999 0.334106 0.999999 1.017584
C25   C     C_R   0.466525 0.884673 0.001146 0.126851
C26   C     C_R   0.466781 0.115365 0.001655 0.126442
C27   C     C_R   0.533473 0.884646 0.998844 0.125279
C28   C     C_R   0.533229 0.115342 0.998362 0.125316
C29   C     C_R   0.966247 0.384679 0.000607 0.125682
C30   C     C_R   0.966248 0.615346 0.000610 0.125630
C31   C     C_R   0.033748 0.384656 0.999392 0.126804
C32   C     C_R   0.033753 0.615319 0.999402 0.127092
C33   C     C_R   0.466595 0.917152 0.000532 0.633250
C34   C     C_R   0.466836 0.082884 0.001010 0.633070
C35   C     C_R   0.533406 0.917126 0.999456 0.633701
C36   C     C_R   0.533176 0.082862 0.999004 0.633486
C37   C     C_R   0.966305 0.417156 0.999968 0.633428
C38   C     C_R   0.966307 0.582868 0.999971 0.633435
C39   C     C_R   0.033688 0.417133 0.000033 0.633007
C40   C     C_R   0.033693 0.582843 0.000042 0.632958
C41   C     C_R   0.500001 0.933362 0.999995 -0.122799
C42   C     C_R   0.500006 0.066656 0.000005 -0.122155
C43   C     C_R   0.999997 0.433363 0.000001 -0.122437
C44   C     C_R   0.999999 0.566637 0.000007 -0.122452
C45   C     C_R   0.502225 0.467457 0.004280 0.128481
C46   C     C_R   0.502758 0.532562 0.005487 0.128755
C47   C     C_R   0.000012 0.967452 0.000028 0.128083
C48   C     C_R   0.999996 0.032548 0.999979 0.128079
C49   C     C_R   0.499999 0.868213 0.999995 -0.415685
C50   C     C_R   0.500003 0.131796 0.000005 -0.414963
C51   C     C_R   0.999998 0.368218 0.999999 -0.415432
C52   C     C_R   0.000001 0.631782 0.000005 -0.415454
C53   C     C_R   0.540850 0.983849 0.049264 0.586265
C54   C     C_R   0.459156 0.016179 0.950741 0.585908
C55   C     C_R   0.459158 0.983843 0.950730 0.586285
C56   C     C_R   0.540854 0.016184 0.049258 0.585912
C57   C     C_R   0.040585 0.483837 0.049693 0.586151
C58   C     C_R   0.959409 0.516163 0.950317 0.586097
C59   C     C_R   0.959409 0.483830 0.950316 0.586118
C60   C     C_R   0.040586 0.516170 0.049695 0.586165
C61   C     C_R   0.500005 0.032523 0.000001 -0.276435
C62   C     C_R   0.500003 0.967500 0.999996 -0.276999
C63   C     C_R   0.999998 0.532507 0.000006 -0.276729
C64   C     C_R   0.999997 0.467493 0.000004 -0.276739
C65   C     C_R   0.510920 0.516303 0.969674 -0.135697
C66   C     C_R   0.494139 0.483718 0.040207 -0.135405
C67   C     C_R   0.494339 0.516021 0.040736 -0.133799
C68   C     C_R   0.510623 0.484041 0.969040 -0.134751
C69   C     C_R   0.006619 0.016115 0.962801 -0.135314
C70   C     C_R   0.993390 0.983884 0.037206 -0.135138
C71   C     C_R   0.993382 0.016165 0.037183 -0.135149
C72   C     C_R   0.006626 0.983834 0.962825 -0.135330
C73   C     C_R   0.499736 0.631841 0.999439 -0.245646
C74   C     C_R   0.500328 0.368101 0.000548 -0.251550
C75   C     C_R   0.999986 0.131886 0.999951 -0.252029
C76   C     C_R   0.000016 0.868114 0.000051 -0.252045
C77   C     C_3   0.753067 0.724787 0.030768 -0.286240
C78   C     C_3   0.252003 0.277690 0.979383 -0.282472
C79   C     C_3   0.253732 0.721732 0.982770 -0.281693
C80   C     C_3   0.752827 0.275359 0.030345 -0.284742
C81   C     C_3   0.247997 0.222309 0.020619 -0.282383
C82   C     C_3   0.746923 0.775220 0.969211 -0.285050
C83   C     C_3   0.747173 0.224642 0.969656 -0.284704
C84   C     C_3   0.246268 0.778270 0.017230 -0.281667
C85   C     C_3   0.291412 0.245155 0.058249 -0.291295
C86   C     C_3   0.708197 0.749206 0.940959 -0.289862
C87   C     C_3   0.708187 0.250515 0.940966 -0.291104
C88   C     C_3   0.291063 0.756630 0.057546 -0.291259
C89   C     C_3   0.791793 0.750801 0.059020 -0.290922
C90   C     C_3   0.208589 0.254844 0.941752 -0.291212
C91   C     C_3   0.208936 0.743371 0.942454 -0.290987
C92   C     C_3   0.791814 0.249486 0.059035 -0.291051
H9    H     H_    0.325673 0.241592 0.106119 0.216408
H10   H     H_    0.673697 0.748139 0.892606 0.216868
H11   H     H_    0.673670 0.251349 0.892603 0.216564
H12   H     H_    0.325064 0.761661 0.104889 0.216441
H13   H     H_    0.826293 0.751868 0.107373 0.216506
H14   H     H_    0.174327 0.258406 0.893883 0.216407
H15   H     H_    0.174936 0.738341 0.895110 0.216476
H16   H     H_    0.826330 0.248652 0.107398 0.216569
H17   H     H_    0.754973 0.703907 0.055285 0.218543
H18   H     H_    0.254289 0.300526 0.963262 0.220114
H19   H     H_    0.257442 0.698445 0.969439 0.220500
H20   H     H_    0.754533 0.296352 0.054505 0.219141
H21   H     H_    0.245711 0.199473 0.036740 0.220096
H22   H     H_    0.745017 0.796100 0.944694 0.219077
H23   H     H_    0.745467 0.203648 0.945496 0.219092
H24   H     H_    0.242557 0.801556 0.030560 0.220428
C93   C     C_1   0.360609 0.250072 0.000127 -0.050764
C94   C     C_1   0.639400 0.749919 0.999890 -0.048768
C95   C     C_1   0.639418 0.250068 0.999933 -0.050770
C96   C     C_1   0.360598 0.749948 0.000101 -0.051461
C97   C     C_1   0.860595 0.750085 0.000098 -0.050635
C98   C     C_1   0.139391 0.249927 0.999874 -0.050454
C99   C     C_1   0.139402 0.750053 0.999899 -0.050266
C100  C     C_1   0.860582 0.249932 0.000068 -0.050541
C101  C     C_3   0.244155 0.227761 0.963375 0.773077
C102  C     C_3   0.751276 0.775325 0.027483 0.774578
C103  C     C_3   0.751545 0.224808 0.027942 0.774546
C104  C     C_3   0.242801 0.771076 0.960741 0.772563
C105  C     C_3   0.748714 0.724682 0.972495 0.774819
C106  C     C_3   0.255846 0.272238 0.036626 0.773001
C107  C     C_3   0.257198 0.728926 0.039259 0.772338
C108  C     C_3   0.748456 0.275193 0.972059 0.774483
C109  C     C_3   0.286832 0.250242 0.000405 -0.064923
C110  C     C_3   0.713212 0.749726 0.999682 -0.064916
C111  C     C_3   0.713226 0.250268 0.999711 -0.064781
C112  C     C_3   0.286837 0.749781 0.000413 -0.065011
C113  C     C_3   0.786777 0.750281 0.000296 -0.064744
C114  C     C_3   0.213169 0.249757 0.999596 -0.064946
C115  C     C_3   0.213163 0.750220 0.999586 -0.065038
C116  C     C_3   0.786775 0.249733 0.000290 -0.064797
C117  C     C_1   0.327287 0.250140 0.000239 0.108917
C118  C     C_1   0.672736 0.749842 0.999806 0.108202
C119  C     C_1   0.672756 0.250146 0.999852 0.108703
C120  C     C_1   0.327280 0.749885 0.000220 0.109310
C121  C     C_1   0.827256 0.750165 0.000176 0.108664
C122  C     C_1   0.172713 0.249859 0.999762 0.108970
C123  C     C_1   0.172720 0.750116 0.999780 0.109126
C124  C     C_1   0.827244 0.249855 0.000149 0.108711
C125  C     C_R   0.841318 0.269878 0.731015 -0.337092
C126  C     C_R   0.158683 0.730122 0.268984 -0.335877
C127  C     C_R   0.158695 0.269883 0.269007 -0.336208
C128  C     C_R   0.841312 0.730111 0.730993 -0.337142
C129  C     C_R   0.341318 0.769877 0.731014 -0.335587
C130  C     C_R   0.658682 0.230122 0.268985 -0.337004
C131  C     C_R   0.658685 0.769893 0.269007 -0.337883
C132  C     C_R   0.341305 0.230116 0.730993 -0.336130
H25   H     H_    0.835430 0.285500 0.755783 0.237095
H26   H     H_    0.164570 0.714500 0.244216 0.237578
H27   H     H_    0.164579 0.285502 0.244258 0.237464
H28   H     H_    0.835435 0.714487 0.755742 0.237087
H29   H     H_    0.335431 0.785500 0.755781 0.237534
H30   H     H_    0.664569 0.214499 0.244217 0.237013
H31   H     H_    0.664564 0.785515 0.244259 0.237134
H32   H     H_    0.335421 0.214498 0.755742 0.237380
C133  C     C_R   0.808271 0.269981 0.666474 0.790061
C134  C     C_R   0.191730 0.730019 0.333525 0.790597
C135  C     C_R   0.191747 0.269986 0.333551 0.790442
C136  C     C_R   0.808260 0.730008 0.666449 0.790094
C137  C     C_R   0.308271 0.769978 0.666473 0.790708
C138  C     C_R   0.691729 0.230020 0.333526 0.790079
C139  C     C_R   0.691735 0.769997 0.333551 0.789804
C140  C     C_R   0.308254 0.230013 0.666449 0.790439
C141  C     C_R   0.814738 0.249917 0.633058 0.010646
C142  C     C_R   0.185263 0.750081 0.366942 0.010241
C143  C     C_R   0.185284 0.249927 0.366941 0.010400
C144  C     C_R   0.814714 0.750075 0.633059 0.010630
C145  C     C_R   0.314737 0.749913 0.633058 0.009979
C146  C     C_R   0.685264 0.250084 0.366942 0.010669
C147  C     C_R   0.685278 0.749933 0.366942 0.010914
C148  C     C_R   0.314716 0.250072 0.633059 0.010365
C149  C     C_R   0.854572 0.229922 0.664725 -0.250889
C150  C     C_R   0.145429 0.770076 0.335275 -0.250948
C151  C     C_R   0.145450 0.229937 0.335246 -0.251051
C152  C     C_R   0.854540 0.770071 0.664754 -0.250907
C153  C     C_R   0.354570 0.729917 0.664728 -0.251093
C154  C     C_R   0.645430 0.270080 0.335274 -0.250869
C155  C     C_R   0.645451 0.729938 0.335247 -0.251012
C156  C     C_R   0.354551 0.270062 0.664754 -0.250968
H33   H     H_    0.859983 0.214463 0.639256 0.218278
H34   H     H_    0.140018 0.785535 0.360746 0.218255
H35   H     H_    0.140040 0.214482 0.360694 0.218234
H36   H     H_    0.859943 0.785532 0.639306 0.218314
H37   H     H_    0.359981 0.714456 0.639259 0.218515
H38   H     H_    0.640020 0.285540 0.360744 0.218240
H39   H     H_    0.640046 0.714479 0.360696 0.218276
H40   H     H_    0.359961 0.285517 0.639305 0.218253
C157  C     C_R   0.887695 0.229754 0.729254 0.675632
C158  C     C_R   0.112305 0.770245 0.270747 0.675557
C159  C     C_R   0.112324 0.229768 0.270719 0.675580
C160  C     C_R   0.887668 0.770239 0.729281 0.675750
C161  C     C_R   0.387694 0.729750 0.729256 0.677553
C162  C     C_R   0.612306 0.270248 0.270746 0.675642
C163  C     C_R   0.612325 0.729768 0.270720 0.674648
C164  C     C_R   0.387677 0.270230 0.729281 0.675774
C165  C     C_R   0.881342 0.249803 0.763164 -0.262974
C166  C     C_R   0.118658 0.750197 0.236836 -0.263225
C167  C     C_R   0.118671 0.249812 0.236831 -0.263052
C168  C     C_R   0.881329 0.750188 0.763169 -0.262919
C169  C     C_R   0.381342 0.749801 0.763165 -0.264676
C170  C     C_R   0.618658 0.250198 0.236835 -0.262941
C171  C     C_R   0.618668 0.749815 0.236832 -0.261864
C172  C     C_R   0.381329 0.250187 0.763169 -0.263017
C173  C     C_R   0.753326 0.223112 0.531301 0.112560
C174  C     C_R   0.246675 0.776886 0.468700 0.112646
C175  C     C_R   0.246679 0.223112 0.468654 0.112546
C176  C     C_R   0.753307 0.776887 0.531348 0.112456
C177  C     C_R   0.253327 0.723108 0.531301 0.112454
C178  C     C_R   0.746675 0.276889 0.468699 0.112540
C179  C     C_R   0.746685 0.723120 0.468653 0.112569
C180  C     C_R   0.253322 0.276887 0.531346 0.112464
C181  C     C_R   0.723378 0.223482 0.466526 0.639269
C182  C     C_R   0.276624 0.776516 0.533475 0.639382
C183  C     C_R   0.276607 0.223473 0.533428 0.639255
C184  C     C_R   0.723377 0.776527 0.466573 0.639347
C185  C     C_R   0.223378 0.723478 0.466526 0.639367
C186  C     C_R   0.776624 0.276520 0.533474 0.639272
C187  C     C_R   0.776615 0.723481 0.533427 0.639275
C188  C     C_R   0.223393 0.276525 0.466571 0.639268
C189  C     C_R   0.719757 0.250105 0.435112 -0.232786
C190  C     C_R   0.280245 0.749892 0.564888 -0.232598
C191  C     C_R   0.280224 0.250096 0.564887 -0.232671
C192  C     C_R   0.719772 0.749908 0.435113 -0.232753
C193  C     C_R   0.219757 0.750102 0.435112 -0.232692
C194  C     C_R   0.780244 0.249896 0.564888 -0.232777
C195  C     C_R   0.780220 0.750099 0.564888 -0.232719
C196  C     C_R   0.219777 0.249903 0.435113 -0.232677
C197  C     C_R   0.463963 0.615402 0.995897 0.290360
C198  C     C_R   0.536635 0.384479 0.005207 0.281537
C199  C     C_R   0.536703 0.615364 0.005869 0.278339
C200  C     C_R   0.464663 0.384602 0.997168 0.282458
C201  C     C_R   0.964539 0.115449 0.997097 0.282216
C202  C     C_R   0.035464 0.884550 0.002905 0.282654
C203  C     C_R   0.035426 0.115425 0.002791 0.282538
C204  C     C_R   0.964577 0.884575 0.997211 0.282162
C205  C     C_R   0.466087 0.582996 0.999413 -0.193912
C206  C     C_R   0.536384 0.416886 0.005611 -0.190235
C207  C     C_R   0.537801 0.583074 0.009053 -0.176664
C208  C     C_R   0.466258 0.416994 0.999449 -0.190176
C209  C     C_R   0.965506 0.083047 0.998107 -0.190457
C210  C     C_R   0.034499 0.916952 0.001898 -0.190668
C211  C     C_R   0.034460 0.083023 0.001786 -0.190627
C212  C     C_R   0.965546 0.916978 0.998219 -0.190407
H41   H     H_    0.438105 0.570343 0.995137 0.194010
H42   H     H_    0.564582 0.429390 0.010146 0.192977
H43   H     H_    0.566514 0.570686 0.014543 0.189504
H44   H     H_    0.438558 0.429615 0.995881 0.192850
H45   H     H_    0.938013 0.070475 0.995048 0.193298
H46   H     H_    0.061993 0.929524 0.004956 0.193097
H47   H     H_    0.061954 0.070433 0.004847 0.193106
H48   H     H_    0.938052 0.929569 0.995158 0.193294
C213  C     C_R   0.502473 0.566725 0.005282 -0.016481
C214  C     C_R   0.501675 0.433264 0.003240 -0.013259
C215  C     C_R   0.999986 0.066723 0.999954 -0.013876
C216  C     C_R   0.000020 0.933277 0.000051 -0.013879
F1    F     F_    0.925744 0.209968 0.758089 -0.590238
F2    F     F_    0.074256 0.790031 0.241913 -0.590478
F3    F     F_    0.074276 0.209986 0.241864 -0.590457
F4    F     F_    0.925707 0.790028 0.758136 -0.590095
F5    F     F_    0.425741 0.709963 0.758093 -0.586506
F6    F     F_    0.574258 0.290034 0.241911 -0.590428
F7    F     F_    0.574284 0.709980 0.241865 -0.591034
F8    F     F_    0.425725 0.290012 0.758135 -0.590411
N1    N     N_R   0.755189 0.195838 0.562229 0.261897
O53   O     O_R   0.755806 0.198240 0.608874 -0.323984
O54   O     O_R   0.752832 0.168411 0.541206 -0.220249
N2    N     N_R   0.244811 0.804160 0.437773 0.261926
O55   O     O_R   0.247168 0.831588 0.458797 -0.220111
O56   O     O_R   0.244194 0.801759 0.391128 -0.323288
N3    N     N_R   0.244819 0.195838 0.437682 0.261911
O57   O     O_R   0.244217 0.198239 0.391053 -0.323527
O58   O     O_R   0.247162 0.168410 0.458646 -0.220190
N4    N     N_R   0.755155 0.804157 0.562322 0.261913
O59   O     O_R   0.752799 0.831587 0.541358 -0.220242
O60   O     O_R   0.755760 0.801747 0.608952 -0.323935
N5    N     N_R   0.255191 0.695834 0.562228 0.262086
O61   O     O_R   0.255807 0.698235 0.608872 -0.322436
O62   O     O_R   0.252835 0.668406 0.541205 -0.219387
N6    N     N_R   0.744812 0.304163 0.437771 0.261893
O63   O     O_R   0.747170 0.331591 0.458794 -0.220252
O64   O     O_R   0.744195 0.301761 0.391126 -0.323880
N7    N     N_R   0.744837 0.695851 0.437679 0.261857
O65   O     O_R   0.744232 0.698260 0.391049 -0.324971
O66   O     O_R   0.747193 0.668420 0.458643 -0.220335
N8    N     N_R   0.255182 0.304161 0.562318 0.261956
O67   O     O_R   0.252839 0.331589 0.541354 -0.219897
O68   O     O_R   0.255783 0.301760 0.608947 -0.323238
F9    F     F_    0.695683 0.198341 0.433584 -0.549725
F10   F     F_    0.304318 0.801657 0.566417 -0.549620
F11   F     F_    0.304289 0.198326 0.566329 -0.549649
F12   F     F_    0.695684 0.801671 0.433674 -0.549618
F13   F     F_    0.195684 0.698337 0.433583 -0.549584
F14   F     F_    0.804319 0.301661 0.566416 -0.549737
F15   F     F_    0.804308 0.698336 0.566326 -0.549704
F16   F     F_    0.195711 0.301673 0.433672 -0.549621
N9    N     N_R   0.424419 0.631036 0.986556 0.231977
O69   O     O_R   0.403330 0.654501 0.948938 -0.376013
O70   O     O_R   0.405201 0.619355 0.009044 -0.319073
N10   N     N_R   0.574994 0.368719 0.011929 0.230993
O71   O     O_R   0.596531 0.345064 0.048915 -0.381719
O72   O     O_R   0.593171 0.380649 0.988277 -0.315372
N11   N     N_R   0.574501 0.631028 0.011621 0.202528
O73   O     O_R   0.564709 0.645384 0.964091 -0.305263
O74   O     O_R   0.619354 0.624964 0.058630 -0.336851
N12   N     N_R   0.425699 0.369008 0.989256 0.230955
O75   O     O_R   0.403675 0.345804 0.951092 -0.380904
O76   O     O_R   0.407674 0.380646 0.013334 -0.316903
N13   N     N_R   0.926331 0.131128 0.990843 0.231514
O77   O     O_R   0.903912 0.154382 0.952957 -0.380510
O78   O     O_R   0.909162 0.119449 0.015944 -0.314985
N14   N     N_R   0.073671 0.868870 0.009158 0.231373
O79   O     O_R   0.096089 0.845616 0.047043 -0.380427
O80   O     O_R   0.090841 0.880549 0.984058 -0.316762
N15   N     N_R   0.073632 0.131081 0.009041 0.231386
O81   O     O_R   0.096064 0.154341 0.046939 -0.380485
O82   O     O_R   0.090790 0.119373 0.983924 -0.316331
N16   N     N_R   0.926370 0.868920 0.990961 0.231513
O83   O     O_R   0.903937 0.845661 0.953061 -0.380447
O84   O     O_R   0.909213 0.880629 0.016078 -0.314878
N17   N     N_R   0.433684 0.868757 0.005453 0.269471
O85   O     O_R   0.449208 0.846710 0.045792 -0.370887
O86   O     O_R   0.389392 0.878408 0.973806 -0.214365
N18   N     N_R   0.434236 0.131311 0.006509 0.269295
O87   O     O_R   0.449954 0.153508 0.046652 -0.371505
O88   O     O_R   0.390085 0.121548 0.975642 -0.213253
N19   N     N_R   0.566313 0.868702 0.994536 0.270122
O89   O     O_R   0.550789 0.846634 0.954200 -0.368171
O90   O     O_R   0.610606 0.878343 0.026181 -0.210578
N20   N     N_R   0.565782 0.131263 0.993527 0.269671
O91   O     O_R   0.550066 0.153430 0.953363 -0.369699
O92   O     O_R   0.609948 0.121508 0.024449 -0.210673
N21   N     N_R   0.933130 0.368768 0.004407 0.270244
O93   O     O_R   0.948449 0.346806 0.044848 -0.368194
O94   O     O_R   0.888760 0.378366 0.972204 -0.210995
N22   N     N_R   0.933130 0.631283 0.004406 0.270271
O95   O     O_R   0.948447 0.653264 0.044847 -0.368136
O96   O     O_R   0.888759 0.621693 0.972200 -0.210940
N23   N     N_R   0.066865 0.368721 0.995590 0.269877
O97   O     O_R   0.051547 0.346740 0.955149 -0.370059
O98   O     O_R   0.111235 0.378312 0.027793 -0.213495
N24   N     N_R   0.066872 0.631228 0.995604 0.269776
O99   O     O_R   0.051556 0.653188 0.955161 -0.370502
O100  O     O_R   0.111243 0.621629 0.027813 -0.214380
F17   F     F_    0.435588 0.933083 0.003540 -0.532719
F18   F     F_    0.436068 0.066961 0.004445 -0.532948
F19   F     F_    0.564415 0.933030 0.996449 -0.531970
F20   F     F_    0.563949 0.066918 0.995575 -0.532301
F21   F     F_    0.934991 0.433088 0.002394 -0.532232
F22   F     F_    0.934991 0.566960 0.002394 -0.532225
F23   F     F_    0.065002 0.433043 0.997608 -0.532865
F24   F     F_    0.065008 0.566908 0.997620 -0.532948
F25   F     F_    0.580345 0.968444 0.097813 -0.516518
F26   F     F_    0.419653 0.031590 0.902220 -0.516841
F27   F     F_    0.419662 0.968432 0.902179 -0.516502
F28   F     F_    0.580358 0.031602 0.097782 -0.516855
F29   F     F_    0.079818 0.468427 0.098624 -0.516704
F30   F     F_    0.920177 0.531573 0.901386 -0.516799
F31   F     F_    0.920175 0.468413 0.901383 -0.516787
F32   F     F_    0.079819 0.531587 0.098627 -0.516697
F33   F     F_    0.752012 0.801663 0.056079 -0.581952
F34   F     F_    0.238670 0.204629 0.925281 -0.583979
F35   F     F_    0.235908 0.792997 0.919907 -0.584525
F36   F     F_    0.752557 0.198604 0.057006 -0.582066
F37   F     F_    0.261330 0.295370 0.074720 -0.583938
F38   F     F_    0.747977 0.698344 0.943899 -0.581978
F39   F     F_    0.747444 0.301397 0.942995 -0.582014
F40   F     F_    0.264092 0.707004 0.080092 -0.584645
F41   F     F_    0.769636 0.289327 0.636599 -0.575777
F42   F     F_    0.230365 0.710673 0.363399 -0.574940
F43   F     F_    0.230381 0.289328 0.363451 -0.575185
F44   F     F_    0.769633 0.710660 0.636548 -0.575740
F45   F     F_    0.269637 0.789325 0.636598 -0.575029
F46   F     F_    0.730364 0.210673 0.363400 -0.575805
F47   F     F_    0.730363 0.789345 0.363452 -0.575879
F48   F     F_    0.269619 0.210671 0.636549 -0.575251

loop_
_geom_bond_atom_site_label_1
_geom_bond_atom_site_label_2
_geom_bond_distance
_ccdc_geom_bond_type
C201  N13   1.439507 S    
Zn15  O51   1.911853 S    
C106  C114  1.529775 S    
C24   C51   1.472455 S    
H4    C68   1.083010 S    
C90   C101  1.542719 S    
O15   C11   1.277463 A    
C34   C42   1.400375 A    
C85   C109  1.541811 S    
O41   C13   1.279131 A    
C159  C167  1.410110 A    
C33   F17   1.359135 S    
C81   C101  1.542717 S    
N19   O90   1.301239 A    
N13   O77   1.301488 A    
C30   N22   1.438573 S    
C101  F34   1.382486 S    
N17   O86   1.301240 A    
C103  C111  1.529774 S    
C153  H37   1.083521 S    
C101  C109  1.529773 S    
C88   C112  1.541824 S    
Zn11  O23   1.930032 S    
C79   C91   1.555527 S    
C184  F12   1.359376 S    
C92   C116  1.541827 S    
C148  C191  1.472923 S    
C176  N4    1.439798 S    
Zn15  O27   1.930032 S    
C104  C112  1.529774 S    
C12   C169  1.476738 S    
Zn16  O20   1.931642 S    
O20   C16   1.277464 A    
C84   C104  1.542719 S    
C114  C122  1.460008 S    
C73   C197  1.417701 A    
C108  C116  1.529773 S    
C180  N8    1.439799 S    
Zn7   O9    1.911955 S    
C57   F29   1.357942 S    
C17   C74   1.467683 S    
C105  F38   1.382488 S    
C46   C213  1.474733 S    
O49   C5    1.277468 A    
N5    O62   1.301269 A    
C48   C71   1.403819 A    
C90   H14   1.110068 S    
C179  C192  1.412926 A    
C76   C202  1.417497 A    
C198  C206  1.398982 A    
O34   C24   1.276642 A    
C65   C68   1.392669 A    
C125  C133  1.394716 A    
C56   C61   1.404406 A    
C145  C153  1.400329 A    
C129  C137  1.394714 A    
C179  N7    1.439799 S    
Zn12  O16   1.931642 S    
O8    C4    1.277324 A    
C204  N16   1.439499 S    
Zn15  O3    1.933838 S    
C87   C111  1.541829 S    
C112  C120  1.460051 S    
C127  C167  1.406472 A    
C212  C216  1.399309 A    
C137  C145  1.402082 A    
Zn2   O2    1.934900 S    
C135  C143  1.402106 A    
O37   C9    1.279130 A    
C57   C60   1.395698 A    
C92   H16   1.110069 S    
N18   O88   1.301258 A    
C95   C119  1.202136 T    
C156  H40   1.083519 S    
C144  C152  1.400299 A    
Zn8   O4    1.934851 S    
C93   C117  1.202109 T    
C151  C159  1.394482 A    
C78   C109  1.541808 S    
C152  H36   1.083522 S    
C70   C71   1.393432 A    
C181  F9    1.359377 S    
C135  F43   1.357588 S    
C136  F44   1.357586 S    
C82   C113  1.541807 S    
C25   N17   1.438640 S    
C45   C66   1.404700 A    
C21   C50   1.472079 S    
O36   C24   1.276644 A    
Zn9   O1    1.934889 S    
C104  F35   1.382486 S    
C23   C52   1.472459 S    
C177  N5    1.439799 S    
Zn10  O14   1.931439 S    
C181  C189  1.404065 A    
O16   C12   1.277458 A    
C54   C55   1.395771 A    
C31   C51   1.417228 A    
C55   C62   1.404531 A    
C131  C139  1.394770 A    
C96   C120  1.202135 T    
O26   C20   1.274598 A    
C188  F16   1.359376 S    
C47   C216  1.475188 S    
C203  N15   1.439497 S    
C160  F4    1.357392 S    
O44   C16   1.278745 A    
C179  C187  1.402246 A    
C180  C188  1.402247 A    
N4    O59   1.301273 A    
N16   O83   1.301488 A    
C73   C199  1.415083 A    
C176  C184  1.402249 A    
C39   F23   1.359140 S    
N7    O65   1.301379 A    
C4    C94   1.429314 S    
C37   F21   1.359139 S    
C19   C76   1.468004 S    
N21   O93   1.301460 A    
C89   C113  1.541810 S    
C126  H26   1.083002 S    
O27   C19   1.274635 A    
N13   O78   1.301425 A    
C138  F46   1.357588 S    
O17   C13   1.277745 A    
C75   C203  1.417486 A    
C178  N6    1.439797 S    
C177  C190  1.412908 A    
C76   C204  1.417485 A    
C80   H20   1.110071 S    
C69   C72   1.393436 A    
O45   C1    1.277469 A    
N23   O97   1.301458 A    
C32   C40   1.402034 A    
O21   C17   1.275035 A    
O47   C3    1.277188 A    
C197  C205  1.400992 A    
Zn14  O26   1.929503 S    
C209  C215  1.399290 A    
C125  C165  1.406466 A    
O38   C10   1.279127 A    
C211  C215  1.399309 A    
C85   C106  1.542720 S    
O14   C10   1.277750 A    
C43   C64   1.473245 S    
Zn14  O50   1.911618 S    
C29   C37   1.402037 A    
N22   O95   1.301458 A    
C186  F14   1.359376 S    
C131  C171  1.406473 A    
N8    O67   1.301272 A    
C80   C92   1.555526 S    
C132  C172  1.406473 A    
C133  F41   1.357591 S    
Zn1   O7    1.911626 S    
C178  C186  1.402232 A    
Zn2   O8    1.911630 S    
C149  C157  1.394514 A    
Zn3   O5    1.911955 S    
C5    C99   1.429348 S    
C144  C195  1.472919 S    
Zn5   O3    1.934902 S    
C145  C190  1.472890 S    
C206  H42   1.083357 S    
C22   C49   1.472338 S    
Zn6   O4    1.934900 S    
H6    C70   1.083045 S    
N14   O79   1.301486 A    
C25   C49   1.417160 A    
N23   O98   1.301240 A    
C88   C107  1.542724 S    
Zn8   O34   1.930099 S    
C212  H48   1.083412 S    
C164  C172  1.410109 A    
C151  H35   1.083523 S    
C34   F18   1.359169 S    
C45   C68   1.403619 A    
C111  C119  1.460054 S    
C46   C67   1.403351 A    
C109  C117  1.460010 S    
C102  F33   1.382490 S    
N10   O72   1.301428 A    
N24   O100  1.301238 A    
C59   F31   1.357943 S    
C77   H17   1.110071 S    
C143  C151  1.400298 A    
C29   C51   1.417232 A    
C127  C135  1.394771 A    
C58   C63   1.404425 A    
C28   C36   1.402183 A    
C54   F26   1.357932 S    
C40   C44   1.400368 A    
Zn12  O2    1.933836 S    
O18   C14   1.277745 A    
C11   C170  1.476740 S    
C82   H22   1.110069 S    
O22   C18   1.276934 A    
C31   C39   1.402038 A    
C160  C168  1.410113 A    
N6    O64   1.301382 A    
C161  C169  1.410075 A    
C108  F39   1.382496 S    
Zn8   O10   1.911951 S    
C32   C52   1.417228 A    
C132  C140  1.394771 A    
C208  H44   1.083338 S    
C97   C121  1.202110 T    
C134  C142  1.402079 A    
C157  C165  1.410078 A    
C211  H47   1.083412 S    
C75   C201  1.417494 A    
C39   C43   1.400366 A    
C88   H12   1.110070 S    
C199  C207  1.395642 A    
C103  F36   1.382490 S    
C185  C193  1.404063 A    
C36   F20   1.359168 S    
C183  F11   1.359375 S    
C187  C195  1.404060 A    
C209  H45   1.083415 S    
N15   O82   1.301423 A    
C207  C213  1.398638 A    
C53   F25   1.357934 S    
C77   C89   1.555520 S    
Zn16  O52   1.911854 S    
C15   C166  1.476744 S    
C78   C90   1.555527 S    
N18   O87   1.301476 A    
C26   C50   1.417227 A    
C58   C59   1.395698 A    
C27   C35   1.402129 A    
C202  N14   1.439506 S    
C187  F15   1.359379 S    
C147  C192  1.472921 S    
C35   C41   1.400486 A    
Zn1   O31   1.930074 S    
Zn15  O19   1.931641 S    
O48   C4    1.277191 A    
Zn2   O32   1.930074 S    
N17   O85   1.301460 A    
Zn3   O29   1.930099 S    
C182  F10   1.359379 S    
Zn5   O11   1.911626 S    
C163  C171  1.410115 A    
Zn6   O12   1.911630 S    
C27   C49   1.417164 A    
C54   C61   1.404403 A    
Zn7   O43   1.930973 S    
O5    C1    1.277643 A    
N2    O55   1.301271 A    
C154  H38   1.083521 S    
C74   C200  1.417541 A    
O10   C6    1.277645 A    
C46   C65   1.403752 A    
C16   C165  1.476744 S    
C80   C111  1.541814 S    
C32   N24   1.438570 S    
C173  C194  1.412910 A    
C125  H25   1.083001 S    
C141  C194  1.472890 S    
C175  C196  1.412923 A    
C176  C195  1.412924 A    
Zn9   O21   1.929503 S    
N12   O75   1.301492 A    
C199  N11   1.433671 S    
C105  C113  1.529776 S    
C41   C62   1.473594 S    
C182  C190  1.404066 A    
Zn12  O24   1.930032 S    
C89   C102  1.542718 S    
O52   C8    1.277190 A    
Zn13  O17   1.931440 S    
N5    O61   1.301380 A    
C33   C41   1.400489 A    
N11   O73   1.300652 A    
O42   C14   1.279126 A    
C26   N18   1.438801 S    
C82   C102  1.542719 S    
C84   C88   1.555525 S    
C91   H15   1.110070 S    
O46   C2    1.277471 A    
Zn9   O45   1.911620 S    
N9    O70   1.301456 A    
Zn11  O47   1.911853 S    
C35   F19   1.359138 S    
C25   C33   1.402126 A    
C102  C110  1.529773 S    
C30   C52   1.417233 A    
C164  F8    1.357392 S    
Zn7   O3    1.934849 S    
C128  H28   1.083001 S    
C139  C147  1.402107 A    
C205  C213  1.400143 A    
C38   F22   1.359138 S    
C99   C123  1.202133 T    
C37   C43   1.400367 A    
C152  C160  1.394482 A    
C197  N9    1.439928 S    
C153  C161  1.394514 A    
C92   C103  1.542724 S    
C203  C211  1.398944 A    
C31   N23   1.438572 S    
C204  C212  1.398940 A    
C178  C189  1.412910 A    
C155  H39   1.083524 S    
C79   H19   1.110073 S    
C87   H11   1.110070 S    
C60   F32   1.357942 S    
C53   C56   1.395771 A    
Zn4   O30   1.930099 S    
Zn12  O48   1.911854 S    
C113  C121  1.460007 S    
C81   H21   1.110073 S    
O50   C6    1.277467 A    
C60   C63   1.404424 A    
C131  H31   1.082998 S    
C45   C214  1.476136 S    
C59   C64   1.404425 A    
C134  F42   1.357591 S    
C142  C150  1.400327 A    
Zn3   O1    1.934849 S    
C150  C158  1.394514 A    
C107  C115  1.529774 S    
C139  F47   1.357585 S    
N3    O57   1.301377 A    
O11   C7    1.277316 A    
C146  C154  1.400328 A    
C146  C189  1.472888 S    
C175  C183  1.402247 A    
H7    C71   1.083042 S    
C58   F30   1.357941 S    
H5    C69   1.083045 S    
N21   O94   1.301237 A    
C83   C116  1.541820 S    
C83   C103  1.542719 S    
C86   H10   1.110070 S    
C47   C70   1.403802 A    
C74   C198  1.417123 A    
O31   C21   1.276539 A    
C115  C123  1.460051 S    
C141  C149  1.400331 A    
C157  F1    1.357389 S    
N4    O60   1.301382 A    
C159  F3    1.357391 S    
Zn10  O46   1.911618 S    
C150  H34   1.083521 S    
C86   C110  1.541814 S    
O24   C18   1.273247 A    
C94   C118  1.202108 T    
C184  C192  1.404057 A    
C81   C85   1.555522 S    
C77   C110  1.541809 S    
C28   N20   1.438791 S    
C6    C100  1.429351 S    
C7    C97   1.429305 S    
C81   C114  1.541810 S    
Zn16  O28   1.930032 S    
C149  H33   1.083517 S    
Zn1   O37   1.931272 S    
Zn4   O2    1.934851 S    
Zn3   O39   1.930973 S    
Zn4   O40   1.930970 S    
C162  C170  1.410076 A    
N22   O96   1.301237 A    
O51   C7    1.277191 A    
N8    O68   1.301380 A    
C158  C166  1.410075 A    
C78   C106  1.542717 S    
C180  C191  1.412923 A    
C79   C107  1.542719 S    
Zn7   O33   1.930099 S    
C186  C194  1.404066 A    
C185  F13   1.359376 S    
C57   C64   1.404424 A    
N14   O80   1.301426 A    
C129  H29   1.083001 S    
C140  C148  1.402108 A    
Zn11  O1    1.933838 S    
C66   C67   1.394416 A    
C140  F48   1.357587 S    
C90   C114  1.541810 S    
C127  H27   1.083002 S    
C174  N2    1.439793 S    
O40   C12   1.278747 A    
C40   F24   1.359138 S    
C38   C44   1.400362 A    
O33   C23   1.276645 A    
Zn16  O4    1.933836 S    
C137  F45   1.357590 S    
C143  C196  1.472925 S    
C128  C168  1.406469 A    
O35   C23   1.276641 A    
C91   C104  1.542726 S    
C129  C169  1.406463 A    
N19   O89   1.301458 A    
O32   C22   1.276600 A    
C158  F2    1.357393 S    
N15   O81   1.301487 A    
C155  C163  1.394481 A    
N1    O53   1.301381 A    
C18   C73   1.469110 S    
C156  C164  1.394481 A    
C86   C105  1.542720 S    
C210  H46   1.083411 S    
C30   C38   1.402036 A    
C198  N10   1.439561 S    
O13   C9    1.277745 A    
C132  H32   1.082998 S    
N11   O74   1.300933 A    
C77   C105  1.542716 S    
C48   C215  1.475188 S    
C89   H13   1.110070 S    
C161  F5    1.357395 S    
C173  N1    1.439795 S    
C208  C214  1.399398 A    
C200  C208  1.399158 A    
C174  C193  1.412911 A    
C207  H43   1.083735 S    
N1    O54   1.301270 A    
C201  C209  1.398912 A    
C55   F27   1.357934 S    
C142  C193  1.472888 S    
C53   C62   1.404534 A    
Zn10  O22   1.929503 S    
C13   C168  1.476800 S    
C8    C98   1.429303 S    
C14   C167  1.476804 S    
C130  C170  1.406465 A    
C42   C61   1.473361 S    
C183  C191  1.404062 A    
Zn14  O18   1.931439 S    
Zn10  O2    1.934891 S    
C116  C124  1.460054 S    
Zn1   O1    1.934902 S    
O25   C19   1.274592 A    
C210  C216  1.399291 A    
C80   C108  1.542719 S    
C110  C118  1.460007 S    
O43   C15   1.278740 A    
C174  C182  1.402232 A    
O23   C17   1.273998 A    
Zn5   O35   1.930074 S    
C27   N19   1.438646 S    
Zn6   O36   1.930074 S    
H2    C66   1.082971 S    
C126  C134  1.394714 A    
Zn5   O41   1.931272 S    
H8    C72   1.083040 S    
C200  N12   1.439762 S    
C163  F7    1.357392 S    
C202  C210  1.398915 A    
O29   C21   1.276539 A    
C20   C75   1.468000 S    
C154  C162  1.394512 A    
O19   C15   1.277466 A    
C91   C115  1.541822 S    
C29   N21   1.438572 S    
N3    O58   1.301274 A    
C138  C146  1.402081 A    
C188  C196  1.404059 A    
C147  C155  1.400298 A    
Zn9   O13   1.931440 S    
C9    C172  1.476801 S    
N7    O66   1.301275 A    
C44   C63   1.473249 S    
C10   C171  1.476807 S    
C47   C72   1.403816 A    
Zn11  O15   1.931641 S    
C98   C122  1.202109 T    
C130  H30   1.083002 S    
N16   O84   1.301425 A    
Zn13  O25   1.929503 S    
C133  C141  1.402077 A    
N2    O56   1.301380 A    
C87   C108  1.542719 S    
Zn8   O44   1.930970 S    
C1    C95   1.429351 S    
C83   C87   1.555527 S    
C2    C96   1.429350 S    
C162  F6    1.357389 S    
C79   C112  1.541822 S    
N10   O71   1.301476 A    
C206  C214  1.399822 A    
N24   O99   1.301458 A    
C56   F28   1.357931 S    
N20   O91   1.301476 A    
N12   O76   1.301442 A    
C3    C93   1.429308 S    
O39   C11   1.278741 A    
Zn13  O49   1.911620 S    
C128  C136  1.394770 A    
Zn13  O3    1.934889 S    
C205  H41   1.083357 S    
C148  C156  1.400299 A    
O7    C3    1.277321 A    
C48   C69   1.403802 A    
C106  F37   1.382485 S    
C107  F40   1.382485 S    
Zn14  O4    1.934891 S    
C136  C144  1.402108 A    
C78   H18   1.110068 S    
C85   H9    1.110068 S    
N9    O69   1.301490 A    
C84   C115  1.541822 S    
C36   C42   1.400372 A    
C130  C138  1.394714 A    
O12   C8    1.277322 A    
N6    O63   1.301273 A    
C84   H24   1.110073 S    
O28   C20   1.274634 A    
N20   O92   1.301260 A    
H1    C65   1.083087 S    
H3    C67   1.083057 S    
C175  N3    1.439800 S    
C26   C34   1.402206 A    
C82   C86   1.555527 S    
O6    C2    1.277646 A    
Zn6   O42   1.931275 S    
C28   C50   1.417225 A    
C126  C166  1.406467 A    
C177  C185  1.402234 A    
O30   C22   1.276604 A    
C83   H23   1.110073 S    
O9    C5    1.277648 A    
C100  C124  1.202136 T    
Zn4   O6    1.911951 S    
Zn2   O38   1.931275 S    
C173  C181  1.402232 A    
