data_mof_unit_pretest_719.cif
_audit_creation_date              2012-12-10T18:05:16-0500
_audit_creation_method            fapswitch 2.2
_symmetry_space_group_name_H-M    P1
_symmetry_Int_Tables_number       1
_space_group_crystal_system       triclinic
_cell_length_a                    9.60068
_cell_length_b                    10.874897
_cell_length_c                    17.078089
_cell_angle_alpha                 86.88997
_cell_angle_beta                  92.381963
_cell_angle_gamma                 92.451745
_cell_volume                      1777.42938245

loop_
_atom_site_label
_atom_site_type_symbol
_atom_type_description
_atom_site_fract_x
_atom_site_fract_y
_atom_site_fract_z
_atom_type_partial_charge
C1    C     C_R   0.496699 0.262354 0.497370 0.921432
C2    C     C_R   0.074237 0.551609 0.438366 -0.133180
C3    C     C_R   0.516202 0.502902 0.650293 0.796064
C4    C     C_R   0.483808 0.497154 0.349710 0.795914
C5    C     C_R   0.524118 0.515224 0.735317 -0.125578
C6    C     C_R   0.475938 0.484838 0.264700 -0.125532
C7    C     C_R   0.438375 0.436789 0.781278 -0.213101
C8    C     C_R   0.560938 0.563908 0.218707 -0.213403
C9    C     C_R   0.444816 0.441371 0.862083 -0.129144
C10   C     C_R   0.554503 0.559301 0.137900 -0.129200
C11   C     C_R   0.535658 0.527350 0.899256 0.272340
C12   C     C_R   0.503301 0.737646 0.502629 0.921552
C13   C     C_R   0.464518 0.472609 0.100780 0.272161
C14   C     C_R   0.621087 0.609587 0.853661 -0.057465
C15   C     C_R   0.379875 0.389744 0.146420 -0.057407
C16   C     C_R   0.617673 0.602048 0.770832 -0.055284
C17   C     C_R   0.383169 0.397362 0.229241 -0.055164
C18   C     C_R   0.383692 0.054329 0.529137 0.379474
C19   C     C_R   0.616292 0.945669 0.470835 0.379467
C20   C     C_2   0.707598 0.705534 0.894381 0.467259
C21   C     C_2   0.294433 0.293061 0.105759 0.467710
C22   C     C_2   0.709373 0.683822 0.720764 0.480876
C23   C     C_R   0.397893 0.926948 0.540230 0.341532
C24   C     C_2   0.292139 0.315044 0.279376 0.480641
C25   C     C_3   0.166346 0.119718 0.496738 -0.216193
C26   C     C_3   0.833715 0.880350 0.503113 -0.216562
C27   C     C_3   0.184773 0.832747 0.570120 -0.157272
C28   C     C_3   0.815189 0.167288 0.429829 -0.157477
C29   C     C_2   0.138434 0.386843 0.632663 0.393195
C30   C     C_2   0.861560 0.613117 0.367318 0.393569
C31   C     C_R   0.602099 0.073055 0.459752 0.341545
C32   C     C_R   0.508993 0.872022 0.506409 -0.385117
C33   C     C_R   0.491007 0.127979 0.493582 -0.385201
C34   C     C_R   0.073113 0.447140 0.562157 0.090947
C35   C     C_R   0.926884 0.552855 0.437839 0.090678
C36   C     C_R   0.925763 0.448397 0.561635 -0.132822
Cu1   Cu    Cu3+1 0.640660 0.500020 0.500000 0.996198
Cu2   Cu    Cu3+1 0.359340 0.499980 0.500000 0.996275
H1    H     H_    0.630405 0.632103 0.245286 0.195507
H2    H     H_    0.333207 0.275745 0.334880 0.035548
H3    H     H_    0.074573 0.160785 0.520633 0.167499
H4    H     H_    0.131384 0.030270 0.472863 0.097041
H5    H     H_    0.202346 0.181795 0.447302 0.170048
H6    H     H_    0.797984 0.817979 0.552470 0.170033
H7    H     H_    0.868391 0.969774 0.527126 0.096996
H8    H     H_    0.925617 0.839665 0.479099 0.167465
H9    H     H_    0.149512 0.742722 0.597797 0.180168
H10   H     H_    0.173576 0.824183 0.505409 0.114582
H11   H     H_    0.115040 0.902702 0.589763 0.181074
H12   H     H_    0.368285 0.369092 0.754678 0.195320
H13   H     H_    0.884932 0.097346 0.410182 0.181145
H14   H     H_    0.850414 0.257317 0.402143 0.179997
H15   H     H_    0.826412 0.175862 0.494540 0.114631
H16   H     H_    0.101721 0.404821 0.690059 0.038583
H17   H     H_    0.898283 0.595118 0.309928 0.038426
H18   H     H_    0.621228 0.623733 0.104666 0.165345
H19   H     H_    0.377411 0.377481 0.895273 0.165122
H20   H     H_    0.870019 0.405606 0.610456 0.145621
H21   H     H_    0.129982 0.594403 0.389547 0.145576
H22   H     H_    0.749061 0.686310 0.953665 0.068651
H23   H     H_    0.252851 0.311851 0.046453 0.068473
H24   H     H_    0.668535 0.723757 0.665380 0.035609
N1    N     N_2   0.540922 0.536472 0.982099 -0.260974
N2    N     N_2   0.459291 0.463472 0.017939 -0.261045
N3    N     N_R   0.852070 0.500030 0.499980 -0.176218
N4    N     N_R   0.147930 0.499970 0.500020 -0.176150
O1    O     O_R   0.618740 0.319660 0.500000 -0.578804
O2    O     O_2   0.275291 0.189882 0.136223 -0.492708
O3    O     O_2   0.832282 0.702905 0.739295 -0.526481
O4    O     O_2   0.169472 0.294797 0.260764 -0.526333
O5    O     O_3   0.269239 0.106314 0.558082 -0.488191
O6    O     O_3   0.730690 0.893678 0.441834 -0.488080
O7    O     O_3   0.323053 0.859321 0.597001 -0.541900
O8    O     O_3   0.676906 0.140681 0.402967 -0.541928
O9    O     O_2   0.225359 0.309837 0.627914 -0.472941
O10   O     O_2   0.774622 0.690117 0.372048 -0.472950
O11   O     O_R   0.381260 0.680340 0.500000 -0.578764
O12   O     O_R   0.381170 0.319630 0.500010 -0.531300
O13   O     O_R   0.618830 0.680370 0.499990 -0.531417
O14   O     O_R   0.631780 0.498870 0.613920 -0.611455
O15   O     O_R   0.368220 0.501130 0.386080 -0.611374
O16   O     O_R   0.394210 0.498840 0.613930 -0.545145
O17   O     O_R   0.605790 0.501160 0.386070 -0.545139
O18   O     O_2   0.727827 0.808618 0.863988 -0.492890

loop_
_geom_bond_atom_site_label_1
_geom_bond_atom_site_label_2
_ccdc_geom_bond_type
C27   H10   S    
C2    C35   A    
C26   O6    S    
C28   O8    S    
C34   N4    A    
C24   O4    D    
Cu1   O13   S    
C30   C35   S    
C11   N1    S    
C28   H13   S    
C13   N2    S    
C29   H16   S    
C3    O14   A    
C12   O13   A    
C7    C9    A    
C5    C16   A    
C26   H7    S    
C24   H2    S    
C4    O15   A    
Cu2   N4    S    
Cu1   N3    S    
C31   C33   A    
C25   O5    S    
C8    H1    S    
C20   H22   S    
C10   H18   S    
C22   O3    D    
C9    H19   S    
C19   C31   A    
Cu2   O16   S    
C1    O12   A    
C25   H5    S    
C19   O6    S    
C23   O7    S    
C19   C32   A    
Cu1   O14   S    
C17   C24   S    
C26   H6    S    
C18   C23   A    
C14   C20   S    
C4    C6    S    
C25   H3    S    
C11   C14   A    
C5    C7    A    
C26   H8    S    
C36   N3    A    
C31   O8    S    
C6    C8    A    
Cu2   O12   S    
C2    N4    A    
C29   C34   S    
Cu1   Cu2   S    
C22   H24   S    
C30   O10   D    
C12   O11   A    
C3    O16   A    
C9    C11   A    
C13   C15   A    
C21   O2    D    
C14   C16   A    
C27   H9    S    
C18   O5    S    
C15   C17   A    
C6    C17   A    
C16   C22   S    
C2    H21   S    
C21   H23   S    
C7    H12   S    
C3    C5    S    
C10   C13   A    
C25   H4    S    
C28   H15   S    
C29   O9    D    
Cu2   O11   S    
C30   H17   S    
C36   H20   S    
C23   C32   A    
C20   O18   D    
Cu2   O15   S    
C28   H14   S    
C4    O17   A    
Cu1   O1    S    
C1    O1    A    
C34   C36   A    
C18   C33   A    
C1    C33   S    
N1    N2    D    
C15   C21   S    
C8    C10   A    
C35   N3    A    
Cu1   O17   S    
C27   O7    S    
C12   C32   S    
C27   H11   S    
