data_mof_unit_pretest_887.cif
_audit_creation_date              2012-12-10T17:18:55-0500
_audit_creation_method            fapswitch 2.2
_symmetry_space_group_name_H-M    P1
_symmetry_Int_Tables_number       1
_space_group_crystal_system       triclinic
_cell_length_a                    10.209633
_cell_length_b                    10.510323
_cell_length_c                    13.661062
_cell_angle_alpha                 92.506941
_cell_angle_beta                  100.28858
_cell_angle_gamma                 94.951431
_cell_volume                      1434.34869332

loop_
_atom_site_label
_atom_site_type_symbol
_atom_type_description
_atom_site_fract_x
_atom_site_fract_y
_atom_site_fract_z
_atom_type_partial_charge
C1    C     C_R   0.048659 0.733500 0.487417 0.930937
C2    C     C_2   0.966524 0.061123 0.415447 -0.022863
C3    C     C_2   0.430616 0.511824 0.508795 -0.133359
C4    C     C_2   0.569400 0.488150 0.491237 -0.118207
C5    C     C_R   0.093668 0.514080 0.685734 0.882182
C6    C     C_R   0.906620 0.487550 0.314196 0.865533
C7    C     C_R   0.146971 0.537415 0.791695 -0.059069
C8    C     C_R   0.859579 0.488459 0.207115 -0.060653
C9    C     C_R   0.146237 0.642762 0.952107 -0.203187
C10   C     C_R   0.883364 0.446532 0.036434 -0.201340
C11   C     C_R   0.080613 0.604230 0.855620 -0.199304
C12   C     C_R   0.945720 0.265354 0.500144 0.940301
C13   C     C_R   0.936442 0.450699 0.137880 -0.181800
C14   C     C_R   0.275713 0.506137 0.825253 -0.251875
C15   C     C_R   0.733957 0.528854 0.174692 -0.242927
C16   C     C_R   0.348954 0.556381 0.916673 0.092185
C17   C     C_R   0.680579 0.531220 0.073645 0.089718
C18   C     C_R   0.281509 0.621078 0.983490 0.111821
C19   C     C_R   0.753639 0.482740 0.003175 0.112082
C20   C     C_R   0.486767 0.540565 0.943188 0.053013
C21   C     C_R   0.551140 0.570387 0.042454 0.046814
C22   C     C_1   0.289210 0.730669 0.150375 0.157607
C23   C     C_R   0.483995 0.637660 0.107646 -0.266648
C24   C     C_1   0.759494 0.413924 0.827096 0.128196
C25   C     C_1   0.040954 0.119710 0.345196 0.236554
C26   C     C_1   0.828301 0.854487 0.374000 0.238316
C27   C     C_R   0.562272 0.497110 0.873033 -0.268649
C28   C     C_R   0.351431 0.663292 0.078983 -0.025481
C29   C     C_R   0.693596 0.468432 0.902063 -0.025012
C30   C     C_2   0.063497 0.866461 0.462097 -0.396686
C31   C     C_2   0.911110 0.128180 0.481627 -0.417308
C32   C     C_2   0.956722 0.923145 0.416660 -0.015393
H1    H     H_    0.675314 0.551722 0.230026 0.170338
H2    H     H_    0.160018 0.921386 0.486148 0.154347
H3    H     H_    0.578913 0.413249 0.436435 0.164526
H4    H     H_    0.421125 0.586716 0.563617 0.164258
H5    H     H_    0.664475 0.623912 0.590623 0.162854
H6    H     H_    0.335523 0.375981 0.409460 0.173190
H7    H     H_    0.317898 0.443128 0.777441 0.157523
H8    H     H_    0.035340 0.420673 0.162059 0.171695
H9    H     H_    0.979859 0.629152 0.830518 0.164692
H10   H     H_    0.091964 0.692960 0.000437 0.160111
H11   H     H_    0.943216 0.412352 0.984700 0.162860
H12   H     H_    0.534230 0.675504 0.180715 0.169987
H13   H     H_    0.522100 0.486983 0.794117 0.150249
H14   H     H_    0.847184 0.079634 0.526858 0.157131
N1    N     N_2   0.322180 0.446120 0.460900 -0.184307
N2    N     N_2   0.677820 0.553880 0.539100 -0.180947
N3    N     N_1   0.239433 0.784351 0.207561 -0.193055
N4    N     N_1   0.811414 0.369088 0.767142 -0.183514
N5    N     N_1   0.100217 0.166270 0.289074 -0.218858
N6    N     N_1   0.725667 0.800165 0.340064 -0.225704
O1    O     O_R   0.935190 0.693030 0.507870 -0.595153
O2    O     O_R   0.064810 0.306970 0.492130 -0.592626
O3    O     O_R   0.142080 0.658430 0.482770 -0.594872
O4    O     O_R   0.857920 0.341570 0.517230 -0.592459
O5    O     O_R   0.969700 0.527180 0.651960 -0.596880
O6    O     O_R   0.030300 0.472820 0.348040 -0.605491
O7    O     O_R   0.176600 0.492580 0.626860 -0.615730
O8    O     O_R   0.823400 0.507420 0.373140 -0.614572
Zn1   Zn    Zn3+2 0.861850 0.523100 0.516760 0.958608
Zn2   Zn    Zn3+2 0.138150 0.476900 0.483240 0.956302

loop_
_geom_bond_atom_site_label_1
_geom_bond_atom_site_label_2
_ccdc_geom_bond_type
O6    Zn2   S    
C7    C11   A    
C25   N5    T    
C26   C32   S    
C8    C13   A    
C20   C27   A    
C26   N6    T    
C27   C29   A    
C6    O6    A    
C5    O5    A    
C10   C19   A    
C16   C20   A    
C30   H2    S    
C27   H13   S    
N1    Zn2   S    
C1    O3    A    
C4    H3    S    
C10   C13   A    
C22   C28   S    
C23   C28   A    
H5    N2    S    
C30   C32   D    
C9    C11   A    
H6    N1    S    
C12   O4    A    
C3    H4    S    
C22   N3    T    
C9    H10   S    
C2    C32   S    
C3    N1    D    
C1    C30   S    
C17   C19   A    
C11   H9    S    
C2    C25   S    
C5    C7    S    
C21   C23   A    
C12   C31   S    
C24   N4    T    
C14   C16   A    
C5    O7    A    
C3    C4    S    
C19   C29   A    
O3    Zn2   S    
C6    O8    A    
C9    C18   A    
C18   C28   A    
C20   C21   A    
C16   C18   A    
C4    N2    D    
N2    Zn1   S    
O5    Zn1   S    
C15   C17   A    
C1    O1    A    
C24   C29   S    
C2    C31   D    
C13   H8    S    
C6    C8    S    
C8    C15   A    
O2    Zn2   S    
C14   H7    S    
O4    Zn1   S    
O1    Zn1   S    
C15   H1    S    
C7    C14   A    
C12   O2    A    
C23   H12   S    
C10   H11   S    
O8    Zn1   S    
O7    Zn2   S    
C31   H14   S    
C17   C21   A    
