data_mof_unit_pretest_276.cif
_audit_creation_date              2012-12-10T18:33:30-0500
_audit_creation_method            fapswitch 2.2
_symmetry_space_group_name_H-M    P1
_symmetry_Int_Tables_number       1
_space_group_crystal_system       triclinic
_cell_length_a                    8.728618
_cell_length_b                    15.114995
_cell_length_c                    13.86092
_cell_angle_alpha                 89.780087
_cell_angle_beta                  97.961065
_cell_angle_gamma                 90.189274
_cell_volume                      1811.0681878

loop_
_atom_site_label
_atom_site_type_symbol
_atom_type_description
_atom_site_fract_x
_atom_site_fract_y
_atom_site_fract_z
_atom_type_partial_charge
C1    C     C_R   0.499113 0.329918 0.500138 0.794073
C2    C     C_R   0.499169 0.670146 0.499720 0.793824
C3    C     C_R   0.618484 0.541817 0.118040 -0.286406
C4    C     C_R   0.429037 0.431347 0.886171 -0.284558
C5    C     C_R   0.615678 0.541652 0.219269 0.076096
C6    C     C_R   0.429408 0.432999 0.784712 0.080657
C7    C     C_R   0.384283 0.458357 0.199512 0.081807
C8    C     C_R   0.570502 0.566937 0.796533 0.085637
C9    C     C_R   0.381426 0.458075 0.097780 -0.284681
C10   C     C_R   0.570735 0.568545 0.898016 -0.283981
C11   C     C_R   0.499934 0.499927 0.054682 0.132549
C12   C     C_R   0.499886 0.499933 0.945320 0.131867
C13   C     C_R   0.203659 0.499965 0.475083 0.887308
C14   C     C_R   0.796339 0.500023 0.524909 0.885844
C15   C     C_2   0.037844 0.499996 0.461314 -0.375970
C16   C     C_2   0.962152 0.499974 0.538650 -0.368749
C17   C     C_R   0.412482 0.096473 0.570791 0.019097
C18   C     C_R   0.422455 0.903664 0.411271 0.015688
C19   C     C_R   0.422983 0.188839 0.571134 -0.230363
C20   C     C_R   0.432538 0.811321 0.413211 -0.231226
C21   C     C_R   0.494036 0.233549 0.500474 -0.040257
C22   C     C_R   0.494067 0.766628 0.498491 -0.040814
C23   C     C_R   0.558524 0.186019 0.429882 -0.192033
C24   C     C_R   0.548995 0.814329 0.582426 -0.195470
C25   C     C_R   0.553333 0.094315 0.430279 -0.155917
C26   C     C_R   0.543528 0.906024 0.581078 -0.156396
C27   C     C_R   0.478690 0.048757 0.498986 0.044063
C28   C     C_R   0.478620 0.951463 0.496839 0.045604
Cu1   Cu    Cu3+1 0.500000 0.499990 0.596430 0.936833
Cu2   Cu    Cu3+1 0.500000 0.500010 0.403570 0.933298
H1    H     H_    0.977834 0.500060 0.387136 0.168277
H2    H     H_    0.022175 0.499902 0.612822 0.176571
H3    H     H_    0.371462 0.226161 0.625008 0.141194
H4    H     H_    0.388402 0.774038 0.348564 0.154367
H5    H     H_    0.615386 0.219768 0.375502 0.149030
H6    H     H_    0.598507 0.780772 0.648610 0.138978
H7    H     H_    0.608106 0.058583 0.376751 0.141298
H8    H     H_    0.590774 0.941853 0.646053 0.141078
H9    H     H_    0.714587 0.573728 0.090299 0.127258
H10   H     H_    0.375089 0.375761 0.917646 0.126376
H11   H     H_    0.707131 0.574797 0.266330 0.120005
H12   H     H_    0.373291 0.380075 0.740770 0.115910
H13   H     H_    0.292851 0.425287 0.230995 0.121415
H14   H     H_    0.626692 0.619880 0.762028 0.114848
H15   H     H_    0.285327 0.426120 0.053582 0.127399
H16   H     H_    0.624622 0.624126 0.938473 0.125657
N1    N     N_R   0.500000 0.500020 0.258690 -0.172603
N2    N     N_R   0.500000 0.499980 0.741310 -0.171602
O1    O     O_R   0.500010 0.371450 0.581430 -0.595399
O2    O     O_R   0.499990 0.628550 0.418570 -0.587636
O3    O     O_R   0.500010 0.371460 0.418560 -0.585158
O4    O     O_R   0.499990 0.628540 0.581440 -0.594277
O5    O     O_R   0.274840 0.499990 0.562640 -0.576842
O6    O     O_R   0.725160 0.500010 0.437360 -0.587360
O7    O     O_R   0.274840 0.500000 0.399770 -0.598814
O8    O     O_R   0.725160 0.500000 0.600230 -0.586698
C29   C     C_R   0.331547 0.052611 0.645734 0.094147
C30   C     C_R   0.209997 0.992364 0.619058 -0.121116
C31   C     C_R   0.134807 0.951770 0.690321 -0.126815
C32   C     C_R   0.179615 0.971118 0.788683 -0.115398
C33   C     C_R   0.299502 0.031265 0.815968 -0.140044
C34   C     C_R   0.375000 0.072043 0.744950 -0.169004
H17   H     H_    0.172906 0.976845 0.543376 0.115459
H18   H     H_    0.041522 0.905389 0.669229 0.125334
H19   H     H_    0.121309 0.939616 0.843752 0.119130
H20   H     H_    0.334061 0.046247 0.892202 0.119360
H21   H     H_    0.468332 0.118130 0.767365 0.125690
C35   C     C_R   0.353185 0.947422 0.319209 0.093652
C36   C     C_R   0.231200 0.008174 0.318140 -0.123624
C37   C     C_R   0.167651 0.048939 0.231064 -0.130543
C38   C     C_R   0.224385 0.029143 0.144240 -0.118216
C39   C     C_R   0.344714 0.968447 0.144313 -0.137156
C40   C     C_R   0.408785 0.927611 0.231239 -0.164164
H22   H     H_    0.184961 0.024066 0.384341 0.115176
H23   H     H_    0.074142 0.095815 0.230898 0.122970
H24   H     H_    0.175006 0.060728 0.076886 0.116697
H25   H     H_    0.388535 0.953121 0.076993 0.121911
H26   H     H_    0.502816 0.881207 0.230133 0.125858

loop_
_geom_bond_atom_site_label_1
_geom_bond_atom_site_label_2
_ccdc_geom_bond_type
C14   O8    A    
Cu2   O3    S    
C9    H15   S    
C29   C34   A    
Cu1   O1    S    
C1    C21   S    
C5    N1    A    
C31   H18   S    
C24   H6    S    
C6    N2    A    
C34   H21   S    
C19   C21   A    
C24   C26   A    
C38   H24   S    
C18   C35   S    
C15   C16   D    
C2    O2    A    
C39   H25   S    
C25   H7    S    
C33   H20   S    
C4    H10   S    
C35   C36   A    
C2    C22   S    
C40   H26   S    
C37   C38   A    
C14   C16   S    
C7    H13   S    
C4    C12   A    
C20   H4    S    
Cu2   O2    S    
C3    H9    S    
C31   C32   A    
C36   C37   A    
C10   C12   A    
C13   O5    A    
Cu1   N2    S    
C17   C27   A    
Cu2   N1    S    
C18   C28   A    
C4    C6    A    
C19   H3    S    
C26   H8    S    
C30   C31   A    
C32   C33   A    
C7    N1    A    
C8    N2    A    
C10   H16   S    
Cu1   Cu2   S    
Cu2   O6    S    
C36   H22   S    
C9    C11   A    
C2    O4    A    
C14   O6    A    
C20   C22   A    
C32   H19   S    
C23   H5    S    
C21   C23   A    
C22   C24   A    
C16   H2    S    
C37   H23   S    
C30   H17   S    
C7    C9    A    
C5    H11   S    
C8    H14   S    
C39   C40   A    
C3    C5    A    
C11   C12   S    
C15   H1    S    
Cu1   O8    S    
C25   C27   A    
Cu2   O7    S    
C26   C28   A    
C1    O3    A    
C13   C15   S    
C35   C40   A    
C38   C39   A    
C29   C30   A    
Cu1   O5    S    
C17   C19   A    
C18   C20   A    
C23   C25   A    
C33   C34   A    
C3    C11   A    
C8    C10   A    
C6    H12   S    
C27   C28   S    
C1    O1    A    
C17   C29   S    
C13   O7    A    
Cu1   O4    S    
