data_mof_unit_pretest_539.cif
_audit_creation_date              2013-03-05T15:55:16-0500
_audit_creation_method            fapswitch 2.2
_symmetry_space_group_name_H-M    P1
_symmetry_Int_Tables_number       1
_space_group_crystal_system       triclinic
_cell_length_a                    27.734249
_cell_length_b                    10.669589
_cell_length_c                    9.871761
_cell_angle_alpha                 90.496851
_cell_angle_beta                  90.109285
_cell_angle_gamma                 91.440657
_cell_volume                      2920.14300701

loop_
_atom_site_label
_atom_site_type_symbol
_atom_site_description
_atom_site_fract_x
_atom_site_fract_y
_atom_site_fract_z
_atom_type_partial_charge
O1    O     O_R   0.500000 0.316780 0.614690 -0.612219
O2    O     O_R   0.500000 0.316750 0.385360 -0.650398
C1    C     C_R   0.506253 0.261555 0.500085 0.914762
O3    O     O_R   0.428760 0.500030 0.614650 -0.649502
O4    O     O_R   0.428750 0.500010 0.385320 -0.640842
C2    C     C_R   0.406046 0.499117 0.499863 0.852706
Zn1   Zn    Zn3+2 0.500000 0.500020 0.653130 0.967426
Zn2   Zn    Zn3+2 0.500000 0.499980 0.346870 0.943140
O5    O     O_R   0.500000 0.683250 0.614640 -0.631472
O6    O     O_R   0.500000 0.683220 0.385310 -0.621046
O7    O     O_R   0.571250 0.499990 0.614680 -0.580690
O8    O     O_R   0.571240 0.499970 0.385350 -0.623886
C3    C     C_R   0.496662 0.740417 0.501295 0.886859
C4    C     C_R   0.593964 0.500169 0.500145 0.911627
C5    C     C_R   0.176541 0.380843 0.518416 0.503764
O9    O     O_2   0.200449 0.273604 0.536651 -0.553871
N1    N     N_R   0.201616 0.490862 0.498733 -0.358588
C6    C     C_R   0.178914 0.601337 0.479396 0.504976
C7    C     C_R   0.277933 0.500468 0.376478 -0.102498
C8    C     C_R   0.328027 0.502895 0.376593 -0.218410
C9    C     C_R   0.327965 0.485673 0.622020 -0.223918
C10   C     C_R   0.277866 0.482857 0.621449 -0.101625
C11   C     C_R   0.252934 0.490705 0.498822 0.323240
C12   C     C_R   0.101711 0.491880 0.499570 -0.051704
C13   C     C_R   0.126089 0.379171 0.518917 -0.020739
C14   C     C_R   0.099790 0.267787 0.539073 -0.137115
C15   C     C_R   0.128535 0.604027 0.479683 -0.022092
C16   C     C_R   0.353375 0.496127 0.499522 -0.036577
H1    H     H_    0.346697 0.479653 0.718036 0.163908
H2    H     H_    0.258343 0.475456 0.716061 0.138909
H3    H     H_    0.117763 0.180312 0.556282 0.190249
C17   C     C_R   0.646631 0.499214 0.500527 -0.047336
C18   C     C_R   0.973090 0.377783 0.508568 0.046272
C19   C     C_R   0.975716 0.609027 0.493517 0.046884
C20   C     C_R   0.949179 0.493722 0.501248 0.071279
C21   C     C_R   0.944910 0.265341 0.507832 -0.213279
C22   C     C_R   0.894950 0.267074 0.506152 -0.131013
C23   C     C_R   0.871187 0.380701 0.504405 -0.026128
C24   C     C_R   0.898106 0.494378 0.501594 -0.051110
C25   C     C_R   0.873821 0.608725 0.499052 -0.022161
C26   C     C_R   0.823390 0.607200 0.499282 0.506398
N2    N     N_R   0.798244 0.495690 0.501680 -0.360252
C27   C     C_R   0.820793 0.383548 0.504255 0.511597
C28   C     C_R   0.721952 0.490232 0.623724 -0.100749
C29   C     C_R   0.671889 0.491809 0.623581 -0.153932
C30   C     C_R   0.672132 0.505292 0.377858 -0.206223
C31   C     C_R   0.722205 0.504073 0.378462 -0.095178
C32   C     C_R   0.746982 0.496452 0.501278 0.317418
O10   O     O_2   0.794434 0.275479 0.506434 -0.533532
C33   C     C_R   0.024130 0.377814 0.515227 0.046837
C34   C     C_R   0.050636 0.492471 0.500151 0.070836
C35   C     C_R   0.026692 0.607732 0.485653 0.046445
C36   C     C_R   0.049798 0.266875 0.537596 -0.215074
H4    H     H_    0.653064 0.486980 0.719485 0.189690
H5    H     H_    0.741371 0.484459 0.718652 0.141324
H6    H     H_    0.874992 0.178442 0.506001 0.192947
H7    H     H_    0.960260 0.173668 0.505520 0.138519
H8    H     H_    0.032411 0.177576 0.557383 0.139787
O11   O     O_2   0.205123 0.708142 0.460886 -0.551571
C37   C     C_R   0.104697 0.715959 0.459919 -0.135285
H9    H     H_    0.346806 0.510593 0.280802 0.166377
H10   H     H_    0.258461 0.506442 0.281655 0.138852
H11   H     H_    0.124573 0.802997 0.442210 0.192148
C38   C     C_R   0.950155 0.722166 0.495023 -0.214208
C39   C     C_R   0.900188 0.721716 0.497319 -0.133467
O12   O     O_2   0.799550 0.715944 0.497213 -0.542923
C40   C     C_R   0.054765 0.718014 0.462471 -0.215054
H12   H     H_    0.967628 0.813416 0.497428 0.138065
H13   H     H_    0.653492 0.511226 0.281705 0.168566
H14   H     H_    0.882289 0.810840 0.497850 0.190587
H15   H     H_    0.741825 0.508990 0.283837 0.140066
H16   H     H_    0.039330 0.807649 0.442819 0.140505
H17   H     H_    0.506696 0.111095 0.282786 0.173340
C41   C     C_R   0.537795 0.117812 0.747214 0.414726
C42   C     C_R   0.526544 0.063599 0.871874 -0.162542
H18   H     H_    0.540439 0.104912 0.965094 0.170587
C43   C     C_R   0.497519 0.955617 0.876655 -0.235771
H19   H     H_    0.487177 0.916299 0.973404 0.156656
C44   C     C_R   0.484159 0.894143 0.756646 -0.161765
H20   H     H_    0.461496 0.810739 0.765163 0.174966
C45   C     C_R   0.498620 0.942873 0.629474 0.051955
C46   C     C_R   0.518046 0.064895 0.625768 0.010629
C47   C     C_R   0.514616 0.129180 0.501366 -0.082962
C48   C     C_R   0.507603 0.063909 0.379531 -0.211756
H21   H     H_    0.496568 0.887665 0.285085 0.167238
C49   C     C_R   0.499775 0.936945 0.381271 -0.205870
C50   C     C_R   0.495263 0.875217 0.505108 -0.102311
H22   H     H_    0.553026 0.643249 0.127331 0.150013
C51   C     C_R   0.437844 0.333422 0.138838 -0.175824
H23   H     H_    0.435225 0.328969 0.246114 0.209593
C52   C     C_R   0.407561 0.250448 0.067613 -0.199412
H24   H     H_    0.383795 0.186318 0.121678 0.161672
C53   C     C_R   0.407451 0.250514 0.927469 -0.189931
H25   H     H_    0.383604 0.186428 0.872163 0.161971
C54   C     C_R   0.437622 0.333543 0.857837 -0.160612
H26   H     H_    0.434699 0.329142 0.750537 0.203179
C55   C     C_R   0.469349 0.417722 0.926704 0.181420
C56   C     C_R   0.469403 0.417711 0.071556 0.164206
N3    N     N_R   0.499540 0.498800 0.142780 -0.122250
C57   C     C_R   0.529207 0.578882 0.072513 -0.120923
H27   H     H_    0.552976 0.643223 0.875638 0.153884
C58   C     C_R   0.529196 0.578840 0.929118 -0.096670
N4    N     N_R   0.499520 0.498720 0.857170 -0.113403
Cl1   Cl    Cl    0.583540 0.235646 0.746552 -0.621332

loop_
_geom_bond_atom_site_label_1
_geom_bond_atom_site_label_2
_geom_bond_distance
_ccdc_geom_bond_type
C53   H25   1.082790 S    
C26   N2    1.364294 A    
C20   C24   1.416675 A    
C54   H26   1.062723 S    
C12   C15   1.408406 A    
C55   C56   1.429945 A    
C43   H19   1.082766 S    
Zn1   O7    2.012908 S    
N1    C11   1.423308 S    
C37   H11   1.083637 S    
C38   H12   1.076622 S    
C21   C22   1.386261 A    
Zn2   N3    2.014672 S    
C48   C49   1.366801 A    
C40   H16   1.076578 S    
C15   C37   1.394517 A    
C23   C24   1.408681 A    
O7    C4    1.295361 A    
C5    C13   1.398929 A    
C7    H10   1.082954 S    
C39   H14   1.083670 S    
C18   C21   1.415237 A    
C5    N1    1.364835 A    
C19   C20   1.420340 A    
C17   C29   1.404915 A    
C8    H9    1.083184 S    
O5    C3    1.283302 A    
C30   H13   1.083075 S    
C22   H6    1.083652 S    
C2    C16   1.460334 S    
C31   C32   1.396467 A    
C37   C40   1.385830 A    
C51   C52   1.390356 A    
H17   C48   1.084021 S    
C12   C34   1.416727 A    
C14   H3    1.083632 S    
C53   C54   1.390318 A    
Zn1   N4    2.014468 S    
C9    C10   1.389049 A    
C41   C46   1.423493 A    
O3    Zn1   2.011267 S    
C57   C58   1.415558 A    
C45   C46   1.397226 A    
C43   C44   1.394155 A    
C33   C36   1.415251 A    
C41   C42   1.396820 A    
C34   C35   1.420414 A    
H27   C58   1.081850 S    
C12   C13   1.408595 A    
O3    C2    1.295280 A    
C21   H7    1.076594 S    
C52   H24   1.082807 S    
C44   C45   1.417749 A    
C49   C50   1.397963 A    
C27   O10   1.350020 S    
N2    C32   1.421928 S    
C8    C16   1.404594 A    
C33   C34   1.420383 A    
C18   C33   1.416932 A    
H21   C49   1.083816 S    
C9    H1    1.083172 S    
O1    C1    1.285130 A    
C7    C11   1.397126 A    
C42   H18   1.082932 S    
C22   C23   1.394602 A    
C52   C53   1.383479 A    
C47   C48   1.395392 A    
Zn2   O8    2.011264 S    
C3    C50   1.439922 S    
C19   C38   1.415182 A    
N1    C6    1.364932 A    
C55   N4    1.376354 A    
C42   C43   1.389982 A    
C31   H15   1.082938 S    
H22   C57   1.081779 S    
C35   C40   1.415053 A    
C25   C26   1.398369 A    
C9    C16   1.404652 A    
O8    C4    1.295603 A    
C29   H4    1.083023 S    
C56   N3    1.375621 A    
C25   C39   1.394463 A    
C1    C47   1.437209 S    
N2    C27   1.364367 A    
C14   C36   1.386325 A    
C24   C25   1.408729 A    
C28   C29   1.388997 A    
C41   Cl1   1.763586 S    
Zn1   O5    1.994803 S    
C30   C31   1.389130 A    
C10   H2    1.082950 S    
O1    Zn1   1.988349 S    
C17   C30   1.404680 A    
O2    Zn2   1.994801 S    
C6    C15   1.398239 A    
C4    C17   1.460964 S    
O6    C3    1.297344 A    
O4    Zn2   2.012910 S    
C36   H8    1.076560 S    
C54   C55   1.410854 A    
C26   O12   1.350076 S    
C19   C35   1.416472 A    
N3    C57   1.365777 A    
C51   C56   1.410332 A    
C38   C39   1.385925 A    
C7    C8    1.388894 A    
O2    C1    1.294403 A    
C13   C14   1.394633 A    
C23   C27   1.398712 A    
C45   C50   1.420511 A    
C28   H5    1.082935 S    
O4    C2    1.295282 A    
C18   C20   1.420507 A    
C58   N4    1.365464 A    
C44   H20   1.080447 S    
C28   C32   1.396302 A    
C6    O11   1.350137 S    
Zn2   O6    1.988348 S    
C46   C47   1.416014 A    
C10   C11   1.397142 A    
C51   H23   1.063025 S    
C5    O9    1.350000 S    
