data_mof_unit_pretest_1451.cif
_audit_creation_date              2013-03-05T15:45:36-0500
_audit_creation_method            fapswitch 2.2
_symmetry_space_group_name_H-M    P1
_symmetry_Int_Tables_number       1
_space_group_crystal_system       triclinic
_cell_length_a                    27.369853
_cell_length_b                    10.708614
_cell_length_c                    9.998972
_cell_angle_alpha                 89.564581
_cell_angle_beta                  90.621765
_cell_angle_gamma                 90.35088
_cell_volume                      2930.31994385

loop_
_atom_site_label
_atom_site_type_symbol
_atom_site_description
_atom_site_fract_x
_atom_site_fract_y
_atom_site_fract_z
_atom_type_partial_charge
O1    O     O_R   0.499990 0.319060 0.613040 -0.637649
O2    O     O_R   0.500010 0.319100 0.386900 -0.627958
C1    C     C_R   0.497794 0.261974 0.500549 0.821295
O3    O     O_R   0.428750 0.500000 0.613050 -0.596925
O4    O     O_R   0.428760 0.500040 0.386920 -0.616354
C2    C     C_R   0.406021 0.501408 0.499260 1.033583
Zn1   Zn    Zn3+2 0.499990 0.499970 0.650990 0.954529
Zn2   Zn    Zn3+2 0.500010 0.500030 0.349010 0.948675
O5    O     O_R   0.499990 0.680900 0.613100 -0.620173
O6    O     O_R   0.500010 0.680940 0.386960 -0.627286
O7    O     O_R   0.571240 0.499960 0.613080 -0.614157
O8    O     O_R   0.571250 0.500000 0.386950 -0.610198
C3    C     C_R   0.502791 0.737164 0.499447 0.957350
C4    C     C_R   0.594212 0.502433 0.500893 0.883748
C5    C     C_R   0.182955 0.610715 0.634662 0.524708
O9    O     O_2   0.209568 0.583727 0.745528 -0.553847
N1    N     N_R   0.205502 0.624277 0.514135 -0.331191
C6    C     C_R   0.180146 0.657544 0.401002 0.550223
C7    C     C_R   0.290663 0.684397 0.478082 -0.192510
C8    C     C_R   0.339936 0.653056 0.471097 0.376421
C9    C     C_R   0.319894 0.435062 0.525804 0.389910
C10   C     C_R   0.270050 0.467949 0.525166 -0.244035
C11   C     C_R   0.255911 0.592181 0.504706 0.208240
C12   C     C_R   0.104955 0.650283 0.526312 -0.057625
C13   C     C_R   0.132224 0.621781 0.642812 -0.025189
C14   C     C_R   0.108244 0.600194 0.763462 -0.122502
C15   C     C_R   0.129294 0.671749 0.405107 -0.099264
C16   C     C_R   0.354265 0.529217 0.497410 -0.229218
H1    H     H_    0.241646 0.399034 0.541474 0.138725
H2    H     H_    0.128471 0.581922 0.855215 0.203304
C17   C     C_R   0.647011 0.521528 0.504518 -0.108007
C18   C     C_R   0.978342 0.594918 0.646194 -0.019101
C19   C     C_R   0.974550 0.695021 0.424626 0.076665
C20   C     C_R   0.950905 0.638115 0.535026 0.078794
C21   C     C_R   0.954051 0.529738 0.749014 -0.230246
C22   C     C_R   0.903923 0.507829 0.743801 0.448832
C23   C     C_R   0.875865 0.554071 0.634712 -0.153639
C24   C     C_R   0.899475 0.624019 0.533397 -0.109167
C25   C     C_R   0.871835 0.679114 0.429082 0.003038
C26   C     C_R   0.821265 0.661116 0.425150 0.504953
N2    N     N_R   0.799274 0.587103 0.518845 -0.353268
C27   C     C_R   0.825219 0.532398 0.621097 0.627295
C28   C     C_R   0.726476 0.504828 0.403299 -0.144924
C29   C     C_R   0.676268 0.482929 0.398636 -0.218875
C30   C     C_R   0.668073 0.584994 0.613184 -0.301691
C31   C     C_R   0.717888 0.611509 0.615706 0.537392
C32   C     C_R   0.747477 0.568243 0.512037 0.171925
O10   O     O_2   0.801771 0.455926 0.707099 -0.456790
C33   C     C_R   0.029413 0.615275 0.649386 0.083289
C34   C     C_R   0.053347 0.652358 0.530181 0.036197
C35   C     C_R   0.026035 0.685632 0.413704 -0.051101
C36   C     C_R   0.057632 0.596069 0.766695 -0.176742
H3    H     H_    0.660430 0.434478 0.313760 0.174664
H4    H     H_    0.749167 0.471949 0.322975 0.187675
H5    H     H_    0.973669 0.489222 0.832662 0.190720
H6    H     H_    0.041397 0.578529 0.862845 0.199730
O11   O     O_2   0.203883 0.672824 0.284330 -0.557640
C37   C     C_R   0.102268 0.696840 0.288819 -0.162659
H7    H     H_    0.279457 0.780503 0.464293 0.167872
H8    H     H_    0.120536 0.706879 0.193662 0.220292
C38   C     C_R   0.945782 0.762140 0.331722 -0.126445
C39   C     C_R   0.895163 0.752995 0.332712 -0.114481
O12   O     O_2   0.794165 0.716843 0.328439 -0.558829
C40   C     C_R   0.051409 0.700750 0.290691 0.354907
H9    H     H_    0.961890 0.825521 0.260070 0.202499
H10   H     H_    0.645780 0.617078 0.694842 0.171519
H11   H     H_    0.874465 0.802875 0.256597 0.198605
C41   C     C_2   0.506803 0.934166 0.386311 -0.139346
C42   C     C_2   0.512434 0.867402 0.498107 -0.241879
H12   H     H_    0.498896 0.891848 0.289983 0.160119
H13   H     H_    0.524259 0.909867 0.591281 0.155061
C43   C     C_2   0.510191 0.068031 0.394375 -0.280962
C44   C     C_2   0.491819 0.128369 0.499561 0.324659
H14   H     H_    0.529262 0.116522 0.314332 0.146462
C45   C     C_2   0.524984 0.579451 0.924937 -0.117275
N3    N     N_2   0.500520 0.501330 0.852150 -0.193840
H15   H     H_    0.548199 0.647442 0.875200 0.153113
H16   H     H_    0.476254 0.441744 0.897658 0.158719
C46   C     C_2   0.522406 0.584309 0.075023 -0.131846
N4    N     N_2   0.500540 0.501360 0.147810 -0.194450
H17   H     H_    0.540861 0.661245 0.124726 0.159061
H18   H     H_    0.485569 0.424393 0.102260 0.163734
O13   O     O_3   0.337158 0.313817 0.546434 -0.614901
C47   C     C_3   0.304819 0.236837 0.619747 0.098550
H19   H     H_    0.274885 0.202669 0.553132 0.151130
H20   H     H_    0.289482 0.286609 0.707227 0.160707
C48   C     C_3   0.332530 0.124186 0.673202 -0.769504
H21   H     H_    0.360990 0.155362 0.745640 0.249285
H22   H     H_    0.307011 0.059399 0.724923 0.207909
H23   H     H_    0.350134 0.073968 0.589973 0.287963
O14   O     O_3   0.738169 0.673470 0.723683 -0.578291
C49   C     C_3   0.737736 0.802788 0.695710 0.040190
H24   H     H_    0.699500 0.837565 0.688958 0.138084
H25   H     H_    0.756997 0.824879 0.600640 0.158981
C50   C     C_3   0.764036 0.871319 0.808270 -0.702839
H26   H     H_    0.802513 0.839386 0.816026 0.263675
H27   H     H_    0.763779 0.973383 0.787809 0.213698
H28   H     H_    0.745465 0.852703 0.904678 0.263915
Cl1   Cl    Cl    0.023096 0.696625 0.131040 -0.655449
O15   O     O_3   0.459437 0.067540 0.585955 -0.600572
C51   C     C_3   0.470703 0.091044 0.721892 0.107793
H29   H     H_    0.451753 0.176900 0.754448 0.176358
H30   H     H_    0.510801 0.100780 0.740719 0.127233
C52   C     C_3   0.452160 0.982778 0.807485 -0.838506
H31   H     H_    0.471949 0.895800 0.783388 0.261129
H32   H     H_    0.458210 0.003940 0.914975 0.200307
H33   H     H_    0.412510 0.967380 0.789376 0.274794
Cl2   Cl    Cl    0.879337 0.424870 0.881145 -0.497153
O16   O     O_3   0.374908 0.745400 0.452390 -0.604224
C53   C     C_3   0.373015 0.791364 0.319221 0.108888
H34   H     H_    0.342641 0.752582 0.256182 0.144136
H35   H     H_    0.407747 0.766824 0.269622 0.171987
C54   C     C_3   0.368627 0.932926 0.320700 -0.799201
H36   H     H_    0.399058 0.974356 0.380027 0.297573
H37   H     H_    0.370132 0.970266 0.216909 0.208891
H38   H     H_    0.333347 0.959960 0.365609 0.248245

loop_
_geom_bond_atom_site_label_1
_geom_bond_atom_site_label_2
_geom_bond_distance
_ccdc_geom_bond_type
C44   O15   1.398957 S    
C48   H21   1.109542 S    
C51   H29   1.111001 S    
C10   H1    1.081414 S    
C22   Cl2   1.766969 S    
N2    C27   1.368566 A    
C50   H26   1.110968 S    
C12   C15   1.405970 A    
C4    C17   1.458352 S    
C28   C29   1.392987 A    
C52   H32   1.110562 S    
C50   H28   1.110774 S    
C30   C31   1.390968 A    
Zn1   O7    1.990636 S    
N1    C11   1.428172 S    
C26   O12   1.349993 S    
C39   H11   1.083346 S    
C22   C23   1.415289 A    
C47   H20   1.115000 S    
O4    C2    1.290285 A    
O7    C4    1.291902 A    
C5    C13   1.397590 A    
C37   H8    1.083959 S    
C5    O9    1.350234 S    
C5    N1    1.366262 A    
C23   C27   1.409379 A    
C42   H13   1.085161 S    
O5    C3    1.285004 A    
C53   H34   1.117711 S    
C49   H24   1.114132 S    
C6    O11   1.349828 S    
C29   H3    1.083191 S    
C40   Cl1   1.767652 S    
C2    C16   1.449190 S    
C7    C8    1.394358 A    
C41   C42   1.330394 D    
C47   C48   1.519470 S    
C28   C32   1.402346 A    
C41   C43   1.438755 S    
C54   H38   1.110250 S    
C51   H30   1.115864 S    
O1    Zn1   1.976937 S    
C9    C10   1.410980 A    
C37   C40   1.393231 A    
O3    Zn1   1.982346 S    
C52   H31   1.109675 S    
C34   C35   1.421355 A    
C12   C34   1.413763 A    
C17   C29   1.400724 A    
C6    C15   1.402110 A    
C21   H5    1.078744 S    
C18   C21   1.408682 A    
C9    O13   1.397454 S    
C12   C13   1.409128 A    
C43   H14   1.087225 S    
O14   C49   1.410786 S    
C46   H17   1.084710 S    
C31   O14   1.381099 S    
C8    C16   1.407309 A    
C7    H7    1.083070 S    
C13   C14   1.396654 A    
O6    C3    1.281115 A    
C49   C50   1.520506 S    
C46   N4    1.292280 D    
O1    C1    1.284915 A    
C21   C22   1.390972 A    
C18   C20   1.411309 A    
C7    C11   1.393094 A    
C45   N3    1.292167 D    
C23   C24   1.414794 A    
C14   C36   1.386386 A    
C28   H4    1.082841 S    
O13   C47   1.412902 S    
Zn2   O8    1.982349 S    
C33   C36   1.411851 A    
C49   H25   1.115100 S    
N1    C6    1.366776 A    
N2    C32   1.431728 S    
C27   O10   1.347881 S    
C47   H19   1.112181 S    
C45   H15   1.084832 S    
C53   C54   1.521613 S    
N4    H18   1.025758 S    
C26   N2    1.365007 A    
C9    C16   1.404281 A    
O8    C4    1.295534 A    
C14   H2    1.083541 S    
C51   C52   1.523602 S    
C48   H22   1.110446 S    
O3    C2    1.290837 A    
C25   C26   1.396458 A    
C54   H36   1.109600 S    
Zn1   O5    1.971376 S    
C25   C39   1.399174 A    
C31   C32   1.405400 A    
C20   C24   1.414719 A    
O2    Zn2   1.971377 S    
C35   C40   1.426733 A    
N3    H16   1.025796 S    
C43   C44   1.342507 D    
C15   C37   1.396551 A    
O4    Zn2   1.990633 S    
C50   H27   1.110472 S    
Zn1   N3    2.011451 S    
C19   C35   1.418782 A    
O2    C1    1.288300 A    
O16   C53   1.416631 S    
C24   C25   1.409711 A    
C3    C42   1.417826 S    
C19   C38   1.407267 A    
O15   C51   1.414597 S    
C19   C20   1.417460 A    
C38   C39   1.388439 A    
C1    C44   1.439142 S    
C53   H35   1.110840 S    
C18   C33   1.413447 A    
C8    O16   1.385096 S    
C38   H9    1.078946 S    
Zn2   O6    1.976936 S    
C33   C34   1.419183 A    
C17   C30   1.402725 A    
C48   H23   1.110219 S    
C30   H10   1.083803 S    
Zn2   N4    2.011945 S    
C41   H12   1.086655 S    
C10   C11   1.400678 A    
C45   C46   1.504435 S    
C52   H33   1.109784 S    
C36   H6    1.078197 S    
C54   H37   1.110420 S    
