data_mof_unit_pretest_315.cif
_audit_creation_date              2012-10-26T18:50:05-0400
_audit_creation_method            fapswitch 2.2
_symmetry_space_group_name_H-M    P1
_symmetry_Int_Tables_number       1
_space_group_crystal_system       triclinic
_cell_length_a                    10.85013
_cell_length_b                    13.067314
_cell_length_c                    11.69127
_cell_angle_alpha                 101.140048
_cell_angle_beta                  93.244856
_cell_angle_gamma                 92.010425
_cell_volume                      1621.97918846

loop_
_atom_site_label
_atom_site_type_symbol
_atom_type_description
_atom_site_fract_x
_atom_site_fract_y
_atom_site_fract_z
_atom_type_partial_charge
C1    C     C_R   0.500415 0.298645 0.477435 0.593052
C2    C     C_R   0.466433 0.857779 0.434733 0.289783
C3    C     C_R   0.491911 0.032105 0.554025 -0.065619
C4    C     C_R   0.477995 0.966349 0.440987 -0.073339
C5    C     C_R   0.365270 0.420334 0.020278 -0.151023
C6    C     C_R   0.634519 0.580243 0.979705 -0.150395
C7    C     C_R   0.381352 0.419928 0.140755 0.178586
C8    C     C_R   0.618002 0.580779 0.859293 0.177683
C9    C     C_R   0.560031 0.533673 0.156880 0.055272
C10   C     C_R   0.440273 0.466086 0.843092 0.052070
C11   C     C_R   0.549529 0.528285 0.034349 -0.008212
C12   C     C_R   0.497095 0.701146 0.522304 0.591170
C13   C     C_R   0.450748 0.471674 0.965627 -0.008980
C14   C     C_R   0.262990 0.511646 0.503258 0.528407
C15   C     C_R   0.737169 0.488794 0.496832 0.529486
C16   C     C_R   0.125165 0.523716 0.723239 -0.093110
C17   C     C_R   0.875389 0.478919 0.277307 -0.092570
C18   C     C_R   0.069956 0.487265 0.813445 -0.143972
C19   C     C_R   0.930626 0.516068 0.187535 -0.142865
C20   C     C_R   0.955981 0.433250 0.791973 -0.129204
C21   C     C_R   0.044600 0.570070 0.209397 -0.129658
C22   C     C_R   0.892453 0.424005 0.683319 -0.086655
C23   C     C_R   0.488043 0.814923 0.534896 0.019206
C24   C     C_R   0.108148 0.578541 0.317921 -0.089528
C25   C     C_R   0.942882 0.468556 0.593874 0.000426
C26   C     C_R   0.057553 0.533457 0.406868 0.000064
C27   C     C_R   0.067350 0.505686 0.608664 0.014209
C28   C     C_R   0.933069 0.496349 0.391921 0.014531
C29   C     C_R   0.872143 0.476424 0.490793 -0.035510
C30   C     C_R   0.128259 0.525042 0.509645 -0.035852
C31   C     C_3   0.479928 0.940697 0.216099 -0.195797
C32   C     C_3   0.513321 0.991281 0.113520 -0.404395
C33   C     C_3   0.456579 0.050327 0.775673 -0.196820
C34   C     C_R   0.498987 0.184121 0.463017 0.020926
C35   C     C_3   0.333424 0.013333 0.815376 -0.441969
C36   C     C_3   0.709760 0.651655 0.813825 -0.222381
C37   C     C_3   0.720204 0.763103 0.886394 -0.426759
C38   C     C_3   0.287739 0.351013 0.186887 -0.213327
C39   C     C_3   0.267765 0.241249 0.110930 -0.429873
C40   C     C_R   0.478607 0.010657 0.337975 0.034557
C41   C     C_R   0.484596 0.988033 0.656047 0.055552
C42   C     C_R   0.480568 0.120151 0.352008 0.304453
C43   C     C_R   0.494875 0.880202 0.645138 0.299819
C44   C     C_R   0.515766 0.139218 0.561677 0.291160
Cu1   Cu    Cu3+1 0.509250 0.507730 0.615930 0.972629
Cu2   Cu    Cu3+1 0.490750 0.492270 0.384070 0.976382
F1    F     F_    0.429432 0.792643 0.332510 -0.666217
F2    F     F_    0.568758 0.198700 0.661821 -0.655595
F3    F     F_    0.505239 0.838792 0.742878 -0.675091
F4    F     F_    0.467027 0.165817 0.257983 -0.676421
H1    H     H_    0.085790 0.602280 0.141075 0.119722
H2    H     H_    0.196730 0.621221 0.331805 0.175897
H3    H     H_    0.365898 0.419194 0.790137 0.126132
H4    H     H_    0.634473 0.580457 0.209839 0.127744
H5    H     H_    0.435841 0.036324 0.086434 0.197580
H6    H     H_    0.599609 0.041238 0.135599 0.196329
H7    H     H_    0.529018 0.929257 0.037078 0.126475
H8    H     H_    0.550952 0.882038 0.220461 0.188145
H9    H     H_    0.387864 0.899678 0.192763 0.201466
H10   H     H_    0.258197 0.014011 0.747030 0.150150
H11   H     H_    0.337768 0.933716 0.834688 0.216072
H12   H     H_    0.914876 0.401442 0.860612 0.120800
H13   H     H_    0.310366 0.066745 0.896475 0.113646
H14   H     H_    0.532448 0.043098 0.841182 0.179360
H15   H     H_    0.446400 0.134175 0.776905 0.210598
H16   H     H_    0.627717 0.790222 0.910382 0.217079
H17   H     H_    0.780282 0.767187 0.967343 0.118592
H18   H     H_    0.762447 0.817046 0.835317 0.164987
H19   H     H_    0.802360 0.618167 0.815034 0.129247
H20   H     H_    0.686210 0.660472 0.724692 0.230125
H21   H     H_    0.202353 0.241847 0.034573 0.116089
H22   H     H_    0.356649 0.211136 0.079363 0.205193
H23   H     H_    0.287378 0.378047 0.967902 0.090698
H24   H     H_    0.227006 0.186943 0.162410 0.169289
H25   H     H_    0.314469 0.338630 0.274152 0.236698
H26   H     H_    0.197667 0.388786 0.191104 0.131565
H27   H     H_    0.712085 0.623265 0.031936 0.090556
H28   H     H_    0.210310 0.570115 0.746626 0.152062
H29   H     H_    0.790420 0.432400 0.253425 0.151269
H30   H     H_    0.116338 0.500154 0.899825 0.105167
H31   H     H_    0.884323 0.503622 0.101146 0.104933
H32   H     H_    0.804140 0.380934 0.669721 0.176373
N1    N     N_R   0.523180 0.519350 0.790130 -0.220270
N2    N     N_R   0.476820 0.480650 0.209870 -0.220226
O1    O     O_R   0.506570 0.354460 0.582000 -0.448751
O2    O     O_R   0.493430 0.645540 0.418000 -0.442184
O3    O     O_R   0.490940 0.341410 0.386200 -0.466513
O4    O     O_R   0.509060 0.658590 0.613800 -0.470571
O5    O     O_R   0.327470 0.506520 0.597900 -0.524604
O6    O     O_R   0.672530 0.493480 0.402100 -0.524751
O7    O     O_R   0.311840 0.493460 0.402100 -0.540784
O8    O     O_R   0.688160 0.506540 0.597900 -0.539675

loop_
_geom_bond_atom_site_label_1
_geom_bond_atom_site_label_2
_ccdc_geom_bond_type
C1    O3    A    
C24   H2    S    
C8    N1    A    
Cu1   O1    S    
C34   C42   A    
C33   H15   S    
C38   H26   S    
Cu1   Cu2   S    
C12   C23   S    
C22   H32   S    
C31   H8    S    
C36   C37   S    
C19   C21   A    
C24   C26   A    
C38   C39   S    
C37   H18   S    
C10   N1    A    
C17   H29   S    
C23   C43   A    
C31   C40   S    
C18   C20   A    
C8    C36   S    
C39   H24   S    
C31   H9    S    
Cu1   O8    S    
C10   H3    S    
C17   C19   A    
C15   O8    A    
C3    C41   A    
C4    C40   A    
C22   C25   A    
C39   H22   S    
Cu1   O5    S    
C32   H5    S    
C5    C13   A    
C16   C27   A    
C40   C42   A    
C7    N2    A    
C27   C30   A    
C1    O1    A    
C41   C43   A    
Cu1   N1    S    
C32   H7    S    
C14   C30   S    
C36   H20   S    
C1    C34   S    
C15   C29   S    
C38   H25   S    
C25   C29   A    
C3    C44   A    
C12   O4    A    
Cu1   O4    S    
C34   C44   A    
C6    C11   A    
C5    C7    A    
C43   F3    S    
C6    H27   S    
C6    C8    A    
Cu2   O7    S    
C35   H10   S    
C2    C4    A    
C14   O5    A    
C31   C32   S    
C37   H16   S    
C35   H11   S    
C9    C11   A    
C42   F4    S    
Cu2   N2    S    
C18   H30   S    
C20   C22   A    
C26   C30   A    
C3    C4    A    
C21   H1    S    
C36   H19   S    
Cu2   O3    S    
C28   C29   A    
C17   C28   A    
C10   C13   A    
Cu2   O6    S    
C2    F1    S    
C25   C27   A    
C26   C28   A    
C12   O2    A    
C33   C41   S    
C15   O6    A    
C11   C13   A    
C33   H14   S    
C37   H17   S    
C33   C35   S    
C7    C38   S    
C16   H28   S    
C5    H23   S    
C14   O7    A    
C9    N2    A    
C16   C18   A    
C21   C24   A    
C2    C23   A    
C39   H21   S    
C35   H13   S    
C9    H4    S    
C19   H31   S    
C32   H6    S    
C44   F2    S    
C20   H12   S    
Cu2   O2    S    
