data_mof_unit_pretest_191.cif
_audit_creation_date              2013-03-05T15:53:43-0500
_audit_creation_method            fapswitch 2.2
_symmetry_space_group_name_H-M    P1
_symmetry_Int_Tables_number       1
_space_group_crystal_system       triclinic
_cell_length_a                    14.893321
_cell_length_b                    14.778895
_cell_length_c                    17.020126
_cell_angle_alpha                 109.018277
_cell_angle_beta                  106.309131
_cell_angle_gamma                 107.835724
_cell_volume                      3055.15243934

loop_
_atom_site_label
_atom_site_type_symbol
_atom_site_description
_atom_site_fract_x
_atom_site_fract_y
_atom_site_fract_z
_atom_type_partial_charge
C1    C     C_R   0.094474 0.276807 0.033815 -0.066330
H1    H     H_    0.176278 0.296263 0.062174 0.114811
N1    N     N_R   0.055640 0.348550 0.045600 -0.042140
C2    C     C_R   0.937293 0.457543 0.735129 -0.125994
H2    H     H_    0.860139 0.419274 0.682399 0.091926
N2    N     N_R   0.960830 0.507850 0.823710 -0.048259
C3    C     C_R   0.749367 0.200992 0.812531 -0.124759
H3    H     H_    0.725182 0.137140 0.830416 0.086492
N3    N     N_R   0.811290 0.303400 0.871650 -0.040147
C4    C     C_R   0.300704 0.595169 0.003785 -0.097375
H4    H     H_    0.328055 0.660633 0.987945 0.120005
N4    N     N_R   0.205180 0.552990 0.997660 -0.042602
C5    C     C_R   0.751345 0.296868 0.735630 -0.123521
H5    H     H_    0.726327 0.321546 0.683786 0.090122
N5    N     N_R   0.814810 0.361830 0.823710 -0.039530
C6    C     C_R   0.296293 0.498291 0.079453 -0.129364
H6    H     H_    0.320429 0.471761 0.130391 0.118023
N6    N     N_R   0.201660 0.494570 0.045600 -0.044087
C7    C     C_R   0.110182 0.537105 0.811727 -0.036890
H7    H     H_    0.192630 0.567500 0.830205 0.140698
N7    N     N_R   0.068420 0.560530 0.871650 -0.049120
C8    C     C_R   0.921281 0.190719 0.960512 -0.116311
H8    H     H_    0.843183 0.128625 0.925017 0.089114
N8    N     N_R   0.948050 0.295860 0.997660 -0.046712
C9    C     C_R   0.011675 0.175971 0.977501 0.045126
C10   C     C_R   0.028666 0.467232 0.724896 0.084904
C11   C     C_R   0.717880 0.193949 0.725522 0.066845
C12   C     C_R   0.360563 0.562275 0.054686 0.058421
C13   C     C_R   0.273991 0.687668 0.251470 -0.078458
H9    H     H_    0.297538 0.650943 0.293219 0.172241
N9    N     N_R   0.185190 0.638170 0.176290 -0.053734
C14   C     C_R   0.750295 0.565931 0.975911 -0.123801
H10   H     H_    0.744169 0.622330 0.950726 0.108567
N10   N     N_R   0.798340 0.505430 0.954400 -0.040108
C15   C     C_R   0.892237 0.397788 0.176767 -0.207837
H11   H     H_    0.812852 0.338561 0.148611 0.121693
N11   N     N_R   0.931580 0.439470 0.128350 -0.061237
C16   C     C_R   0.082246 0.805009 0.014379 0.334384
N12   N     N_R   0.051950 0.704140 0.002340 -0.092226
C17   C     C_R   0.911855 0.721576 0.937581 -0.236630
H12   H     H_    0.834349 0.701035 0.891074 0.129814
N13   N     N_R   0.944360 0.651450 0.954400 -0.060733
C18   C     C_R   0.064096 0.484335 0.254886 0.362202
N14   N     N_R   0.039170 0.492150 0.176290 -0.090432
C19   C     C_R   0.280373 0.783274 0.175149 -0.108953
H13   H     H_    0.311156 0.835451 0.147952 0.163410
N15   N     N_R   0.188710 0.696600 0.128350 -0.053341
C20   C     C_R   0.742843 0.469274 0.052757 -0.109767
H14   H     H_    0.728163 0.434404 0.097200 0.097126
N16   N     N_R   0.794820 0.447010 0.002340 -0.042028
Ni1   Ni    Ni4+2 0.119330 0.493420 0.109950 0.271034
Ni2   Ni    Ni4+2 0.880670 0.506580 0.890050 0.216097
Ni3   Ni    Ni4+2 0.872590 0.372590 0.000000 0.213595
Ni4   Ni    Ni4+2 0.127410 0.627410 0.000000 0.271033
C21   C     C_R   0.337023 0.778150 0.251554 0.007979
C22   C     C_R   0.714994 0.545882 0.038274 0.059860
C23   C     C_R   0.973165 0.423311 0.256941 -0.077782
C24   C     C_R   0.996236 0.820264 0.975792 0.014891
C25   C     C_R   0.524104 0.656501 0.046289 0.119679
C26   C     C_R   0.472885 0.600688 0.085359 0.043068
C27   C     C_R   0.528855 0.567186 0.141900 -0.183231
H15   H     H_    0.496276 0.531125 0.179560 0.132723
C28   C     C_R   0.620400 0.563729 0.137887 -0.185641
H16   H     H_    0.655205 0.525554 0.173022 0.128810
C29   C     C_R   0.654514 0.592676 0.076609 0.044900
C30   C     C_R   0.613541 0.651946 0.041379 0.147367
C31   C     C_3   0.582522 0.648247 0.948196 -0.490696
C32   C     C_3   0.485342 0.653965 0.953973 -0.436274
H17   H     H_    0.635465 0.720411 0.948593 0.191294
H18   H     H_    0.564893 0.570996 0.892786 0.218485
H19   H     H_    0.482558 0.729677 0.958247 0.196279
H20   H     H_    0.413849 0.580261 0.901892 0.250799
C33   C     C_R   0.960678 0.382329 0.323214 0.130097
C34   C     C_R   0.033046 0.415688 0.636250 -0.021396
C35   C     C_R   0.129130 0.406023 0.542044 -0.282350
C36   C     C_R   0.126890 0.424156 0.627586 0.356452
C37   C     C_R   0.940458 0.366798 0.556127 -0.291202
C38   C     C_R   0.943790 0.355149 0.473341 0.192467
C39   C     C_R   0.039556 0.379471 0.466938 0.087598
C40   C     C_R   0.045509 0.385383 0.388462 -0.167292
C41   C     C_R   0.863425 0.348679 0.326778 -0.158552
C42   C     C_R   0.854392 0.331756 0.400146 -0.207271
H21   H     H_    0.118171 0.399592 0.382780 0.184512
H22   H     H_    0.795362 0.342331 0.276604 0.122257
H23   H     H_    0.201659 0.418003 0.535438 0.190094
H24   H     H_    0.779859 0.311497 0.403969 0.123994
H25   H     H_    0.865470 0.348405 0.557903 0.128013
C43   C     C_R   0.672465 0.097798 0.639406 0.131363
C44   C     C_R   0.445619 0.849083 0.316208 0.120766
C45   C     C_R   0.581664 0.029017 0.394211 -0.207466
C46   C     C_R   0.497992 0.945146 0.315013 -0.153879
C47   C     C_R   0.489695 0.831002 0.390451 -0.254150
C48   C     C_R   0.565657 0.916774 0.472165 0.174505
C49   C     C_R   0.608336 0.017758 0.474906 0.181476
C50   C     C_R   0.665493 0.107300 0.558857 -0.259532
C51   C     C_R   0.638685 0.996679 0.636783 -0.167435
C52   C     C_R   0.587360 0.906079 0.553162 -0.196314
H26   H     H_    0.696707 0.184416 0.560034 0.113480
H27   H     H_    0.647764 0.986871 0.698333 0.119639
H28   H     H_    0.616105 0.105659 0.395068 0.128888
H29   H     H_    0.556204 0.828670 0.551745 0.146759
H30   H     H_    0.469101 0.959613 0.256779 0.135850
H31   H     H_    0.455125 0.755248 0.390533 0.138777
C53   C     C_R   0.114021 0.073616 0.939907 0.199919
C54   C     C_R   0.018397 0.074898 0.933628 0.023029
C55   C     C_R   0.927773 0.977533 0.875316 -0.190475
H32   H     H_    0.851910 0.971449 0.870019 0.128937
C56   C     C_R   0.933042 0.888613 0.816327 -0.201026
H33   H     H_    0.862280 0.817092 0.767737 0.141849
C57   C     C_R   0.028485 0.894804 0.815205 0.020193
C58   C     C_R   0.118597 0.985149 0.882480 0.258330
C59   C     C_3   0.209799 0.050669 0.873525 -0.459461
C60   C     C_3   0.205044 0.148041 0.935849 -0.531248
H34   H     H_    0.280588 0.041811 0.905710 0.221444
H35   H     H_    0.191355 0.041289 0.802505 0.198653
H36   H     H_    0.273723 0.195496 0.003462 0.213270
H37   H     H_    0.183768 0.195091 0.900860 0.215127
N17   N     N_R   0.185542 0.873243 0.034113 0.210866
O1    O     O_R   0.217547 0.975902 0.071148 -0.425656
O2    O     O_R   0.239607 0.832970 0.998967 -0.460049
N18   N     N_R   0.167528 0.508421 0.311067 0.195319
O3    O     O_R   0.213368 0.580826 0.396061 -0.430776
O4    O     O_R   0.218826 0.463697 0.275648 -0.458279
N19   N     N_R   0.218211 0.446989 0.702698 0.216324
O5    O     O_R   0.310238 0.501227 0.710530 -0.417460
O6    O     O_R   0.209961 0.397740 0.753154 -0.426746

loop_
_geom_bond_atom_site_label_1
_geom_bond_atom_site_label_2
_geom_bond_distance
_ccdc_geom_bond_type
C6    C12   1.385660 A    
C28   C29   1.408612 A    
C48   C49   1.410819 A    
C7    H7    1.077783 S    
C18   N14   1.337414 A    
C43   C51   1.404194 A    
C41   C42   1.384654 A    
C50   H26   1.082001 S    
C9    C54   1.485101 S    
C3    H3    1.074006 S    
C37   C38   1.379806 A    
C31   H17   1.111924 S    
C34   C36   1.418267 A    
C11   C43   1.456720 S    
C15   N11   1.335229 A    
C25   C30   1.378248 A    
C16   N12   1.343436 A    
N12   Ni4   1.823989 S    
C55   H32   1.080768 S    
C22   C29   1.460461 S    
C51   H27   1.080801 S    
C3    C11   1.379642 A    
C56   H33   1.081787 S    
C3    N3    1.335992 A    
C1    H1    1.079190 S    
C19   N15   1.338674 A    
C23   C33   1.472350 S    
C27   C28   1.399594 A    
C7    C10   1.397875 A    
N17   O1    1.300518 A    
C53   C54   1.404416 A    
C47   H31   1.080194 S    
C57   C58   1.392062 A    
C35   H23   1.083910 S    
C15   H11   1.080785 S    
C6    H6    1.080471 S    
C34   C37   1.405193 A    
C44   C46   1.404891 A    
C18   N18   1.424425 S    
C60   H36   1.111695 S    
N11   Ni3   1.871867 S    
C17   N13   1.346567 A    
C30   C31   1.499435 S    
C43   C50   1.401601 A    
C25   C26   1.400491 A    
N9    N15   1.367370 A    
C5    H5    1.076466 S    
C1    C9    1.392725 A    
N1    N8    1.388153 A    
C49   C50   1.382724 A    
C40   H21   1.075808 S    
C45   H28   1.084170 S    
C59   C60   1.520151 S    
N6    Ni1   1.859288 S    
C45   C49   1.398155 A    
N12   N13   1.388154 A    
C53   C60   1.497017 S    
C12   C26   1.458713 S    
N10   N16   1.367251 A    
N16   Ni3   1.824970 S    
C17   C24   1.389054 A    
C31   C32   1.503663 S    
C36   N19   1.434974 S    
C2    N2    1.327265 A    
N1    Ni1   1.824125 S    
C38   C39   1.405030 A    
C13   C21   1.377845 A    
N8    Ni3   1.823989 S    
C42   H24   1.084317 S    
N2    N7    1.388151 A    
C8    C9    1.394903 A    
C28   H16   1.081459 S    
C26   C27   1.406735 A    
C1    N1    1.342074 A    
C14   N10   1.330883 A    
C35   C36   1.403974 A    
C13   H9    1.072605 S    
C25   C32   1.497453 S    
C38   C42   1.396415 A    
C32   H20   1.111804 S    
C51   C52   1.386639 A    
C16   C24   1.387076 A    
N5    Ni2   1.825301 S    
C44   C47   1.400255 A    
C19   C21   1.376876 A    
N18   O3    1.301045 A    
C4    N4    1.324586 A    
C33   C41   1.405943 A    
N15   Ni4   1.871746 S    
C60   H37   1.112386 S    
C59   H34   1.111599 S    
N14   Ni1   1.859490 S    
C6    N6    1.340603 A    
C20   H14   1.078653 S    
C5    N5    1.331454 A    
C8    N8    1.346044 A    
N3    Ni3   1.871749 S    
N4    Ni4   1.824971 S    
C46   H30   1.080823 S    
C48   C52   1.397501 A    
C41   H22   1.081183 S    
N19   O6    1.301615 A    
C4    C12   1.373986 A    
C20   C22   1.388063 A    
C17   H12   1.080162 S    
C58   C59   1.487482 S    
C7    N7    1.343492 A    
N9    Ni1   1.825300 S    
C2    H2    1.066584 S    
C53   C58   1.388713 A    
C2    C10   1.390245 A    
C54   C55   1.415778 A    
N10   Ni2   1.859291 S    
C15   C23   1.385414 A    
C31   H18   1.112375 S    
C14   H10   1.069729 S    
N11   N14   1.388151 A    
N3    N5    1.367371 A    
C13   N9    1.329812 A    
C45   C46   1.388432 A    
N7    Ni4   1.871870 S    
C55   C56   1.410196 A    
C32   H19   1.111805 S    
C20   N16   1.337514 A    
C47   C48   1.381969 A    
C10   C34   1.482420 S    
C33   C40   1.405675 A    
C56   C57   1.402149 A    
C27   H15   1.081308 S    
N17   O2    1.300972 A    
N18   O4    1.300891 A    
C4    H4    1.079312 S    
C18   C23   1.395566 A    
C39   C40   1.391886 A    
C16   N17   1.426582 S    
C19   H13   1.074406 S    
C37   H25   1.077232 S    
C21   C44   1.461395 S    
C29   C30   1.401219 A    
N4    N6    1.367252 A    
C8    H8    1.072453 S    
C5    C11   1.381465 A    
N2    Ni2   1.859488 S    
C35   C39   1.400846 A    
C14   C22   1.383391 A    
C59   H35   1.112098 S    
C52   H29   1.084063 S    
N13   Ni2   1.824124 S    
N19   O5    1.301374 A    
