data_mof_unit_pretest_1409.cif
_audit_creation_date              2013-03-05T16:33:12-0500
_audit_creation_method            fapswitch 2.2
_symmetry_space_group_name_H-M    P1
_symmetry_Int_Tables_number       1
_space_group_crystal_system       triclinic
_cell_length_a                    27.801284
_cell_length_b                    10.8066
_cell_length_c                    9.529304
_cell_angle_alpha                 89.958855
_cell_angle_beta                  89.8346
_cell_angle_gamma                 90.122351
_cell_volume                      2862.93968747

loop_
_atom_site_label
_atom_site_type_symbol
_atom_site_description
_atom_site_fract_x
_atom_site_fract_y
_atom_site_fract_z
_atom_type_partial_charge
O1    O     O_R   0.500000 0.319640 0.618810 -0.582560
O2    O     O_R   0.500010 0.319680 0.381230 -0.589983
C1    C     C_R   0.500888 0.262264 0.499991 0.806227
O3    O     O_R   0.430260 0.500000 0.618780 -0.584618
O4    O     O_R   0.430270 0.500040 0.381190 -0.581410
C2    C     C_R   0.407413 0.499904 0.500189 0.820845
Cu1   Cu    Cu3+1 0.500000 0.499980 0.640670 0.945269
Cu2   Cu    Cu3+1 0.500000 0.500020 0.359330 0.945405
O5    O     O_R   0.499990 0.680320 0.618770 -0.579216
O6    O     O_R   0.500000 0.680360 0.381190 -0.584622
O7    O     O_R   0.569730 0.499960 0.618810 -0.582856
O8    O     O_R   0.569740 0.500000 0.381220 -0.582383
C3    C     C_R   0.500920 0.737713 0.499884 0.807666
C4    C     C_R   0.592600 0.499276 0.499859 0.803222
C5    C     C_R   0.177908 0.388924 0.489155 0.530596
O9    O     O_2   0.203111 0.282822 0.476842 -0.540837
N1    N     N_R   0.201627 0.498792 0.502939 -0.455856
C6    C     C_R   0.177630 0.608371 0.517671 0.538657
C7    C     C_R   0.278666 0.490644 0.629819 0.177290
C8    C     C_R   0.329011 0.491154 0.628013 -0.213525
C9    C     C_R   0.328862 0.507869 0.374344 -0.209471
C10   C     C_R   0.278509 0.507870 0.373964 0.175561
C11   C     C_R   0.253311 0.499091 0.502247 0.361500
C12   C     C_R   0.101677 0.497479 0.500020 -0.082828
C13   C     C_R   0.127628 0.385975 0.487491 -0.009679
C14   C     C_R   0.102973 0.273765 0.472863 -0.141813
C15   C     C_R   0.126617 0.611024 0.518550 -0.037020
C16   C     C_R   0.354382 0.499654 0.500822 -0.122829
H1    H     H_    0.348149 0.514658 0.275661 0.166298
H2    H     H_    0.122205 0.187283 0.460882 0.188663
C17   C     C_R   0.645637 0.497074 0.499436 -0.041866
C18   C     C_R   0.974937 0.378644 0.500590 0.013806
C19   C     C_R   0.974255 0.605106 0.473879 0.007394
C20   C     C_R   0.949190 0.491025 0.488929 0.051605
C21   C     C_R   0.948995 0.268608 0.525189 -0.221900
C22   C     C_R   0.898956 0.266549 0.532961 0.223373
C23   C     C_R   0.872551 0.377412 0.514271 -0.078112
C24   C     C_R   0.898129 0.489387 0.490952 -0.079747
C25   C     C_R   0.872675 0.600312 0.468879 -0.051961
C26   C     C_R   0.822359 0.599211 0.472572 0.559301
N2    N     N_R   0.798125 0.491476 0.497045 -0.475340
C27   C     C_R   0.821668 0.381976 0.517392 0.564063
C28   C     C_R   0.721428 0.486792 0.625371 -0.092425
C29   C     C_R   0.671252 0.488951 0.626181 -0.208316
C30   C     C_R   0.671231 0.502136 0.372090 -0.205769
C31   C     C_R   0.721356 0.500501 0.371591 -0.093902
C32   C     C_R   0.746569 0.492939 0.498115 0.350272
O10   O     O_2   0.795468 0.278844 0.539095 -0.486024
C33   C     C_R   0.025897 0.379968 0.489361 0.070253
C34   C     C_R   0.050662 0.494723 0.494636 0.071425
C35   C     C_R   0.024654 0.606603 0.496733 0.010764
C36   C     C_R   0.053060 0.270488 0.474509 -0.199507
H3    H     H_    0.652626 0.483656 0.725849 0.151075
H4    H     H_    0.740817 0.480653 0.723510 0.142701
H5    H     H_    0.967066 0.182097 0.544218 0.168762
H6    H     H_    0.036654 0.180917 0.459736 0.161287
O11   O     O_2   0.203498 0.713345 0.530172 -0.544974
C37   C     C_R   0.099431 0.720768 0.540809 0.159142
H7    H     H_    0.348410 0.484530 0.726179 0.165170
C38   C     C_R   0.947692 0.711938 0.434348 0.124269
C39   C     C_R   0.897683 0.709172 0.437126 -0.128446
O12   O     O_2   0.797673 0.705159 0.452280 -0.511675
C40   C     C_R   0.049203 0.715482 0.532836 -0.151212
H8    H     H_    0.652660 0.507171 0.272785 0.149196
H9    H     H_    0.878298 0.792301 0.408676 0.222078
H10   H     H_    0.740683 0.504715 0.272870 0.141653
H11   H     H_    0.028949 0.796817 0.561408 0.174401
C41   C     C_R   0.507427 0.063478 0.625599 0.142740
C42   C     C_R   0.505828 0.129220 0.499587 -0.096859
C43   C     C_R   0.511265 0.064597 0.372521 -0.207172
H12   H     H_    0.513052 0.112850 0.272960 0.163290
C44   C     C_R   0.511255 0.935702 0.372446 -0.208214
H13   H     H_    0.512961 0.887708 0.272848 0.158771
C45   C     C_R   0.505849 0.870761 0.499437 -0.096717
C46   C     C_R   0.507414 0.936203 0.625503 0.122978
C47   C     C_3   0.475138 0.929193 0.750931 -0.458054
C48   C     C_3   0.475219 0.069687 0.751202 -0.480208
H14   H     H_    0.439379 0.888295 0.726483 0.205678
H15   H     H_    0.493533 0.888654 0.843570 0.192623
H16   H     H_    0.439491 0.110613 0.727200 0.199037
H17   H     H_    0.493805 0.109784 0.843839 0.195599
C49   C     C_R   0.517132 0.599876 0.073386 0.252917
N3    N     N_R   0.500300 0.500930 0.147930 -0.183584
C50   C     C_R   0.478164 0.408011 0.074724 -0.080247
H18   H     H_    0.461211 0.332447 0.130636 0.140947
C51   C     C_R   0.478096 0.408127 0.925753 -0.081529
H19   H     H_    0.460948 0.332947 0.870211 0.138573
N4    N     N_R   0.500310 0.500890 0.852020 -0.182902
C52   C     C_R   0.517163 0.599792 0.925979 0.252986
C53   C     C_3   0.566715 0.652291 0.919289 -0.491497
C54   C     C_3   0.566720 0.652358 0.078621 -0.496712
H20   H     H_    0.593210 0.586872 0.873646 0.214247
H21   H     H_    0.567303 0.746754 0.873125 0.196450
H22   H     H_    0.593159 0.586866 0.123776 0.213309
H23   H     H_    0.567397 0.746883 0.124396 0.193169
C55   C     C_3   0.252169 0.480845 0.767439 -0.827333
H24   H     H_    0.277278 0.473984 0.857561 0.219206
H25   H     H_    0.229370 0.563922 0.783104 0.246878
H26   H     H_    0.228989 0.397070 0.767427 0.246628
C56   C     C_3   0.121837 0.844577 0.575543 -0.716476
H27   H     H_    0.094364 0.917005 0.595668 0.201490
H28   H     H_    0.143947 0.836727 0.671961 0.251850
H29   H     H_    0.144066 0.877548 0.486038 0.264384
I1    I     I_    0.976711 0.871263 0.330519 -0.376357
C57   C     C_3   0.251833 0.517535 0.237107 -0.824662
H30   H     H_    0.276823 0.524758 0.146290 0.219144
H31   H     H_    0.229007 0.434236 0.221974 0.247880
H32   H     H_    0.228658 0.601066 0.237895 0.246982
I2    I     I_    0.869687 0.086962 0.573712 -0.215736

loop_
_geom_bond_atom_site_label_1
_geom_bond_atom_site_label_2
_geom_bond_distance
_ccdc_geom_bond_type
Cu2   N3    2.014506 S    
N2    C27   1.367459 A    
C21   C22   1.393051 A    
C12   C15   1.419489 A    
C4    C17   1.474736 S    
C28   C29   1.395187 A    
Cu1   Cu2   2.680973 S    
C30   C31   1.393661 A    
C41   C46   1.375403 A    
Cu1   O7    1.949146 S    
C57   H31   1.109990 S    
N1    C11   1.436891 S    
C49   C52   1.404690 A    
C22   C23   1.417787 A    
C1    C42   1.444603 S    
C47   H14   1.112446 S    
C31   H10   1.082908 S    
C24   C25   1.409276 A    
O7    C4    1.298097 A    
C51   N4    1.368875 A    
C5    C13   1.398266 A    
C5    O9    1.350020 S    
C55   H26   1.110138 S    
C41   C48   1.494336 S    
C26   O12   1.350211 S    
C5    N1    1.363500 A    
C23   C27   1.415819 A    
O5    C3    1.291342 A    
C6    O11   1.347398 S    
C50   H18   1.081265 S    
C2    C16   1.474319 S    
Cu1   N4    2.014094 S    
C41   C42   1.395654 A    
C55   H25   1.110015 S    
C47   H15   1.111655 S    
C43   H12   1.083247 S    
O1    Cu1   1.960112 S    
C9    C10   1.399893 A    
O3    Cu1   1.950652 S    
C29   H3    1.081866 S    
C19   C20   1.421811 A    
C12   C34   1.419608 A    
C25   C39   1.397733 A    
C57   H32   1.110166 S    
C40   H11   1.079510 S    
C45   C46   1.395209 A    
C21   H5    1.077762 S    
C18   C21   1.408554 A    
C35   C40   1.402520 A    
C12   C13   1.410739 A    
O3    C2    1.297957 A    
C17   C29   1.406646 A    
C25   C26   1.399221 A    
C51   H19   1.080685 S    
C8    C16   1.403434 A    
C34   C35   1.410206 A    
C13   C14   1.398909 A    
C9    H1    1.083518 S    
O6    C3    1.290431 A    
C56   H29   1.109926 S    
C49   C54   1.490586 S    
C38   C39   1.390747 A    
O1    C1    1.291509 A    
C18   C20   1.415481 A    
C7    C11   1.410014 A    
C46   C47   1.494285 S    
C23   C24   1.419278 A    
C14   C36   1.388051 A    
C28   H4    1.082843 S    
C53   H20   1.110119 S    
N3    C50   1.369127 A    
C48   H17   1.111871 S    
Cu2   O8    1.950647 S    
C33   C36   1.411916 A    
C55   H24   1.110829 S    
C56   H28   1.110241 S    
N1    C6    1.367524 A    
N2    C32   1.433440 S    
C37   C56   1.511939 S    
C27   O10   1.345653 S    
C47   C48   1.518272 S    
C8    H7    1.083533 S    
C44   C45   1.405982 A    
C26   N2    1.363501 A    
C9    C16   1.403182 A    
O8    C4    1.298571 A    
C14   H2    1.083641 S    
C19   C38   1.422946 A    
C53   H21   1.111358 S    
C48   H16   1.112465 S    
C37   C40   1.399731 A    
Cu1   O5    1.959855 S    
C31   C32   1.398826 A    
C20   C24   1.419692 A    
O2    Cu2   1.959857 S    
C6    C15   1.418570 A    
C50   C51   1.419598 A    
C44   H13   1.082863 S    
C15   C37   1.423390 A    
O4    Cu2   1.949149 S    
C19   C35   1.418659 A    
C10   C57   1.505819 S    
C57   H30   1.110829 S    
C30   H8    1.080692 S    
C7    C8    1.399722 A    
O2    C1    1.290561 A    
C54   H22   1.109031 S    
C53   C54   1.518320 S    
O4    C2    1.298286 A    
C56   H27   1.111149 S    
C42   C43   1.406171 A    
C18   C33   1.420524 A    
C54   H23   1.111162 S    
C39   H9    1.083276 S    
N4    C52   1.363600 A    
Cu2   O6    1.960111 S    
C33   C34   1.418133 A    
C17   C30   1.405946 A    
C22   I2    2.137678 S    
C10   C11   1.410224 A    
C43   C44   1.392909 A    
C49   N3    1.364458 A    
C52   C53   1.489909 S    
C38   I1    2.140396 S    
C28   C32   1.399396 A    
C7    C55   1.505847 S    
C36   H6    1.078643 S    
C3    C45   1.444029 S    
