data_mof_unit_pretest_1297.cif
_audit_creation_date              2012-12-10T17:42:39-0500
_audit_creation_method            fapswitch 2.2
_symmetry_space_group_name_H-M    P1
_symmetry_Int_Tables_number       1
_space_group_crystal_system       triclinic
_cell_length_a                    9.89651
_cell_length_b                    10.650748
_cell_length_c                    13.126004
_cell_angle_alpha                 91.518152
_cell_angle_beta                  71.446928
_cell_angle_gamma                 90.68176
_cell_volume                      1311.17634041

loop_
_atom_site_label
_atom_site_type_symbol
_atom_type_description
_atom_site_fract_x
_atom_site_fract_y
_atom_site_fract_z
_atom_type_partial_charge
C1    C     C_R   0.508393 0.736943 0.480824 0.891795
C2    C     C_R   0.447045 0.410366 0.972805 0.081030
C3    C     C_R   0.488175 0.407062 0.859891 0.045857
C4    C     C_R   0.553898 0.434893 0.021762 0.090401
C5    C     C_R   0.699260 0.441076 0.957782 0.165191
C6    C     C_R   0.738056 0.409387 0.848996 -0.246340
C7    C     C_R   0.633570 0.387031 0.801592 -0.178566
C8    C     C_R   0.519752 0.460189 0.131448 -0.276905
C9    C     C_R   0.768354 0.501806 0.113492 -0.002618
C10   C     C_R   0.382698 0.423374 0.809213 -0.153758
C11   C     C_R   0.288381 0.871269 0.415121 -0.124939
C12   C     C_R   0.423987 0.475474 0.699790 0.884087
C13   C     C_R   0.154579 0.924977 0.437413 -0.136944
C14   C     C_R   0.124547 0.037886 0.495358 -0.163830
C15   C     C_R   0.232514 0.102198 0.522448 -0.154836
C16   C     C_R   0.373734 0.054289 0.490558 0.099285
C17   C     C_R   0.394509 0.930541 0.450696 0.060234
C18   C     C_R   0.519138 0.868125 0.451495 -0.168071
C19   C     C_R   0.642274 0.937421 0.447374 0.187464
C20   C     C_R   0.628642 0.064332 0.470783 -0.221137
C21   C     C_R   0.495751 0.123113 0.495687 -0.176850
C22   C     C_R   0.803629 0.665595 0.640016 -0.158574
C23   C     C_R   0.496890 0.258687 0.503409 0.871373
C24   C     C_R   0.845883 0.745455 0.709883 -0.196322
C25   C     C_R   0.985117 0.743569 0.711035 -0.187012
C26   C     C_R   0.083072 0.662251 0.641930 -0.163516
C27   C     C_R   0.044225 0.580436 0.569676 0.152180
C28   C     C_R   0.899780 0.581196 0.569167 0.158852
C29   C     C_R   0.955382 0.422352 0.433833 -0.112862
C30   C     C_R   0.098653 0.422557 0.433704 -0.129022
C31   C     C_R   0.578335 0.500586 0.295920 0.862611
C32   C     C_R   0.803943 0.477749 0.003424 -0.261576
C33   C     C_R   0.624941 0.489465 0.178606 -0.109254
C34   C     C_R   0.240073 0.390890 0.866297 0.197699
C35   C     C_R   0.201709 0.373202 0.977091 -0.133369
C36   C     C_R   0.301590 0.389848 0.030820 -0.234232
H1    H     H_    0.308281 0.782903 0.370251 0.157439
H2    H     H_    0.073579 0.876392 0.412586 0.146099
H3    H     H_    0.018125 0.076642 0.518052 0.137036
H4    H     H_    0.201163 0.186528 0.571056 0.159164
H5    H     H_    0.723910 0.117290 0.468207 0.172508
H6    H     H_    0.923479 0.358982 0.379798 0.146048
H7    H     H_    0.695243 0.673876 0.643701 0.218420
H8    H     H_    0.769909 0.809288 0.763444 0.154256
H9    H     H_    0.017676 0.805654 0.765668 0.154174
H10   H     H_    0.187760 0.665955 0.647841 0.217384
H11   H     H_    0.848750 0.403759 0.799817 0.153860
H12   H     H_    0.174576 0.359263 0.379598 0.149766
H13   H     H_    0.913162 0.489742 0.953319 0.156535
H14   H     H_    0.410190 0.458881 0.181728 0.169440
H15   H     H_    0.263026 0.378751 0.116695 0.141696
H16   H     H_    0.093099 0.348913 0.022820 0.148132
H17   H     H_    0.668643 0.353972 0.718794 0.182717
N1    N     N_R   0.856860 0.501200 0.500990 -0.121946
N2    N     N_R   0.142450 0.501280 0.501020 -0.123027
O1    O     O_R   0.385310 0.683220 0.500000 -0.639456
O2    O     O_R   0.614640 0.683250 0.500010 -0.621283
O3    O     O_R   0.328400 0.499950 0.653610 -0.625105
O4    O     O_R   0.557730 0.499970 0.653620 -0.642005
O5    O     O_R   0.385360 0.316750 0.499990 -0.627328
O6    O     O_R   0.614690 0.316780 0.500000 -0.630313
O7    O     O_R   0.442270 0.500030 0.346380 -0.622743
O8    O     O_R   0.671600 0.500050 0.346390 -0.603479
Zn1   Zn    Zn3+2 0.346880 0.499980 0.499990 0.913199
Zn2   Zn    Zn3+2 0.653120 0.500020 0.500010 0.923268
C37   C     C_1   0.880579 0.541081 0.155920 0.168320
N3    N     N_1   0.970631 0.572607 0.189693 -0.217547
C38   C     C_3   0.131712 0.363464 0.810052 -0.925278
H18   H     H_    0.038516 0.311549 0.862368 0.225584
H19   H     H_    0.094146 0.452300 0.786240 0.252985
H20   H     H_    0.179423 0.302570 0.737902 0.244351
C39   C     C_3   0.789352 0.881249 0.414609 -0.878336
H21   H     H_    0.869313 0.949697 0.367913 0.218422
H22   H     H_    0.816426 0.856629 0.487350 0.248886
H23   H     H_    0.797241 0.797165 0.361177 0.260633

loop_
_geom_bond_atom_site_label_1
_geom_bond_atom_site_label_2
_ccdc_geom_bond_type
O8    Zn2   S    
C16   C21   A    
C25   H9    S    
C29   H6    S    
C35   C36   A    
C4    C8    A    
C20   H5    S    
N1    Zn2   S    
C1    C18   S    
C30   H12   S    
C1    O1    A    
C34   C35   A    
C3    C7    A    
C5    C6    A    
C27   N2    A    
C29   N1    A    
C15   C16   A    
C18   C19   A    
C11   H1    S    
C9    C37   S    
O7    Zn1   S    
C9    C32   A    
C14   H3    S    
C38   H18   S    
C12   O4    A    
C19   C20   A    
C16   C17   A    
O1    Zn1   S    
C5    C32   A    
C12   O3    A    
C37   N3    T    
C22   C28   A    
C13   C14   A    
C9    C33   A    
C31   O7    A    
C19   C39   S    
C39   H23   S    
O3    Zn1   S    
C23   O5    A    
C32   H13   S    
C6    H11   S    
C31   O8    A    
C24   C25   A    
C39   H22   S    
C34   C38   S    
C28   N1    A    
C39   H21   S    
C25   C26   A    
C2    C4    A    
C29   C30   A    
C1    O2    A    
C22   H7    S    
N2    Zn1   S    
C31   C33   S    
C17   C18   A    
C26   C27   A    
C10   C34   A    
C13   H2    S    
C36   H15   S    
C10   C12   S    
C21   C23   S    
C24   H8    S    
C22   C24   A    
C7    H17   S    
C8    H14   S    
C27   C28   A    
C2    C36   A    
C11   C17   A    
O2    Zn2   S    
C4    C5    A    
C6    C7    A    
C30   N2    A    
O5    Zn1   S    
C2    C3    A    
C3    C10   A    
O4    Zn2   S    
C11   C13   A    
C38   H20   S    
C8    C33   A    
C15   H4    S    
C26   H10   S    
O6    Zn2   S    
C23   O6    A    
C20   C21   A    
C38   H19   S    
C35   H16   S    
C14   C15   A    
