data_mof_unit_pretest_707.cif
_audit_creation_date              2012-12-11T17:43:17-0500
_audit_creation_method            fapswitch 2.2
_symmetry_space_group_name_H-M    P1
_symmetry_Int_Tables_number       1
_space_group_crystal_system       triclinic
_cell_length_a                    15.070743
_cell_length_b                    15.199659
_cell_length_c                    17.006171
_cell_angle_alpha                 108.914779
_cell_angle_beta                  106.81012
_cell_angle_gamma                 108.688543
_cell_volume                      3137.19180495

loop_
_atom_site_label
_atom_site_type_symbol
_atom_type_description
_atom_site_fract_x
_atom_site_fract_y
_atom_site_fract_z
_atom_type_partial_charge
C1    C     C_R   0.087360 0.288765 0.076198 -0.153535
C2    C     C_R   0.909549 0.722939 0.962112 -0.083861
C3    C     C_R   0.026445 0.560866 0.737443 0.096858
C4    C     C_R   0.974246 0.535479 0.274416 0.081353
C5    C     C_R   0.757452 0.198011 0.724643 0.066421
C6    C     C_R   0.337350 0.781104 0.253865 0.045462
C7    C     C_R   0.279331 0.451891 0.962224 0.036120
C8    C     C_R   0.655892 0.470278 0.968464 0.121176
C9    C     C_R   0.958647 0.966122 0.087380 -0.115158
C10   C     C_R   0.045496 0.057288 0.988004 -0.081043
C11   C     C_R   0.000655 0.918791 0.031845 0.017298
C12   C     C_R   0.002475 0.103429 0.041811 0.023108
C13   C     C_R   0.047464 0.965805 0.985333 -0.108382
C14   C     C_R   0.960615 0.060759 0.092485 -0.105146
C15   C     C_R   0.816503 0.086528 0.125705 -0.185778
C16   C     C_R   0.203334 0.949096 0.973755 -0.185872
C17   C     C_R   0.854564 0.241153 0.258055 -0.090379
C18   C     C_R   0.202000 0.872737 0.824510 -0.093515
C19   C     C_R   0.398148 0.435156 0.240729 0.087358
C20   C     C_R   0.476870 0.260423 0.658513 0.103096
C21   C     C_R   0.429339 0.475827 0.184385 -0.244752
C22   C     C_R   0.469422 0.295250 0.742585 -0.207443
C23   C     C_R   0.935027 0.509225 0.742211 -0.159002
C24   C     C_R   0.065689 0.549760 0.264734 -0.153114
C25   C     C_R   0.418529 0.407865 0.098999 0.090082
C26   C     C_R   0.488340 0.398705 0.790062 0.170067
C27   C     C_R   0.381104 0.300575 0.072894 -0.171091
C28   C     C_R   0.515369 0.468285 0.753480 -0.075385
C29   C     C_R   0.352047 0.260891 0.129743 -0.157473
C30   C     C_R   0.525313 0.435002 0.671106 -0.120258
C31   C     C_R   0.359794 0.327574 0.212971 -0.163471
C32   C     C_R   0.506009 0.331620 0.623639 -0.160113
C33   C     C_R   0.543160 0.480143 0.043116 -0.081443
C34   C     C_R   0.377690 0.419254 0.872766 -0.096014
C35   C     C_R   0.557941 0.465840 0.962955 -0.013023
C36   C     C_R   0.363232 0.429644 0.952723 -0.028536
C37   C     C_R   0.475516 0.431902 0.876604 -0.041855
C38   C     C_R   0.442302 0.445358 0.033395 -0.038676
C39   C     C_R   0.782253 0.147190 0.178446 -0.106514
C40   C     C_R   0.255461 0.924335 0.920831 -0.136277
C41   C     C_R   0.967664 0.580495 0.361453 0.124028
C42   C     C_R   0.035756 0.592915 0.666816 0.123671
C43   C     C_R   0.144990 0.668672 0.602664 -0.033386
C44   C     C_R   0.863968 0.570900 0.446680 -0.037134
C45   C     C_R   0.774975 0.203372 0.811398 -0.127618
C46   C     C_R   0.279652 0.783197 0.175676 -0.128868
C47   C     C_R   0.133883 0.638677 0.669367 -0.298439
C48   C     C_R   0.871168 0.557029 0.363953 -0.269774
C49   C     C_R   0.947458 0.578562 0.597294 -0.260910
C50   C     C_R   0.058663 0.634612 0.443906 -0.217770
C51   C     C_R   0.954648 0.600517 0.525171 0.116946
C52   C     C_R   0.054072 0.640515 0.525667 0.127023
C53   C     C_R   0.717476 0.103880 0.637738 0.142651
C54   C     C_R   0.446661 0.855459 0.319111 0.125836
C55   C     C_R   0.585320 0.032203 0.391647 -0.215864
C56   C     C_R   0.623486 0.915211 0.551200 -0.229400
C57   C     C_R   0.494646 0.949840 0.316434 -0.170266
C58   C     C_R   0.688055 0.005090 0.635136 -0.164886
C59   C     C_R   0.498891 0.839420 0.391928 -0.297021
C60   C     C_R   0.695587 0.110910 0.554688 -0.266503
C61   C     C_R   0.585763 0.923796 0.470094 0.197925
C62   C     C_R   0.625979 0.022024 0.471253 0.195896
C63   C     C_R   0.961294 0.274321 0.285427 -0.091388
C64   C     C_R   0.095512 0.842634 0.781017 -0.070046
C65   C     C_R   0.995855 0.213596 0.233231 -0.132519
C66   C     C_R   0.042366 0.864591 0.833803 -0.143977
C67   C     C_R   0.258002 0.530601 0.949248 -0.138214
C68   C     C_R   0.703967 0.420451 0.006466 -0.107082
C69   C     C_R   0.923609 0.119227 0.152967 0.113029
C70   C     C_R   0.096449 0.919552 0.930620 0.115601
C71   C     C_R   0.780126 0.298220 0.734475 -0.120927
C72   C     C_R   0.275678 0.690133 0.252897 -0.149539
C73   C     C_R   0.236521 0.427252 0.017049 -0.058158
C74   C     C_R   0.715728 0.522352 0.935998 -0.067221
C75   C     C_R   0.108318 0.593181 0.820359 -0.119995
C76   C     C_R   0.891468 0.463776 0.188104 -0.071615
C77   C     C_R   0.914575 0.202890 0.996234 -0.048234
C78   C     C_R   0.083687 0.805727 0.045837 -0.088433
C79   C     C_R   0.000889 0.196989 0.043299 0.121384
C80   C     C_R   0.996262 0.819652 0.020281 0.162181
H1    H     H_    0.165645 0.311955 0.123369 0.096638
H2    H     H_    0.830657 0.707859 0.924593 0.082909
H3    H     H_    0.759887 0.015139 0.062991 0.106609
H4    H     H_    0.246870 0.994215 0.048149 0.098661
H5    H     H_    0.335910 0.295385 0.255934 0.119186
H6    H     H_    0.513497 0.307182 0.559593 0.110877
H7    H     H_    0.458114 0.558732 0.204980 0.133027
H8    H     H_    0.445504 0.241240 0.769916 0.114106
H9    H     H_    0.372779 0.247464 0.007598 0.119369
H10   H     H_    0.528982 0.548122 0.789006 0.103808
H11   H     H_    0.322447 0.178157 0.108855 0.115902
H12   H     H_    0.547036 0.489154 0.643496 0.129918
H13   H     H_    0.132851 0.657053 0.441948 0.156211
H14   H     H_    0.872246 0.542198 0.595400 0.167352
H15   H     H_    0.800818 0.523606 0.301143 0.127185
H16   H     H_    0.203183 0.652281 0.723814 0.123051
H17   H     H_    0.856499 0.487324 0.696366 0.096329
H18   H     H_    0.145145 0.599992 0.316337 0.102461
H19   H     H_    0.699626 0.121938 0.157040 0.103323
H20   H     H_    0.338012 0.948154 0.954399 0.107554
H21   H     H_    0.721911 0.185876 0.554590 0.115345
H22   H     H_    0.465446 0.766017 0.393669 0.136091
H23   H     H_    0.707581 0.996617 0.697713 0.121492
H24   H     H_    0.458657 0.963964 0.260055 0.110541
H25   H     H_    0.616705 0.106803 0.391103 0.122853
H26   H     H_    0.594125 0.840735 0.551538 0.131950
H27   H     H_    0.827927 0.288549 0.298244 0.099571
H28   H     H_    0.243622 0.857476 0.783744 0.120557
H29   H     H_    0.017210 0.347555 0.346583 0.110743
H30   H     H_    0.054654 0.804523 0.706359 0.141717
H31   H     H_    0.078731 0.240990 0.254119 0.106457
H32   H     H_    0.960777 0.844266 0.799386 0.129416
H33   H     H_    0.764223 0.140012 0.829017 0.095698
H34   H     H_    0.308241 0.833371 0.146683 0.082524
H35   H     H_    0.283148 0.570508 0.911562 0.104730
H36   H     H_    0.671179 0.363362 0.028115 0.066873
H37   H     H_    0.773967 0.323314 0.681668 0.095249
H38   H     H_    0.300555 0.656147 0.296301 0.107644
H39   H     H_    0.232635 0.365668 0.035485 0.130692
H40   H     H_    0.697176 0.561771 0.896118 0.075958
H41   H     H_    0.188487 0.649731 0.847475 0.091774
H42   H     H_    0.809480 0.433475 0.170546 0.089062
H43   H     H_    0.834072 0.147743 0.970426 0.071457
H44   H     H_    0.163738 0.864887 0.087631 0.089279
N1    N     N_R   0.055660 0.348550 0.045620 -0.036792
N2    N     N_R   0.944340 0.651450 0.954380 -0.048789
N3    N     N_R   0.960830 0.507850 0.823700 -0.039534
N4    N     N_R   0.039170 0.492150 0.176300 -0.044411
N5    N     N_R   0.811290 0.303410 0.871650 -0.049327
N6    N     N_R   0.188710 0.696590 0.128350 -0.033411
N7    N     N_R   0.205200 0.552990 0.997670 -0.043737
N8    N     N_R   0.794800 0.447010 0.002330 -0.040068
N9    N     N_R   0.814800 0.361830 0.823700 -0.045808
N10   N     N_R   0.185200 0.638170 0.176300 -0.033382
N11   N     N_R   0.201680 0.494570 0.045620 -0.050806
N12   N     N_R   0.798320 0.505430 0.954380 -0.042109
N13   N     N_R   0.068420 0.560530 0.871650 -0.042113
N14   N     N_R   0.931580 0.439470 0.128350 -0.048675
N15   N     N_R   0.948070 0.295860 0.997670 -0.040607
N16   N     N_R   0.051930 0.704140 0.002330 -0.049809
Ni1   Ni    Ni4+2 0.119340 0.493420 0.109960 0.221502
Ni2   Ni    Ni4+2 0.880660 0.506580 0.890040 0.227470
Ni3   Ni    Ni4+2 0.872590 0.372590 0.000000 0.220143
Ni4   Ni    Ni4+2 0.127410 0.627410 0.000000 0.224974
C81   C     C_R   0.405472 0.503709 0.328973 0.089065
C82   C     C_R   0.314889 0.492689 0.341218 -0.188227
C83   C     C_R   0.322560 0.552630 0.427287 -0.096188
C84   C     C_R   0.420517 0.621565 0.502058 -0.108837
C85   C     C_R   0.510786 0.631409 0.490520 -0.122089
C86   C     C_R   0.503416 0.574447 0.403806 -0.114699
H45   H     H_    0.238585 0.437928 0.284411 0.109373
H46   H     H_    0.252637 0.544577 0.436321 0.105750
H47   H     H_    0.426544 0.666801 0.569037 0.110411
H48   H     H_    0.586615 0.683010 0.548860 0.136093
H49   H     H_    0.573783 0.583122 0.395555 0.138576
C87   C     C_R   0.448655 0.148749 0.605432 0.118478
C88   C     C_R   0.385888 0.094809 0.509237 -0.146640
C89   C     C_R   0.351901 0.987473 0.460483 -0.115858
C90   C     C_R   0.380590 0.933154 0.506991 -0.005847
C91   C     C_R   0.445121 0.986400 0.601995 -0.025616
C92   C     C_R   0.478988 0.093581 0.651152 -0.194149
H50   H     H_    0.360387 0.134877 0.472270 0.117913
H51   H     H_    0.302375 0.946187 0.386753 0.130168
H52   H     H_    0.353365 0.849848 0.469287 0.123777
H53   H     H_    0.468703 0.944525 0.637718 0.126190
H54   H     H_    0.528629 0.133314 0.724855 0.112050
C93   C     C_2   0.631762 0.529270 0.136987 0.491698
H55   H     H_    0.621808 0.506904 0.189439 -0.003620
O1    O     O_2   0.716177 0.598485 0.157730 -0.548616
C94   C     C_2   0.287216 0.387815 0.785695 0.502131
H56   H     H_    0.208404 0.351241 0.778109 0.036876
O2    O     O_2   0.298818 0.404286 0.722865 -0.583316
C95   C     C_2   0.252729 0.725010 0.615355 0.420388
H57   H     H_    0.315065 0.713914 0.655258 0.013672
O3    O     O_2   0.274283 0.789040 0.586690 -0.615740
C96   C     C_2   0.759751 0.546465 0.445192 0.467340
H58   H     H_    0.690071 0.494639 0.380186 -0.002231
O4    O     O_2   0.750370 0.587941 0.514850 -0.609962
C97   C     C_2   0.916601 0.920880 0.142671 0.516074
H59   H     H_    0.869226 0.947764 0.171334 0.034225
O5    O     O_2   0.936198 0.855140 0.159324 -0.552808
C98   C     C_2   0.087383 0.102789 0.932687 0.502029
H60   H     H_    0.158603 0.103954 0.929547 0.023757
O6    O     O_2   0.040428 0.134979 0.887127 -0.580726

loop_
_geom_bond_atom_site_label_1
_geom_bond_atom_site_label_2
_ccdc_geom_bond_type
C63   C65   A    
C3    C42   S    
C45   N5    A    
C88   C89   A    
C31   H5    S    
C48   H15   S    
C27   C29   A    
C34   C37   A    
C11   C13   A    
C7    C36   S    
C3    C23   A    
C83   C84   A    
C9    C14   A    
C19   C31   A    
C21   H7    S    
C81   C82   A    
C7    C73   A    
N6    N10   A    
C95   H57   S    
N1    N15   A    
C6    C72   A    
N2    N16   A    
N9    Ni2   S    
C19   C81   S    
C55   H25   S    
C24   H18   S    
C5    C53   S    
C87   C88   A    
C35   C37   A    
C1    N1    A    
N7    N11   A    
N14   Ni3   S    
C17   H27   S    
C4    C24   A    
C78   C80   A    
C43   C52   A    
C4    C41   S    
C1    H1    S    
C12   C79   S    
C16   H4    S    
C60   C62   A    
C17   C39   A    
C68   N8    A    
N4    N14   A    
C98   H60   S    
C65   H31   S    
N12   Ni2   S    
N15   Ni3   S    
C94   H56   S    
C73   N11   A    
N1    Ni1   S    
C49   C51   A    
C74   N12   A    
C50   C52   A    
C47   H16   S    
C22   H8    S    
C49   H14   S    
C3    C75   A    
N4    Ni1   S    
C81   C86   A    
C34   C94   S    
N8    Ni3   S    
C96   O4    D    
C33   C93   S    
C6    C54   S    
C53   C60   A    
C98   O6    D    
C54   C59   A    
C77   C79   A    
C15   C69   A    
C59   C61   A    
C71   H37   S    
C51   C52   A    
C44   C96   S    
C16   C70   A    
C84   C85   A    
C93   O1    D    
C75   N13   A    
C93   H55   S    
C46   H34   S    
C20   C87   S    
C15   H3    S    
C42   C49   A    
C5    C45   A    
N2    Ni2   S    
C97   H59   S    
C8    C35   S    
C64   C66   A    
C56   H26   S    
C63   H29   S    
C85   H48   S    
C40   H20   S    
C77   H43   S    
C25   C38   S    
C9    C97   S    
C64   H30   S    
C90   C91   A    
C90   H52   S    
N8    N12   A    
C32   H6    S    
C8    C74   A    
C71   N9    A    
C26   C37   S    
C91   H53   S    
C73   H39   S    
C72   N10   A    
C9    C11   A    
C15   C39   A    
C95   O3    D    
C10   C12   A    
C89   H51   S    
C16   C40   A    
N5    N9    A    
C2    N2    A    
C44   C51   A    
C30   H12   S    
C96   H58   S    
C23   H17   S    
N13   Ni4   S    
C68   H36   S    
C87   C92   A    
C8    C68   A    
C86   H49   S    
C55   C57   A    
C22   C26   A    
C89   C90   A    
C10   C98   S    
C14   C69   S    
C2    H2    S    
C84   H47   S    
C20   C22   A    
C60   H21   S    
C41   C50   A    
C29   H11   S    
N6    Ni4   S    
C23   N3    A    
C82   C83   A    
C20   C32   A    
C65   C69   A    
C57   H24   S    
C21   C25   A    
C6    C46   A    
C19   C21   A    
C75   H41   S    
C59   H22   S    
C67   H35   S    
C67   N7    A    
C77   N15   A    
C12   C14   A    
C10   C13   A    
C78   N16   A    
C46   N6    A    
C53   C58   A    
C50   H13   S    
N5    Ni3   S    
C76   N14   A    
C25   C27   A    
C74   H40   S    
C26   C28   A    
C33   C38   A    
C76   H42   S    
C91   C92   A    
C28   C30   A    
C83   H46   S    
C5    C71   A    
C85   C86   A    
C17   C63   A    
N10   Ni1   S    
C30   C32   A    
C43   C95   S    
C18   C64   A    
C66   C70   A    
C94   O2    D    
C1    C79   A    
C36   C38   A    
C33   C35   A    
C41   C48   A    
C56   C58   A    
C27   H9    S    
C34   C36   A    
C42   C47   A    
C61   C62   A    
C18   H28   S    
C4    C76   A    
C2    C80   A    
C11   C80   S    
C92   H54   S    
C7    C67   A    
C82   H45   S    
C45   H33   S    
C39   H19   S    
N11   Ni1   S    
C18   C40   A    
C55   C62   A    
C29   C31   A    
C13   C70   S    
C72   H38   S    
C24   N4    A    
C56   C61   A    
C28   H10   S    
C58   H23   S    
N3    N13   A    
C66   H32   S    
N16   Ni4   S    
C43   C47   A    
C88   H50   S    
N3    Ni2   S    
N7    Ni4   S    
C44   C48   A    
C78   H44   S    
C97   O5    D    
C54   C57   A    
