data_mof_unit_pretest_1152.cif
_audit_creation_date              2012-12-10T20:53:01-0500
_audit_creation_method            fapswitch 2.2
_symmetry_space_group_name_H-M    P1
_symmetry_Int_Tables_number       1
_space_group_crystal_system       triclinic
_cell_length_a                    18.333495
_cell_length_b                    18.349287
_cell_length_c                    18.333711
_cell_angle_alpha                 59.934324
_cell_angle_beta                  59.858967
_cell_angle_gamma                 59.88722
_cell_volume                      4350.59709759

loop_
_atom_site_label
_atom_site_type_symbol
_atom_type_description
_atom_site_fract_x
_atom_site_fract_y
_atom_site_fract_z
_atom_type_partial_charge
C1    C     C_R   0.389854 0.110306 0.110006 0.787175
C2    C     C_R   0.610057 0.889679 0.889971 0.787960
C3    C     C_R   0.110218 0.110074 0.389851 0.782203
C4    C     C_R   0.889766 0.889916 0.610039 0.778716
C5    C     C_R   0.110006 0.389844 0.110306 0.783445
C6    C     C_R   0.889790 0.610078 0.889879 0.782585
C7    C     C_R   0.132036 0.662909 0.166220 -0.143918
C8    C     C_R   0.875545 0.331042 0.832512 -0.144784
C9    C     C_R   0.647511 0.191109 0.193068 -0.145278
C10   C     C_R   0.335408 0.816514 0.833638 -0.149311
C11   C     C_R   0.168712 0.138482 0.664375 -0.147882
C12   C     C_R   0.832644 0.915055 0.313499 -0.159038
C13   C     C_R   0.111656 0.620047 0.258553 -0.157608
C14   C     C_R   0.896930 0.372832 0.739997 -0.176578
C15   C     C_R   0.597976 0.279887 0.157825 -0.169787
C16   C     C_R   0.380476 0.725337 0.866549 -0.190936
C17   C     C_R   0.260824 0.116686 0.619180 -0.162020
C18   C     C_R   0.741088 0.928953 0.356384 -0.191130
C19   C     C_R   0.037113 0.590967 0.309591 0.106467
C20   C     C_R   0.966259 0.409311 0.690388 0.116029
C21   C     C_R   0.590890 0.311759 0.073431 0.119598
C22   C     C_R   0.407720 0.690708 0.940137 0.118271
C23   C     C_R   0.309202 0.041050 0.592006 0.109181
C24   C     C_R   0.688404 0.982256 0.411561 0.098663
C25   C     C_R   0.981561 0.606561 0.266960 0.223059
C26   C     C_R   0.015871 0.401944 0.734678 0.225194
C27   C     C_R   0.634666 0.253139 0.023736 0.229262
C28   C     C_R   0.387961 0.748951 0.982001 0.241336
C29   C     C_R   0.264103 0.985959 0.611605 0.217340
C30   C     C_R   0.728747 0.024186 0.421687 0.229368
C31   C     C_R   0.003044 0.650305 0.173910 -0.134279
C32   C     C_R   0.993262 0.359652 0.827926 -0.139734
C33   C     C_R   0.683048 0.163509 0.061134 -0.150508
C34   C     C_R   0.342725 0.840670 0.947612 -0.145053
C35   C     C_R   0.171241 0.008977 0.657430 -0.135799
C36   C     C_R   0.821461 0.008154 0.378795 -0.103426
C37   C     C_R   0.077965 0.677813 0.123990 -0.144572
C38   C     C_R   0.923400 0.324747 0.876401 -0.135626
C39   C     C_R   0.689443 0.132860 0.145139 -0.155737
C40   C     C_R   0.316802 0.874093 0.873888 -0.149235
C41   C     C_R   0.123980 0.084843 0.683264 -0.143509
C42   C     C_R   0.872816 0.954153 0.325097 -0.143457
C43   C     C_R   0.968420 0.592943 0.462807 -0.275944
C44   C     C_R   0.033923 0.407132 0.537105 -0.268314
C45   C     C_R   0.592290 0.463970 0.982652 -0.280375
C46   C     C_R   0.406855 0.537073 0.023723 -0.270296
C47   C     C_R   0.462684 0.969056 0.593313 -0.279357
C48   C     C_R   0.536505 0.039923 0.407997 -0.264162
C49   C     C_R   0.948403 0.552137 0.555384 -0.062047
C50   C     C_R   0.053679 0.447919 0.444545 -0.040006
C51   C     C_R   0.551550 0.556061 0.948525 -0.060125
C52   C     C_R   0.447801 0.444688 0.056690 -0.044748
C53   C     C_R   0.555062 0.951327 0.552656 -0.060421
C54   C     C_R   0.444311 0.056091 0.448363 -0.040208
C55   C     C_R   0.982824 0.457870 0.593084 0.011795
C56   C     C_R   0.020531 0.542241 0.406790 -0.007666
C57   C     C_R   0.457086 0.593568 0.971341 0.011999
C58   C     C_R   0.541811 0.407769 0.036999 -0.006209
C59   C     C_R   0.592208 0.990772 0.459024 -0.002402
C60   C     C_R   0.406585 0.022129 0.542729 -0.007926
C61   C     C_R   0.109623 0.390498 0.389695 0.786557
C62   C     C_R   0.890861 0.609509 0.610303 0.780626
C63   C     C_R   0.390575 0.389650 0.110853 0.783415
C64   C     C_R   0.609338 0.610471 0.890383 0.778942
C65   C     C_R   0.389689 0.110111 0.390629 0.789494
C66   C     C_R   0.610253 0.891632 0.609591 0.787734
C67   C     C_R   0.179500 0.928281 0.396305 -0.158439
C68   C     C_R   0.818479 0.073532 0.598360 -0.149085
C69   C     C_R   0.930107 0.391210 0.177219 -0.160438
C70   C     C_R   0.071167 0.604805 0.821349 -0.157780
C71   C     C_R   0.436139 0.187972 0.919031 -0.156619
C72   C     C_R   0.556692 0.811541 0.081204 -0.166590
C73   C     C_R   0.214328 0.839783 0.400103 -0.144321
C74   C     C_R   0.783032 0.162612 0.592980 -0.138165
C75   C     C_R   0.842698 0.392111 0.210770 -0.143057
C76   C     C_R   0.158798 0.603412 0.787540 -0.146449
C77   C     C_R   0.459932 0.226569 0.826249 -0.149215
C78   C     C_R   0.531172 0.772875 0.174043 -0.139668
C79   C     C_R   0.161128 0.785814 0.454851 -0.152587
C80   C     C_R   0.836698 0.216160 0.539506 -0.155998
C81   C     C_R   0.788820 0.446479 0.157497 -0.149550
C82   C     C_R   0.212117 0.550479 0.841388 -0.154786
C83   C     C_R   0.515695 0.172951 0.772560 -0.152530
C84   C     C_R   0.478015 0.826643 0.227627 -0.153168
C85   C     C_R   0.072717 0.820187 0.505778 -0.154157
C86   C     C_R   0.926076 0.180906 0.491125 -0.155182
C87   C     C_R   0.822153 0.500058 0.070353 -0.151426
C88   C     C_R   0.178141 0.498519 0.929245 -0.150615
C89   C     C_R   0.547255 0.080400 0.811410 -0.147967
C90   C     C_R   0.449921 0.919363 0.188666 -0.149002
C91   C     C_R   0.035380 0.910296 0.502324 0.072045
C92   C     C_R   0.963822 0.090407 0.495717 0.071664
C93   C     C_R   0.911251 0.499517 0.034218 0.073049
C94   C     C_R   0.088921 0.499367 0.965536 0.073764
C95   C     C_R   0.523484 0.039601 0.905565 0.073720
C96   C     C_R   0.474675 0.960221 0.094486 0.075017
C97   C     C_R   0.089712 0.964938 0.447336 0.062422
C98   C     C_R   0.909244 0.035992 0.550037 0.065139
C99   C     C_R   0.965869 0.444675 0.088571 0.062788
C100  C     C_R   0.034607 0.553455 0.910876 0.066964
C101  C     C_R   0.468076 0.094167 0.960055 0.069211
C102  C     C_R   0.528859 0.905586 0.040043 0.067557
C103  C     C_R   0.945732 0.946150 0.553556 -0.165335
C104  C     C_R   0.053901 0.054147 0.445595 -0.163361
C105  C     C_R   0.945987 0.553662 0.945904 -0.165386
C106  C     C_R   0.053971 0.445754 0.054093 -0.165166
C107  C     C_R   0.553624 0.945802 0.946035 -0.157173
C108  C     C_R   0.445614 0.054094 0.053972 -0.157068
H1    H     H_    0.808872 0.285487 0.535076 0.130479
H2    H     H_    0.188538 0.716883 0.458158 0.130246
H3    H     H_    0.280389 0.549055 0.814777 0.127659
H4    H     H_    0.720686 0.447579 0.183942 0.129593
H5    H     H_    0.458312 0.796422 0.299719 0.124092
H6    H     H_    0.534369 0.203126 0.700502 0.125710
H7    H     H_    0.942511 0.664990 0.433370 0.177992
H8    H     H_    0.059259 0.335064 0.566519 0.171926
H9    H     H_    0.664291 0.434938 0.967451 0.175832
H10   H     H_    0.334868 0.566150 0.038976 0.173336
H11   H     H_    0.433411 0.941338 0.665217 0.180302
H12   H     H_    0.565542 0.066882 0.336147 0.177785
H13   H     H_    0.224161 0.966973 0.353792 0.133606
H14   H     H_    0.773687 0.034962 0.640098 0.119122
H15   H     H_    0.968529 0.349073 0.222105 0.137505
H16   H     H_    0.033038 0.645890 0.776176 0.128316
H17   H     H_    0.392886 0.232408 0.958049 0.117111
H18   H     H_    0.597925 0.767019 0.042252 0.114036
H19   H     H_    0.283091 0.812828 0.360845 0.134679
H20   H     H_    0.713505 0.190276 0.630164 0.132100
H21   H     H_    0.816468 0.350960 0.278672 0.134903
H22   H     H_    0.185599 0.643146 0.719049 0.135166
H23   H     H_    0.435281 0.298430 0.795920 0.130892
H24   H     H_    0.552733 0.700875 0.204501 0.130048
H25   H     H_    0.034430 0.775155 0.548036 0.125063
H26   H     H_    0.964673 0.225665 0.449528 0.125416
H27   H     H_    0.776983 0.542152 0.032225 0.127719
H28   H     H_    0.223004 0.457195 0.967705 0.128054
H29   H     H_    0.590159 0.041380 0.766945 0.110276
H30   H     H_    0.408345 0.958449 0.233081 0.111875
H31   H     H_    0.093990 0.711003 0.052386 0.140236
H32   H     H_    0.906418 0.292610 0.948182 0.140578
H33   H     H_    0.727511 0.063941 0.172849 0.144778
H34   H     H_    0.282146 0.944821 0.847906 0.140977
H35   H     H_    0.052529 0.101897 0.718302 0.138636
H36   H     H_    0.944033 0.942459 0.292539 0.141053
H37   H     H_    0.189954 0.684448 0.127184 0.140804
H38   H     H_    0.821419 0.303964 0.870369 0.127802
H39   H     H_    0.653550 0.167425 0.257613 0.140681
H40   H     H_    0.315112 0.842647 0.776636 0.131274
H41   H     H_    0.131956 0.197063 0.684772 0.140469
H42   H     H_    0.872682 0.873188 0.271821 0.138909
H43   H     H_    0.154714 0.608325 0.290301 0.132256
H44   H     H_    0.858417 0.378181 0.707015 0.129924
H45   H     H_    0.565925 0.324336 0.195846 0.124546
H46   H     H_    0.394908 0.681571 0.834180 0.129375
H47   H     H_    0.294588 0.159218 0.604644 0.132450
H48   H     H_    0.711248 0.896942 0.347680 0.137149
H49   H     H_    0.961549 0.663158 0.139867 0.137539
H50   H     H_    0.029859 0.353638 0.863283 0.134773
H51   H     H_    0.716912 0.117477 0.024510 0.135359
H52   H     H_    0.327392 0.886532 0.978017 0.133385
H53   H     H_    0.135324 0.967828 0.673404 0.137407
H54   H     H_    0.854343 0.037093 0.387497 0.138265
O1    O     O_3   0.250000 0.250000 0.250000 -0.483957
O2    O     O_3   0.750000 0.750000 0.750000 -0.480989
O3    O     O_R   0.305080 0.134200 0.134200 -0.636165
O4    O     O_R   0.694920 0.865800 0.865800 -0.634731
O5    O     O_R   0.134200 0.134200 0.305080 -0.640466
O6    O     O_R   0.865800 0.865800 0.694920 -0.637318
O7    O     O_R   0.134200 0.305080 0.134200 -0.637972
O8    O     O_R   0.865800 0.694920 0.865800 -0.636243
O9    O     O_R   0.134200 0.305090 0.426530 -0.646369
O10   O     O_R   0.865800 0.694910 0.573470 -0.642400
O11   O     O_R   0.305090 0.426530 0.134200 -0.646001
O12   O     O_R   0.694910 0.573470 0.865800 -0.640875
O13   O     O_R   0.426530 0.134200 0.305090 -0.641200
O14   O     O_R   0.573470 0.865800 0.694910 -0.639924
O15   O     O_R   0.134190 0.426530 0.134200 -0.636051
O16   O     O_R   0.865810 0.573470 0.865800 -0.643323
O17   O     O_R   0.426530 0.134200 0.134190 -0.640254
O18   O     O_R   0.573470 0.865800 0.865810 -0.645768
O19   O     O_R   0.134200 0.134190 0.426530 -0.635022
O20   O     O_R   0.865800 0.865810 0.573470 -0.645148
O21   O     O_R   0.426530 0.305080 0.134210 -0.635475
O22   O     O_R   0.573470 0.694920 0.865790 -0.644299
O23   O     O_R   0.305080 0.134210 0.426530 -0.631864
O24   O     O_R   0.694920 0.865790 0.573470 -0.637651
O25   O     O_R   0.134210 0.426530 0.305080 -0.630641
O26   O     O_R   0.865790 0.573470 0.694920 -0.637817
Zn1   Zn    Zn3+2 0.206620 0.206630 0.380140 0.959940
Zn2   Zn    Zn3+2 0.793380 0.793370 0.619860 0.956548
Zn3   Zn    Zn3+2 0.206630 0.380140 0.206620 0.959107
Zn4   Zn    Zn3+2 0.793370 0.619860 0.793380 0.957704
Zn5   Zn    Zn3+2 0.380140 0.206620 0.206630 0.959514
Zn6   Zn    Zn3+2 0.619860 0.793380 0.793370 0.955376
Zn7   Zn    Zn3+2 0.206620 0.206620 0.206620 0.952392
Zn8   Zn    Zn3+2 0.793380 0.793380 0.793380 0.954917
C109  C     C_3   0.899441 0.578320 0.318087 -0.466934
C110  C     C_3   0.913317 0.501373 0.296057 -0.835733
H55   H     H_    0.925965 0.521965 0.223743 0.263152
H56   H     H_    0.970764 0.442529 0.313845 0.250673
H57   H     H_    0.852349 0.481795 0.334776 0.239137
H58   H     H_    0.881567 0.557264 0.391479 0.215163
H59   H     H_    0.841283 0.636196 0.300435 0.201964
C111  C     C_3   0.092250 0.438424 0.684764 -0.431995
C112  C     C_3   0.179122 0.371474 0.645886 -0.892870
H60   H     H_    0.195981 0.307649 0.700109 0.258897
H61   H     H_    0.173021 0.358090 0.596853 0.261686
H62   H     H_    0.234466 0.398960 0.611236 0.253175
H63   H     H_    0.077034 0.502652 0.630439 0.200649
H64   H     H_    0.102196 0.453020 0.730538 0.205159
C113  C     C_3   0.632500 0.283723 0.931117 -0.489152
C114  C     C_3   0.571682 0.248559 0.932944 -0.797224
H65   H     H_    0.594964 0.174368 0.959166 0.264895
H66   H     H_    0.501905 0.274826 0.975436 0.261442
H67   H     H_    0.572538 0.271093 0.863986 0.240509
H68   H     H_    0.608988 0.357594 0.901293 0.217188
H69   H     H_    0.701369 0.259241 0.885951 0.197721
C115  C     C_3   0.415673 0.715877 0.061344 -0.412337
C116  C     C_3   0.347574 0.679599 0.148757 -0.912702
H70   H     H_    0.280688 0.732379 0.157764 0.259481
H71   H     H_    0.342809 0.621356 0.149351 0.264555
H72   H     H_    0.368705 0.657801 0.205716 0.255035
H73   H     H_    0.482687 0.663395 0.054109 0.201562
H74   H     H_    0.421581 0.771268 0.065068 0.212049
C117  C     C_3   0.312413 0.902690 0.585678 -0.477208
C118  C     C_3   0.288026 0.915517 0.510791 -0.825020
H75   H     H_    0.215117 0.929731 0.532721 0.263163
H76   H     H_    0.306830 0.971506 0.450396 0.253025
H77   H     H_    0.324543 0.853641 0.492992 0.236648
H78   H     H_    0.386152 0.883516 0.563404 0.216482
H79   H     H_    0.293937 0.845785 0.645029 0.196389
C119  C     C_3   0.676582 0.083013 0.479588 -0.441028
C120  C     C_3   0.675128 0.179246 0.424301 -0.898685
H80   H     H_    0.743863 0.182668 0.390841 0.260743
H81   H     H_    0.643771 0.207902 0.373090 0.255707
H82   H     H_    0.635327 0.220228 0.468913 0.251116
H83   H     H_    0.606250 0.084588 0.516265 0.206779
H84   H     H_    0.707789 0.055541 0.530675 0.199639

loop_
_geom_bond_atom_site_label_1
_geom_bond_atom_site_label_2
_ccdc_geom_bond_type
C19   C56   S    
C25   C31   A    
C7    C13   A    
C36   H54   S    
C26   C32   A    
C84   H5    S    
O15   Zn3   S    
C40   H34   S    
C89   C95   A    
C95   C107  A    
C36   C42   A    
C29   C117  S    
C16   C22   A    
C6    C105  S    
C22   C57   S    
C53   C59   A    
C92   C98   A    
C115  H73   S    
O7    Zn7   S    
C54   C65   S    
C54   C60   A    
C112  H60   S    
C27   C33   A    
C48   C54   A    
O9    Zn1   S    
C100  C105  A    
C35   H53   S    
C8    C38   A    
C45   C51   A    
C34   C40   A    
C70   H16   S    
C23   C29   A    
O4    Zn8   S    
C41   H35   S    
C96   C102  A    
C32   C38   A    
O17   Zn5   S    
O22   Zn6   S    
O1    Zn5   S    
C68   C74   A    
C98   C103  A    
C4    C103  S    
C46   C52   A    
C2    C107  S    
C9    C39   A    
C46   H10   S    
C10   C40   A    
C77   H23   S    
C30   C119  S    
C78   H24   S    
C80   C86   A    
C43   H7    S    
C47   C60   A    
C81   C87   A    
O19   Zn1   S    
C86   H26   S    
C74   H20   S    
C39   H33   S    
C4    O6    A    
C111  H63   S    
C95   C101  A    
C72   C78   A    
C81   H4    S    
C11   C41   A    
C110  H55   S    
C67   C73   A    
C94   C100  A    
C120  H80   S    
C93   C99   A    
O25   Zn3   S    
C87   H27   S    
C47   C53   A    
C93   C105  A    
C101  C108  A    
C47   H11   S    
C113  H68   S    
C96   C108  A    
C28   C34   A    
C74   C80   A    
C6    O16   A    
O18   Zn6   S    
C119  H84   S    
C111  C112  S    
C83   H6    S    
C66   O14   A    
C10   H40   S    
C84   C90   A    
C20   C55   S    
O2    Zn2   S    
C67   H13   S    
C27   C113  S    
C90   H30   S    
C70   C100  A    
C69   C75   A    
C63   O11   A    
C65   O23   A    
C5    C106  S    
C112  H61   S    
C85   C91   A    
C23   C60   S    
C83   C89   A    
C88   C94   A    
C45   C58   A    
C63   O21   A    
C13   C19   A    
C12   C42   A    
C14   C20   A    
C102  C107  A    
C88   H28   S    
C18   C24   A    
C48   H12   S    
C68   H14   S    
C3    C104  S    
C92   C104  A    
C43   C49   A    
O10   Zn2   S    
C73   H19   S    
O11   Zn3   S    
C77   C83   A    
C50   C56   A    
C31   C37   A    
C72   H18   S    
C80   H1    S    
O3    Zn7   S    
C26   C111  S    
C71   C101  A    
C12   H42   S    
C116  H71   S    
O16   Zn4   S    
C43   C56   A    
C72   C102  A    
C113  C114  S    
C17   C23   A    
C114  H67   S    
O1    Zn7   S    
C5    O15   A    
C110  H57   S    
C12   C18   A    
C117  C118  S    
C7    C37   A    
C109  H58   S    
O1    Zn1   S    
C33   C39   A    
C91   C97   A    
O23   Zn1   S    
C53   C66   S    
C120  H81   S    
C13   H43   S    
C31   H49   S    
C35   C41   A    
C52   C58   A    
C3    O19   A    
C61   O9    A    
C69   C99   A    
C113  H69   S    
C114  H66   S    
C37   H31   S    
C118  H76   S    
C66   O24   A    
C69   H15   S    
C16   H46   S    
C119  H83   S    
C8    C14   A    
C24   C30   A    
C70   C76   A    
C76   C82   A    
C86   C92   A    
C71   C77   A    
C18   H48   S    
C48   C59   A    
C62   O26   A    
C6    O8    A    
C112  H62   S    
C45   H9    S    
C116  H70   S    
C99   C106  A    
C2    O4    A    
C94   C106  A    
C28   C115  S    
C49   C62   S    
C79   H2    S    
C1    O3    A    
C3    O5    A    
O5    Zn7   S    
C8    H38   S    
C51   C64   S    
C91   C103  A    
C110  H56   S    
C73   C79   A    
C52   C63   S    
C11   C17   A    
O1    Zn3   S    
O2    Zn8   S    
C90   C96   A    
C75   C81   A    
C38   H32   S    
C34   H52   S    
C118  H77   S    
C62   O10   A    
C29   C35   A    
C89   H29   S    
C117  H78   S    
C2    O18   A    
C30   C36   A    
O26   Zn4   S    
C4    O20   A    
C82   H3    S    
C111  H64   S    
C9    C15   A    
C117  H79   S    
C21   C58   S    
C46   C57   A    
C10   C16   A    
O12   Zn4   S    
C116  H72   S    
O8    Zn8   S    
C1    O17   A    
C44   C55   A    
C115  C116  S    
C20   C26   A    
C24   C59   S    
C82   C88   A    
C87   C93   A    
C119  C120  S    
O21   Zn5   S    
C79   C85   A    
C9    H39   S    
C109  H59   S    
O2    Zn6   S    
C115  H74   S    
C49   C55   A    
C21   C27   A    
C109  C110  S    
C19   C25   A    
C120  H82   S    
C68   C98   A    
C78   C84   A    
C15   H45   S    
C97   C104  A    
C25   C109  S    
C42   H36   S    
C67   C97   A    
C1    C108  S    
C64   O22   A    
C61   O25   A    
C75   H21   S    
C51   C57   A    
C15   C21   A    
C114  H65   S    
C44   H8    S    
C44   C50   A    
C11   H41   S    
C118  H75   S    
O6    Zn8   S    
C14   H44   S    
C50   C61   S    
C5    O7    A    
C71   H17   S    
C22   C28   A    
O24   Zn2   S    
O20   Zn2   S    
O14   Zn6   S    
O2    Zn4   S    
C64   O12   A    
O13   Zn5   S    
C32   H50   S    
C65   O13   A    
C76   H22   S    
C33   H51   S    
C85   H25   S    
C7    H37   S    
C17   H47   S    
