data_mof_unit_pretest_741.cif
_audit_creation_date              2013-03-05T15:42:21-0500
_audit_creation_method            fapswitch 2.2
_symmetry_space_group_name_H-M    P1
_symmetry_Int_Tables_number       1
_space_group_crystal_system       triclinic
_cell_length_a                    16.866472
_cell_length_b                    16.751143
_cell_length_c                    19.434246
_cell_angle_alpha                 117.81445
_cell_angle_beta                  62.297803
_cell_angle_gamma                 100.937538
_cell_volume                      4297.16638279

loop_
_atom_site_label
_atom_site_type_symbol
_atom_site_description
_atom_site_fract_x
_atom_site_fract_y
_atom_site_fract_z
_atom_type_partial_charge
C1    C     C_R   0.023840 0.761560 0.028450 -0.123841
H1    H     H_    0.054966 0.811715 0.067549 0.096252
N1    N     N_R   0.036080 0.671900 0.995420 -0.039920
C2    C     C_R   0.748284 0.479351 0.172054 -0.126370
H2    H     H_    0.695193 0.457025 0.151774 0.100895
N2    N     N_R   0.834710 0.454650 0.119760 -0.041771
C3    C     C_R   0.816522 0.509601 0.912048 -0.128048
H3    H     H_    0.839779 0.531091 0.861490 0.083702
N3    N     N_R   0.867430 0.509300 0.948100 -0.038759
C4    C     C_R   0.011958 0.659344 0.240725 -0.145170
H4    H     H_    0.997597 0.627866 0.282533 0.088139
N4    N     N_R   0.003360 0.617250 0.167070 -0.038905
C5    C     C_R   0.749521 0.430731 0.987993 -0.143107
H5    H     H_    0.711467 0.379780 0.008162 0.100953
N5    N     N_R   0.825450 0.461270 0.995400 -0.039236
C6    C     C_R   0.079144 0.738322 0.164923 -0.139284
H6    H     H_    0.126523 0.780530 0.137380 0.089400
N6    N     N_R   0.045340 0.665280 0.119770 -0.038821
C7    C     C_R   0.827643 0.549067 0.248551 -0.132474
H7    H     H_    0.848141 0.591457 0.299114 0.096814
N7    N     N_R   0.883740 0.497640 0.167070 -0.042085
C8    C     C_R   0.944738 0.691839 0.951506 -0.130827
H8    H     H_    0.901235 0.677266 0.920528 0.093040
N8    N     N_R   0.987050 0.628910 0.948110 -0.039701
C9    C     C_R   0.965272 0.776791 0.002957 0.056133
C10   C     C_R   0.741646 0.540726 0.253544 0.073246
C11   C     C_R   0.741923 0.459383 0.935011 0.061887
C12   C     C_R   0.060443 0.735913 0.241334 0.083311
C13   C     C_R   0.261472 0.515225 0.958890 -0.129593
H9    H     H_    0.309173 0.542767 0.915609 0.095499
N9    N     N_R   0.174550 0.538730 0.004600 -0.042165
C14   C     C_R   0.979151 0.247413 0.827572 -0.117073
H10   H     H_    0.956193 0.193402 0.846772 0.093658
N10   N     N_R   0.954660 0.334720 0.880230 -0.040621
C15   C     C_R   0.157918 0.511584 0.759451 -0.145968
H11   H     H_    0.126995 0.496815 0.717235 0.087110
N11   N     N_R   0.116260 0.502360 0.832930 -0.038716
C16   C     C_R   0.025180 0.313360 0.076561 -0.132472
H12   H     H_    0.051344 0.331383 0.123033 0.098891
N12   N     N_R   0.012950 0.371090 0.051890 -0.041442
C17   C     C_R   0.946908 0.245065 0.001560 -0.136586
H13   H     H_    0.900550 0.199870 0.978640 0.095634
N13   N     N_R   0.963920 0.328100 0.004580 -0.040467
C18   C     C_R   0.236602 0.580395 0.835337 -0.143856
H14   H     H_    0.278055 0.628966 0.863020 0.088879
N14   N     N_R   0.165290 0.545350 0.880240 -0.038401
C19   C     C_R   0.194334 0.436840 0.036318 -0.129730
H15   H     H_    0.181291 0.391607 0.065216 0.100315
N15   N     N_R   0.132570 0.490700 0.051900 -0.041827
C20   C     C_R   0.048162 0.326886 0.751535 -0.129841
H16   H     H_    0.089959 0.347905 0.701325 0.096641
N16   N     N_R   0.996640 0.382750 0.832930 -0.042001
Ni1   Ni    Ni4+2 0.104370 0.604370 0.000010 0.213588
Ni2   Ni    Ni4+2 0.895630 0.395630 0.999990 0.219996
Ni3   Ni    Ni4+2 0.991920 0.505780 0.891500 0.211861
Ni4   Ni    Ni4+2 0.008080 0.494220 0.108500 0.213127
C21   C     C_R   0.276038 0.448612 0.975529 0.095693
C22   C     C_R   0.040787 0.240627 0.746387 0.072305
C23   C     C_R   0.233921 0.560825 0.758925 0.085613
C24   C     C_R   0.985715 0.232262 0.045038 0.078326
C25   C     C_R   0.142378 0.161663 0.589939 -0.251238
C26   C     C_R   0.087062 0.158000 0.669147 0.114744
C27   C     C_R   0.067267 0.073902 0.671756 -0.249351
C28   C     C_R   0.086726 0.995023 0.595378 0.140213
C29   C     C_R   0.129559 0.000724 0.515922 0.027854
C30   C     C_R   0.162107 0.083560 0.512953 0.137014
C31   C     C_R   0.054789 0.912344 0.597767 -0.198140
C32   C     C_R   0.056099 0.838257 0.523255 -0.204746
C33   C     C_R   0.089346 0.846602 0.446107 0.142237
C34   C     C_R   0.130687 0.926350 0.441090 0.029082
C35   C     C_R   0.164154 0.935263 0.363738 0.138196
C36   C     C_R   0.205422 0.014773 0.359311 -0.198699
C37   C     C_R   0.204551 0.088738 0.433753 -0.198948
C38   C     C_R   0.073721 0.780419 0.376916 -0.256885
C39   C     C_R   0.096659 0.794204 0.303919 0.113409
C40   C     C_R   0.147740 0.868458 0.295120 -0.256587
H17   H     H_    0.162854 0.225611 0.586966 0.119389
H18   H     H_    0.029112 0.069597 0.732531 0.119655
H19   H     H_    0.023066 0.906768 0.658232 0.130935
H20   H     H_    0.025543 0.776631 0.527408 0.128696
H21   H     H_    0.037084 0.722192 0.383867 0.116401
H22   H     H_    0.168724 0.878668 0.238153 0.120041
H23   H     H_    0.232895 0.021818 0.299798 0.138043
H24   H     H_    0.231173 0.151722 0.430506 0.135103
C41   C     C_R   0.281181 0.571178 0.621317 -0.258672
C42   C     C_R   0.293231 0.595690 0.695476 0.112559
C43   C     C_R   0.367205 0.646543 0.704622 -0.254373
C44   C     C_R   0.434916 0.661461 0.635814 0.139053
C45   C     C_R   0.427292 0.627010 0.557767 0.029011
C46   C     C_R   0.348271 0.585606 0.551912 0.140589
C47   C     C_R   0.513735 0.702559 0.641099 -0.196376
C48   C     C_R   0.587955 0.701143 0.567069 -0.199143
C49   C     C_R   0.583748 0.658516 0.487371 0.138403
C50   C     C_R   0.501888 0.625583 0.483360 0.028295
C51   C     C_R   0.497090 0.582743 0.403466 0.134993
C52   C     C_R   0.415430 0.550246 0.400019 -0.192723
C53   C     C_R   0.341226 0.551600 0.474047 -0.203408
C54   C     C_R   0.661725 0.639612 0.410942 -0.252827
C55   C     C_R   0.658930 0.585251 0.331066 0.113295
C56   C     C_R   0.575722 0.564462 0.327672 -0.249023
H25   H     H_    0.223352 0.534514 0.614033 0.116750
H26   H     H_    0.376429 0.668624 0.762236 0.118366
H27   H     H_    0.519856 0.730591 0.701128 0.134445
H28   H     H_    0.650176 0.727940 0.571147 0.133030
H29   H     H_    0.724884 0.660371 0.414690 0.119061
H30   H     H_    0.571902 0.526759 0.266571 0.123774
H31   H     H_    0.410589 0.518408 0.339162 0.140853
H32   H     H_    0.280289 0.520944 0.469127 0.132624
C57   C     C_R   0.674775 0.431140 0.900609 0.103872
C58   C     C_R   0.362515 0.403608 0.939114 0.079580
C59   C     C_R   0.454732 0.321264 0.952394 0.325846
C60   C     C_R   0.370549 0.343664 0.967469 -0.294161
C61   C     C_R   0.439632 0.428900 0.883203 -0.263929
C62   C     C_R   0.522956 0.414435 0.874055 0.160130
C63   C     C_R   0.530080 0.365330 0.913680 0.004371
C64   C     C_R   0.607508 0.373002 0.924957 -0.191460
C65   C     C_R   0.671682 0.469104 0.850994 -0.164471
C66   C     C_R   0.596452 0.459530 0.836581 -0.182856
H33   H     H_    0.610236 0.342200 0.961637 0.157813
H34   H     H_    0.723751 0.511846 0.828744 0.111540
H35   H     H_    0.592191 0.495354 0.804114 0.119819
H36   H     H_    0.311609 0.317003 0.004283 0.168176
H37   H     H_    0.435082 0.469898 0.855574 0.122855
C67   C     C_R   0.802398 0.186654 0.189331 0.111982
C68   C     C_R   0.927502 0.865249 0.029523 0.128942
C69   C     C_R   0.846001 0.954536 0.011812 -0.222242
C70   C     C_R   0.886409 0.872864 0.984158 -0.169581
C71   C     C_R   0.928901 0.941911 0.102539 -0.270971
C72   C     C_R   0.888034 0.024102 0.131005 0.185792
C73   C     C_R   0.845587 0.030231 0.085584 0.185068
C74   C     C_R   0.802796 0.111804 0.115353 -0.274049
C75   C     C_R   0.844886 0.180963 0.233827 -0.163759
C76   C     C_R   0.887631 0.100090 0.204959 -0.216972
H38   H     H_    0.769679 0.117820 0.081692 0.129777
H39   H     H_    0.844405 0.239390 0.290917 0.124233
H40   H     H_    0.814331 0.958233 0.975939 0.130772
H41   H     H_    0.919840 0.096802 0.240580 0.131892
H42   H     H_    0.885168 0.815637 0.927135 0.115665
H43   H     H_    0.959486 0.937380 0.138834 0.122686
N17   N     N_R   0.461577 0.259509 0.981868 0.231804
O1    O     O_R   0.395128 0.252654 0.048723 -0.407989
O2    O     O_R   0.528443 0.200987 0.935011 -0.406980

loop_
_geom_bond_atom_site_label_1
_geom_bond_atom_site_label_2
_geom_bond_distance
_ccdc_geom_bond_type
C32   H20   1.083953 S    
C43   C44   1.392326 A    
C22   C26   1.469674 S    
C49   C50   1.409833 A    
C51   C52   1.401800 A    
N1    Ni1   1.816146 S    
C17   H13   1.080467 S    
C59   C60   1.398386 A    
C14   C22   1.391211 A    
C74   H38   1.082917 S    
C71   C72   1.404110 A    
C62   C63   1.413780 A    
C57   C65   1.403024 A    
C3    H3    1.080278 S    
C19   N15   1.341378 A    
C41   C42   1.405511 A    
N8    Ni3   1.825910 S    
C76   H41   1.083503 S    
C69   C70   1.397196 A    
C54   H29   1.081186 S    
C7    N7    1.337205 A    
C71   H43   1.082831 S    
N17   O2    1.301452 A    
C72   C73   1.415045 A    
C16   H12   1.080314 S    
C6    H6    1.079854 S    
C69   C73   1.400317 A    
C18   C23   1.384655 A    
C29   C34   1.399975 A    
C54   C55   1.404893 A    
C3    C11   1.384385 A    
C67   C75   1.396252 A    
C15   C23   1.384991 A    
C1    H1    1.080103 S    
C45   C50   1.400794 A    
C7    C10   1.392000 A    
C9    C68   1.485438 S    
N6    Ni1   1.861232 S    
C53   H32   1.083722 S    
C25   C30   1.391584 A    
N12   N13   1.382337 A    
C19   H15   1.075615 S    
C25   H17   1.081154 S    
C32   C33   1.402177 A    
N12   Ni4   1.825910 S    
C8    C9    1.397104 A    
C68   C71   1.407956 A    
C20   N16   1.334999 A    
C34   C35   1.410403 A    
N3    Ni3   1.860448 S    
C70   H42   1.081691 S    
C46   C53   1.401993 A    
C6    C12   1.386319 A    
C57   C64   1.403992 A    
N16   Ni3   1.827043 S    
C10   C55   1.471211 S    
C69   H40   1.083646 S    
C5    H5    1.079096 S    
C1    C9    1.398212 A    
C17   N13   1.344807 A    
N1    N8    1.382336 A    
C33   C34   1.408940 A    
N9    N15   1.364740 A    
C18   N14   1.336825 A    
C59   N17   1.439226 S    
C38   C39   1.406090 A    
C31   C32   1.393255 A    
C20   C22   1.386281 A    
C28   C31   1.401470 A    
C31   H19   1.083853 S    
N17   O1    1.301497 A    
C2    N2    1.337170 A    
C65   H34   1.080794 S    
C40   H22   1.081495 S    
C47   C48   1.393729 A    
C51   C56   1.392571 A    
C2    H2    1.077284 S    
C30   C37   1.402030 A    
C67   C74   1.396809 A    
C1    N1    1.343551 A    
C66   H35   1.084092 S    
C14   N10   1.340257 A    
C39   C40   1.404813 A    
N5    Ni2   1.817053 S    
C60   H36   1.080740 S    
C13   H9    1.076920 S    
C19   C21   1.390769 A    
C43   H26   1.080898 S    
N13   Ni2   1.816145 S    
C55   C56   1.405131 A    
C61   H37   1.080867 S    
C44   C47   1.401951 A    
C52   C53   1.393898 A    
C26   C27   1.403930 A    
C20   H16   1.077017 S    
C33   C38   1.390712 A    
N4    Ni4   1.827043 S    
N9    Ni1   1.817051 S    
C58   C61   1.399445 A    
C62   C66   1.398693 A    
C4    N4    1.333971 A    
C16   C24   1.386793 A    
C52   H31   1.083748 S    
C13   C21   1.387325 A    
N2    Ni2   1.861557 S    
C50   C51   1.409716 A    
C5    N5    1.332882 A    
C72   C76   1.404582 A    
C38   H21   1.080773 S    
C45   C46   1.409578 A    
C41   H25   1.080977 S    
C18   H14   1.079620 S    
C61   C62   1.386403 A    
C4    C12   1.382319 A    
C3    N3    1.338835 A    
C37   H24   1.083872 S    
C15   N11   1.337388 A    
C42   C43   1.405530 A    
C56   H30   1.081159 S    
C17   C24   1.387418 A    
C47   H27   1.083731 S    
C36   C37   1.393814 A    
N7    Ni4   1.860744 S    
C2    C10   1.391768 A    
C41   C46   1.392688 A    
C21   C58   1.468408 S    
N10   Ni2   1.861232 S    
N15   Ni4   1.860450 S    
N10   N16   1.364742 A    
C64   H33   1.076668 S    
C28   C29   1.410569 A    
C7    H7    1.077442 S    
C73   C74   1.403937 A    
N3    N5    1.364743 A    
C23   C42   1.471651 S    
C35   C36   1.401889 A    
C13   N9    1.332397 A    
C65   C66   1.387627 A    
C14   H10   1.074948 S    
C16   N12   1.344610 A    
N2    N7    1.382336 A    
C35   C40   1.392955 A    
C75   H39   1.081761 S    
N14   Ni1   1.861557 S    
C48   C49   1.401682 A    
C75   C76   1.398247 A    
C8    N8    1.342243 A    
C25   C26   1.405330 A    
C58   C60   1.402759 A    
C36   H23   1.083831 S    
C4    H4    1.079476 S    
C48   H28   1.083733 S    
C27   C28   1.392185 A    
N11   Ni3   1.860742 S    
C44   C45   1.409439 A    
C11   C57   1.469346 S    
C6    N6    1.338146 A    
C29   C30   1.409365 A    
N4    N6    1.364742 A    
C68   C70   1.407307 A    
C8    H8    1.079807 S    
C5    C11   1.383538 A    
C59   C63   1.413978 A    
C15   H11   1.079727 S    
N11   N14   1.382336 A    
C12   C39   1.470387 S    
C49   C54   1.392507 A    
C63   C64   1.395047 A    
C27   H18   1.081455 S    
