data_mof_unit_pretest_483.cif
_audit_creation_date              2013-03-05T16:10:12-0500
_audit_creation_method            fapswitch 2.2
_symmetry_space_group_name_H-M    P1
_symmetry_Int_Tables_number       1
_space_group_crystal_system       triclinic
_cell_length_a                    15.066799
_cell_length_b                    7.262062
_cell_length_c                    13.096014
_cell_angle_alpha                 88.902146
_cell_angle_beta                  100.065753
_cell_angle_gamma                 91.101097
_cell_volume                      1410.41592831

loop_
_atom_site_label
_atom_site_type_symbol
_atom_site_description
_atom_site_fract_x
_atom_site_fract_y
_atom_site_fract_z
_atom_type_partial_charge
O1    O     O_R   0.648180 0.355050 0.151550 -0.601040
O2    O     O_R   0.351820 0.644950 0.848450 -0.600935
O3    O     O_R   0.851820 0.855050 0.348450 -0.572848
O4    O     O_R   0.148180 0.144950 0.651550 -0.572899
O5    O     O_R   0.835240 0.681980 0.154280 -0.548872
O6    O     O_R   0.164760 0.318020 0.845720 -0.549072
O7    O     O_R   0.664760 0.181980 0.345720 -0.597739
O8    O     O_R   0.335240 0.818020 0.654280 -0.597811
C1    C     C_R   0.858472 0.518655 0.126371 0.939727
C2    C     C_R   0.141524 0.481347 0.873632 0.940553
C3    C     C_R   0.640337 0.013091 0.371865 0.967922
C4    C     C_R   0.359669 0.986907 0.628141 0.968172
O9    O     O_R   0.647870 0.684600 0.139630 -0.572067
O10   O     O_R   0.352130 0.315400 0.860370 -0.572088
O11   O     O_R   0.852130 0.184600 0.360370 -0.602610
O12   O     O_R   0.147870 0.815400 0.639630 -0.602532
O13   O     O_R   0.663110 0.857440 0.333700 -0.562965
O14   O     O_R   0.336890 0.142560 0.666300 -0.563071
O15   O     O_R   0.836890 0.357440 0.166300 -0.591598
O16   O     O_R   0.163110 0.642560 0.833700 -0.591653
C5    C     C_R   0.614569 0.515977 0.113812 0.998769
C6    C     C_R   0.385478 0.484021 0.886120 0.999468
C7    C     C_R   0.885609 0.016443 0.385849 1.019508
C8    C     C_R   0.114383 0.983556 0.614162 1.019705
H1    H     H_    0.489896 0.103924 0.759878 0.131254
H2    H     H_    0.510117 0.896284 0.240084 0.131307
H3    H     H_    0.006690 0.435500 0.736240 0.120915
H4    H     H_    0.993211 0.563981 0.263858 0.120976
O17   O     O_3   0.755220 0.522230 0.313690 -0.274721
O18   O     O_3   0.244780 0.477770 0.686310 -0.274855
O19   O     O_3   0.744780 0.022230 0.186310 -0.274517
O20   O     O_3   0.255220 0.977770 0.813690 -0.274657
V1    V     V_3+5 0.749030 0.796100 0.238190 1.258860
V2    V     V_3+5 0.250970 0.203900 0.761810 1.258583
V3    V     V_3+5 0.750970 0.296100 0.261810 1.199368
V4    V     V_3+5 0.249030 0.703900 0.738190 1.199348
C9    C     C_1   0.966523 0.005804 0.466154 -0.122154
C10   C     C_1   0.033462 0.994200 0.533866 -0.122042
C11   C     C_1   0.533676 0.505260 0.033577 -0.136733
C12   C     C_1   0.466424 0.494740 0.966285 -0.136484
H5    H     H_    0.231467 0.913024 0.248589 0.179902
H6    H     H_    0.768542 0.086779 0.751398 0.180070
H7    H     H_    0.265381 0.434899 0.258262 0.187185
H8    H     H_    0.734637 0.565627 0.741916 0.187232
C13   C     C_R   0.541531 0.084915 0.713475 -0.190507
C14   C     C_R   0.458478 0.915185 0.286496 -0.190450
C15   C     C_R   0.956094 0.468851 0.781929 -0.205961
C16   C     C_R   0.043846 0.530851 0.218178 -0.205824
C17   C     C_R   0.629859 0.113750 0.762963 0.083152
C18   C     C_R   0.370158 0.886329 0.236994 0.083434
C19   C     C_R   0.867745 0.486155 0.729658 0.090871
C20   C     C_R   0.132173 0.513643 0.270498 0.090681
C21   C     C_R   0.699831 0.079737 0.709764 -0.226730
C22   C     C_R   0.300178 0.920145 0.290217 -0.227181
C23   C     C_R   0.801481 0.537226 0.784471 -0.199156
C24   C     C_R   0.198508 0.463018 0.215694 -0.198917
C25   C     C_R   0.682405 0.023383 0.606134 0.277334
C26   C     C_R   0.317588 0.976421 0.393863 0.277692
C27   C     C_R   0.821090 0.564012 0.891859 0.268666
C28   C     C_R   0.179002 0.436556 0.108271 0.269210
C29   C     C_R   0.591978 0.019542 0.549866 -0.033399
C30   C     C_R   0.408017 0.980394 0.450127 -0.033490
C31   C     C_R   0.908976 0.525341 0.948681 -0.050249
C32   C     C_R   0.091074 0.474806 0.051401 -0.050760
C33   C     C_R   0.520489 0.036660 0.607484 0.078202
C34   C     C_R   0.479510 0.963353 0.392502 0.078176
C35   C     C_R   0.978815 0.491450 0.890633 0.099399
C36   C     C_R   0.021195 0.508464 0.109449 0.099362
C37   C     C_R   0.570563 0.994843 0.440149 -0.218882
C38   C     C_R   0.429435 0.005146 0.559845 -0.219076
C39   C     C_R   0.929896 0.521039 0.059615 -0.214315
C40   C     C_R   0.070133 0.478980 0.940445 -0.214905
N1    N     N_3   0.647214 0.170578 0.869128 -0.184411
H9    H     H_    0.716413 0.190022 0.894790 0.142906
H10   H     H_    0.626265 0.063270 0.914190 0.169926
N2    N     N_3   0.352816 0.829658 0.130797 -0.183538
H11   H     H_    0.283611 0.810408 0.105077 0.143145
H12   H     H_    0.373855 0.936970 0.085799 0.169635
N3    N     N_3   0.845457 0.465161 0.619293 -0.135457
H13   H     H_    0.797074 0.359719 0.604482 0.143552
H14   H     H_    0.901598 0.422988 0.589350 0.130456
N4    N     N_3   0.154396 0.534466 0.380880 -0.135467
H15   H     H_    0.202726 0.639994 0.395775 0.143860
H16   H     H_    0.098212 0.576432 0.410810 0.130462
N5    N     N_R   0.755561 0.943457 0.566758 0.201461
O21   O     O_R   0.744538 0.779511 0.527886 -0.411386
O22   O     O_R   0.837314 0.001546 0.600977 -0.489489
N6    N     N_R   0.244387 0.056098 0.433273 0.201417
O23   O     O_R   0.255292 0.220089 0.472108 -0.411510
O24   O     O_R   0.162669 0.997727 0.399102 -0.489618
N7    N     N_R   0.755434 0.659576 0.936445 0.210804
O25   O     O_R   0.775537 0.825061 0.970282 -0.406250
O26   O     O_R   0.670792 0.615028 0.908642 -0.476683
N8    N     N_R   0.245043 0.342329 0.063611 0.210428
O27   O     O_R   0.225668 0.176495 0.029865 -0.406524
O28   O     O_R   0.329515 0.388394 0.091429 -0.476956

loop_
_geom_bond_atom_site_label_1
_geom_bond_atom_site_label_2
_geom_bond_distance
_ccdc_geom_bond_type
C26   C30   1.431256 A    
O1    C5    1.334015 A    
C23   C27   1.402143 A    
N1    H9    1.045748 S    
O3    C7    1.335911 A    
N5    O21   1.300115 A    
O7    C3    1.329476 A    
O5    C1    1.319154 A    
C18   C22   1.389677 A    
C32   C36   1.429320 A    
N2    H12   1.045596 S    
C14   C34   1.417949 A    
H6    C21   1.083221 S    
O4    C8    1.335905 A    
C34   C37   1.420522 A    
O3    V1    1.970615 S    
O2    V4    1.971524 S    
C33   C38   1.420539 A    
C30   C38   1.430595 A    
C35   C40   1.419705 A    
O8    V4    2.001051 S    
O11   V3    1.991084 S    
C4    C38   1.497052 S    
C1    O15   1.330860 A    
C3    O13   1.319740 A    
C2    O16   1.330875 A    
O5    V1    2.038811 S    
O2    C6    1.334011 A    
C8    C10   1.466488 S    
O19   V1    1.763098 S    
O11   C7    1.343966 A    
O12   C8    1.343976 A    
N1    H10   1.045565 S    
O13   V1    2.012034 S    
C15   C35   1.416746 A    
O4    V2    1.970616 S    
N5    O22   1.300131 A    
C31   C35   1.429150 A    
C30   C34   1.427573 A    
N2    H11   1.045779 S    
N7    O25   1.300704 A    
N3    H14   1.045743 S    
C21   C25   1.403865 A    
C15   C19   1.393182 A    
C7    C9    1.466482 S    
O6    V2    2.038812 S    
O20   V2    1.763099 S    
N8    O28   1.300266 A    
O9    V1    1.987374 S    
C9    C10   1.224103 T    
C18   N2    1.436189 S    
N7    O26   1.299980 A    
C5    C11   1.465417 S    
C13   C17   1.388502 A    
O8    C4    1.329468 A    
C6    C12   1.465454 S    
O9    C5    1.341100 A    
C27   N7    1.430013 S    
C16   C36   1.416796 A    
C20   N4    1.435920 S    
O14   V2    2.012033 S    
N6    O24   1.300180 A    
N4    H16   1.045742 S    
C13   C33   1.417937 A    
C17   N1    1.436141 S    
H1    C13   1.079908 S    
C11   C12   1.223370 T    
O1    V3    1.971526 S    
C22   C26   1.403894 A    
H3    C15   1.081610 S    
O17   V3    1.784920 S    
H4    C16   1.081615 S    
O7    V3    2.001054 S    
C1    C39   1.500073 S    
C31   C39   1.431607 A    
C26   N6    1.432663 S    
O10   V2    1.987373 S    
C3    C37   1.497040 S    
C25   C29   1.431232 A    
C14   C18   1.388481 A    
C27   C31   1.431034 A    
O18   V4    1.784921 S    
C28   C32   1.431163 A    
C29   C37   1.430535 A    
O10   C6    1.341121 A    
O15   V3    1.990289 S    
O12   V4    1.991085 S    
H8    C23   1.083875 S    
C36   C39   1.419574 A    
C17   C21   1.389677 A    
C25   N5    1.432636 S    
C19   C23   1.387289 A    
C32   C40   1.431894 A    
N8    O27   1.301018 A    
C19   N3    1.435906 S    
H5    C22   1.083219 S    
O6    C2    1.319204 A    
H2    C14   1.079917 S    
N3    H13   1.044112 S    
O16   V4    1.990291 S    
C29   C33   1.427536 A    
H7    C24   1.083897 S    
C16   C20   1.393026 A    
C24   C28   1.402180 A    
N6    O23   1.300158 A    
N4    H15   1.044132 S    
C4    O14   1.319754 A    
C20   C24   1.387147 A    
C2    C40   1.500196 S    
C28   N8    1.430145 S    
