data_mof_unit_pretest_1212.cif
_audit_creation_date              2012-12-10T20:31:52-0500
_audit_creation_method            fapswitch 2.2
_symmetry_space_group_name_H-M    P1
_symmetry_Int_Tables_number       1
_space_group_crystal_system       triclinic
_cell_length_a                    9.897705
_cell_length_b                    10.753196
_cell_length_c                    15.540395
_cell_angle_alpha                 90.775465
_cell_angle_beta                  67.279463
_cell_angle_gamma                 89.005221
_cell_volume                      1525.04693671

loop_
_atom_site_label
_atom_site_type_symbol
_atom_type_description
_atom_site_fract_x
_atom_site_fract_y
_atom_site_fract_z
_atom_type_partial_charge
C1    C     C_R   0.501505 0.740059 0.496668 0.877383
C2    C     C_R   0.405336 0.460970 0.916887 0.022963
C3    C     C_R   0.259486 0.497473 0.974229 -0.039137
C4    C     C_R   0.506808 0.428146 0.957760 0.056822
C5    C     C_R   0.464403 0.446671 0.055011 -0.068466
C6    C     C_R   0.313141 0.466065 0.111686 0.387168
C7    C     C_R   0.215008 0.496514 0.071059 -0.121717
C8    C     C_R   0.648369 0.376152 0.905585 -0.151779
C9    C     C_R   0.748313 0.353784 0.947112 -0.158584
C10   C     C_R   0.714004 0.390322 0.039656 0.149269
C11   C     C_R   0.574373 0.443702 0.092178 0.080859
C12   C     C_R   0.407480 0.499178 0.676587 0.941631
C13   C     C_R   0.817049 0.375586 0.080725 -0.109132
C14   C     C_R   0.783031 0.416974 0.172557 -0.133333
C15   C     C_R   0.550388 0.498034 0.179062 -0.241712
C16   C     C_R   0.397655 0.938793 0.472052 0.017988
C17   C     C_R   0.511946 0.871303 0.481527 -0.069138
C18   C     C_R   0.640360 0.932973 0.473605 -0.191672
C19   C     C_R   0.640616 0.061951 0.474894 -0.149057
C20   C     C_R   0.512404 0.128447 0.484187 -0.119974
C21   C     C_R   0.396693 0.065947 0.474887 0.045481
C22   C     C_3   0.234660 0.074439 0.529737 0.698877
C23   C     C_R   0.502568 0.260089 0.497549 0.926274
C24   C     C_3   0.236455 0.933899 0.524483 -0.538002
C25   C     C_R   0.882497 0.549509 0.573980 0.143822
C26   C     C_R   0.970232 0.434890 0.434060 0.452335
C27   C     C_R   0.114152 0.437050 0.433317 -0.062011
C28   C     C_R   0.024865 0.549774 0.574035 0.298715
C29   C     C_3   0.003486 0.682279 0.606523 -0.479825
C30   C     C_3   0.848907 0.679519 0.609747 -0.475890
C31   C     C_R   0.591997 0.498098 0.323711 0.869564
C32   C     C_R   0.348287 0.495052 0.779448 -0.174057
C33   C     C_R   0.648021 0.477263 0.222451 -0.079952
C34   C     C_R   0.158258 0.531499 0.934678 0.389254
C35   C     C_R   0.200026 0.521513 0.837071 0.284053
C36   C     C_R   0.447970 0.465927 0.820326 -0.291556
H1    H     H_    0.101587 0.514860 0.116488 0.221103
H2    H     H_    0.922909 0.331151 0.042251 0.160818
H3    H     H_    0.736703 0.882917 0.472706 0.173159
H4    H     H_    0.736863 0.108474 0.474843 0.220673
H5    H     H_    0.206634 0.888710 0.593124 0.218167
H6    H     H_    0.183645 0.898403 0.478007 0.213548
H7    H     H_    0.202474 0.386089 0.379937 0.211950
H8    H     H_    0.008400 0.698371 0.675776 0.263315
H9    H     H_    0.452540 0.554221 0.215440 0.205231
H10   H     H_    0.073774 0.740789 0.550673 0.199502
H11   H     H_    0.763649 0.684790 0.681797 0.223807
H12   H     H_    0.830330 0.742986 0.559419 0.215685
H13   H     H_    0.860446 0.399545 0.204615 0.208905
H14   H     H_    0.854570 0.311993 0.905709 0.194900
H15   H     H_    0.560974 0.449478 0.775193 0.187775
H16   H     H_    0.683132 0.347247 0.833383 0.165421
N1    N     N_R   0.856900 0.500860 0.500610 -0.158935
N2    N     N_R   0.142540 0.500820 0.500610 -0.148328
O1    O     O_R   0.385310 0.683210 0.499990 -0.616433
O2    O     O_R   0.614650 0.683240 0.500000 -0.633253
O3    O     O_R   0.319830 0.499970 0.632240 -0.535251
O4    O     O_R   0.549170 0.500000 0.632250 -0.631029
O5    O     O_R   0.385350 0.316760 0.500000 -0.572371
O6    O     O_R   0.614690 0.316790 0.500010 -0.590687
O7    O     O_R   0.450830 0.500000 0.367750 -0.629271
O8    O     O_R   0.680170 0.500030 0.367760 -0.570063
Zn1   Zn    Zn3+2 0.346870 0.499980 0.499990 1.024204
Zn2   Zn    Zn3+2 0.653130 0.500020 0.500010 1.005396
Cl1   Cl    Cl    0.181116 0.135435 0.646269 -0.572864
Cl2   Cl    Cl    0.135908 0.143206 0.467305 -0.601202
Cl3   Cl    Cl    0.939079 0.341372 0.350958 -0.571350
O9    O     O_3   0.020434 0.574777 0.993413 -0.777909
H17   H     H_    0.971714 0.618513 0.957313 0.384592
Cl4   Cl    Cl    0.063564 0.534519 0.790552 -0.658452
O10   O     O_3   0.254173 0.443628 0.205797 -0.763815
H18   H     H_    0.312674 0.374851 0.217305 0.345601

loop_
_geom_bond_atom_site_label_1
_geom_bond_atom_site_label_2
_ccdc_geom_bond_type
C2    C4    A    
C18   H3    S    
C31   C33   S    
C22   Cl1   S    
O3    Zn1   S    
C29   C30   S    
C24   H6    S    
C9    C10   A    
C31   O7    A    
C1    C17   S    
C19   C20   A    
C20   C23   S    
O6    Zn2   S    
C29   H10   S    
C4    C8    A    
C12   O4    A    
C14   C33   A    
O2    Zn2   S    
C2    C3    A    
C13   H2    S    
C27   N2    A    
O10   H18   S    
C16   C24   S    
C10   C13   A    
C21   C22   S    
C12   C32   S    
C25   C28   A    
C23   O5    A    
C24   H5    S    
C31   O8    A    
C26   C27   A    
C6    C7    A    
C36   H15   S    
O8    Zn2   S    
C12   O3    A    
C32   C36   A    
C30   H12   S    
C28   C29   S    
C1    O2    A    
C25   N1    A    
C5    C11   A    
C16   C21   A    
C3    C7    A    
C29   H8    S    
O4    Zn2   S    
C5    C6    A    
O9    H17   S    
N1    Zn2   S    
C22   C24   S    
C1    O1    A    
O5    Zn1   S    
C14   H13   S    
C10   C11   A    
C26   Cl3   S    
C2    C36   A    
C26   N1    A    
C32   C35   A    
C27   H7    S    
C30   H11   S    
C4    C5    A    
C18   C19   A    
C20   C21   A    
C17   C18   A    
C34   C35   A    
C19   H4    S    
C34   O9    S    
C25   C30   S    
O7    Zn1   S    
C8    H16   S    
N2    Zn1   S    
C16   C17   A    
C7    H1    S    
C28   N2    A    
C3    C34   A    
C13   C14   A    
C11   C15   A    
C15   C33   A    
C23   O6    A    
C22   Cl2   S    
C9    H14   S    
C35   Cl4   S    
C8    C9    A    
C6    O10   S    
C15   H9    S    
O1    Zn1   S    
