data_mof_unit_pretest_431.cif
_audit_creation_date              2012-12-11T14:43:32-0500
_audit_creation_method            fapswitch 2.2
_symmetry_space_group_name_H-M    P1
_symmetry_Int_Tables_number       1
_space_group_crystal_system       triclinic
_cell_length_a                    20.432112
_cell_length_b                    7.095453
_cell_length_c                    17.031227
_cell_angle_alpha                 90.000021
_cell_angle_beta                  92.950296
_cell_angle_gamma                 90.0
_cell_volume                      2465.83102581

loop_
_atom_site_label
_atom_site_type_symbol
_atom_type_description
_atom_site_fract_x
_atom_site_fract_y
_atom_site_fract_z
_atom_type_partial_charge
O1    O     O_R   0.564840 0.505290 0.579830 -0.547929
O2    O     O_R   0.435160 0.005290 0.420170 -0.547929
O3    O     O_R   0.556720 0.179930 0.409350 -0.540689
O4    O     O_R   0.443280 0.679930 0.590650 -0.540689
C1    C     C_R   0.569969 0.344856 0.381572 0.704743
C2    C     C_R   0.430031 0.844856 0.618428 0.704744
O5    O     O_R   0.572280 0.175810 0.578530 -0.534865
O6    O     O_R   0.427720 0.675810 0.421470 -0.534865
O7    O     O_R   0.450830 0.001920 0.590540 -0.541646
O8    O     O_R   0.549170 0.501920 0.409460 -0.541646
C3    C     C_R   0.590194 0.345194 0.604260 0.744473
C4    C     C_R   0.409805 0.845194 0.395740 0.744472
O9    O     O_3   0.460130 0.338030 0.503750 -0.378082
O10   O     O_3   0.539870 0.838030 0.496250 -0.378082
V1    V     V_3+5 0.507400 0.064560 0.499310 1.420892
V2    V     V_3+5 0.492600 0.564560 0.500690 1.420892
C5    C     C_R   0.141850 0.908334 0.168585 -0.145730
C6    C     C_R   0.858150 0.408334 0.831415 -0.145730
C7    C     C_R   0.357277 0.861393 0.332540 -0.130383
C8    C     C_R   0.642722 0.361394 0.667460 -0.130383
C9    C     C_R   0.322070 0.986993 0.203805 -0.161201
C10   C     C_R   0.677930 0.486993 0.796195 -0.161203
C11   C     C_R   0.372095 0.940723 0.259959 -0.257086
C12   C     C_R   0.627905 0.440723 0.740041 -0.257086
C13   C     C_R   0.290973 0.830031 0.347671 0.370180
C14   C     C_R   0.709027 0.330031 0.652329 0.370179
C15   C     C_R   0.242515 0.840773 0.285253 -0.002048
C16   C     C_R   0.757485 0.340773 0.714746 -0.002047
C17   C     C_R   0.256661 0.937951 0.215940 -0.000385
C18   C     C_R   0.743339 0.437951 0.784059 -0.000385
C19   C     C_R   0.204453 0.991043 0.162371 0.353291
C20   C     C_R   0.795547 0.491043 0.837629 0.353292
C21   C     C_R   0.130137 0.797753 0.234750 -0.256233
C22   C     C_R   0.869862 0.297752 0.765250 -0.256234
C23   C     C_R   0.178833 0.773029 0.294384 -0.188573
C24   C     C_R   0.821167 0.273029 0.705616 -0.188572
H1    H     H_    0.082404 0.734819 0.241331 0.143401
H2    H     H_    0.917596 0.234819 0.758668 0.143401
H3    H     H_    0.334794 0.058330 0.150477 0.169894
H4    H     H_    0.665207 0.558330 0.849522 0.169895
H5    H     H_    0.167331 0.696106 0.346787 0.162693
H6    H     H_    0.832669 0.196106 0.653213 0.162693
H7    H     H_    0.422260 0.976665 0.248560 0.139460
H8    H     H_    0.577740 0.476666 0.751440 0.139460
C25   C     C_R   0.386454 0.972114 0.821878 -0.098609
C26   C     C_R   0.613546 0.472114 0.178122 -0.098610
H9    H     H_    0.474045 0.972256 0.758591 0.114442
H10   H     H_    0.525955 0.472256 0.241409 0.114442
H11   H     H_    0.412429 0.028788 0.873671 0.168564
H12   H     H_    0.587571 0.528788 0.126329 0.168564
C27   C     C_R   0.392126 0.858576 0.689399 -0.060096
C28   C     C_R   0.607873 0.358576 0.310601 -0.060096
C29   C     C_R   0.074322 0.835069 0.743653 0.188530
C30   C     C_R   0.925678 0.335069 0.256347 0.188531
C31   C     C_R   0.107528 0.797986 0.676499 0.463143
C32   C     C_R   0.892472 0.297986 0.323501 0.463143
C33   C     C_R   0.175524 0.819967 0.675802 0.203466
C34   C     C_R   0.824476 0.319968 0.324198 0.203466
C35   C     C_R   0.213852 0.866766 0.745866 -0.130467
C36   C     C_R   0.786148 0.366766 0.254134 -0.130467
C37   C     C_R   0.179085 0.914732 0.814341 -0.087485
C38   C     C_R   0.820915 0.414732 0.185659 -0.087484
C39   C     C_R   0.284808 0.874488 0.749701 0.057223
C40   C     C_R   0.715192 0.374488 0.250299 0.057223
C41   C     C_R   0.318145 0.943269 0.819290 0.071253
C42   C     C_R   0.681855 0.443269 0.180710 0.071253
C43   C     C_R   0.283962 0.982773 0.886242 0.226039
C44   C     C_R   0.716038 0.482772 0.113758 0.226040
C45   C     C_R   0.215017 0.977694 0.882877 0.253752
C46   C     C_R   0.784983 0.477694 0.117123 0.253751
C47   C     C_R   0.324942 0.814920 0.687946 -0.208043
C48   C     C_R   0.675058 0.314920 0.312054 -0.208043
C49   C     C_R   0.422284 0.937947 0.756549 -0.191420
C50   C     C_R   0.577716 0.437947 0.243451 -0.191420
C51   C     C_R   0.108897 0.899822 0.812238 -0.221495
C52   C     C_R   0.891103 0.399822 0.187761 -0.221495
H13   H     H_    0.306130 0.736296 0.637728 0.171793
H14   H     H_    0.693870 0.236296 0.362272 0.171794
O11   O     O_R   0.950790 0.256670 0.090520 -0.541647
O12   O     O_R   0.049210 0.756670 0.909480 -0.541647
O13   O     O_R   0.927720 0.590370 0.921470 -0.523141
O14   O     O_R   0.072280 0.090370 0.078530 -0.523141
C53   C     C_R   0.910201 0.421610 0.895268 0.782548
C54   C     C_R   0.089799 0.921610 0.104732 0.782547
O15   O     O_R   0.943270 0.586180 0.090640 -0.529579
O16   O     O_R   0.056730 0.086180 0.909360 -0.529578
O17   O     O_R   0.064850 0.759970 0.079840 -0.557939
O18   O     O_R   0.935150 0.259970 0.920160 -0.557939
C55   C     C_R   0.929184 0.416537 0.116755 0.830611
C56   C     C_R   0.070816 0.916537 0.883245 0.830611
O19   O     O_3   0.039850 0.428050 0.996240 -0.387747
O20   O     O_3   0.960150 0.928050 0.003760 -0.387748
V3    V     V_3+5 0.992610 0.701540 0.000700 1.448981
V4    V     V_3+5 0.007390 0.201540 0.999300 1.448982
O21   O     O_3   0.214033 0.127752 0.106386 -0.570085
C57   C     C_3   0.205416 0.306117 0.141877 0.107620
H15   H     H_    0.240250 0.326678 0.193769 0.110481
H16   H     H_    0.154567 0.320389 0.161909 0.100359
C58   C     C_3   0.216145 0.464105 0.082811 -0.290439
H17   H     H_    0.184053 0.442591 0.028965 0.197516
H18   H     H_    0.202023 0.599736 0.109210 0.162319
C59   C     C_3   0.287576 0.478423 0.061407 -0.715886
H19   H     H_    0.319484 0.508930 0.114688 0.217302
H20   H     H_    0.292878 0.594755 0.018568 0.221114
H21   H     H_    0.303748 0.345288 0.034432 0.263550
O22   O     O_3   0.785967 0.627752 0.893614 -0.570085
C60   C     C_3   0.794583 0.806117 0.858123 0.107619
H22   H     H_    0.759749 0.826678 0.806232 0.110482
H23   H     H_    0.845432 0.820389 0.838090 0.100358
C61   C     C_3   0.783857 0.964105 0.917190 -0.290438
H24   H     H_    0.815949 0.942589 0.971035 0.197517
H25   H     H_    0.797978 0.099736 0.890790 0.162319
C62   C     C_3   0.712426 0.978425 0.938596 -0.715887
H26   H     H_    0.680517 0.008934 0.885316 0.217303
H27   H     H_    0.707125 0.094756 0.981435 0.221114
H28   H     H_    0.696254 0.845290 0.965570 0.263550
O23   O     O_3   0.007290 0.805302 0.739356 -0.632941
H29   H     H_    0.986010 0.883860 0.778695 0.263800
O24   O     O_3   0.992710 0.305301 0.260644 -0.632941
H30   H     H_    0.013990 0.383859 0.221305 0.263800
O25   O     O_3   0.201158 0.814590 0.603381 -0.641567
H31   H     H_    0.226954 0.931985 0.600362 0.283206
O26   O     O_3   0.798842 0.314591 0.396619 -0.641568
H32   H     H_    0.773046 0.431986 0.399638 0.283206
O27   O     O_3   0.071820 0.741658 0.609306 -0.538371
C63   C     C_3   0.053857 0.900930 0.562807 0.162307
H33   H     H_    0.086821 0.905939 0.512980 0.100074
H34   H     H_    0.059604 0.039054 0.594063 0.079014
C64   C     C_3   0.982994 0.879455 0.528708 -0.301739
H35   H     H_    0.979831 0.931310 0.467103 0.184740
H36   H     H_    0.968555 0.729207 0.527086 0.198867
C65   C     C_3   0.933267 0.987312 0.575361 -0.727452
H37   H     H_    0.927776 0.920890 0.633475 0.255708
H38   H     H_    0.884804 0.984333 0.542764 0.228162
H39   H     H_    0.948189 0.136640 0.583727 0.210098
O28   O     O_3   0.928180 0.241658 0.390694 -0.538370
C66   C     C_3   0.946142 0.400929 0.437194 0.162307
H40   H     H_    0.913179 0.405936 0.487021 0.100075
H41   H     H_    0.940395 0.539054 0.405938 0.079014
C67   C     C_3   0.017006 0.379455 0.471293 -0.301741
H42   H     H_    0.020169 0.431310 0.532897 0.184740
H43   H     H_    0.031444 0.229207 0.472914 0.198867
C68   C     C_3   0.066733 0.487312 0.424640 -0.727450
H44   H     H_    0.072223 0.420891 0.366525 0.255708
H45   H     H_    0.115196 0.484333 0.457236 0.228162
H46   H     H_    0.051810 0.636640 0.416274 0.210099
O29   O     O_3   0.182591 0.045424 0.945630 -0.640992
H47   H     H_    0.204486 0.164577 0.961978 0.322802
O30   O     O_3   0.817408 0.545422 0.054370 -0.640993
H48   H     H_    0.795515 0.664576 0.038022 0.322802
O31   O     O_3   0.272369 0.829931 0.424694 -0.574250
C69   C     C_3   0.243499 0.007961 0.441228 0.059065
H49   H     H_    0.199475 0.982518 0.474757 0.164745
H50   H     H_    0.224392 0.088745 0.388638 0.105853
C70   C     C_3   0.292380 0.134523 0.487683 -0.337892
H51   H     H_    0.316256 0.054930 0.537394 0.196963
H52   H     H_    0.330844 0.181030 0.448349 0.209625
C71   C     C_3   0.259112 0.309889 0.519037 -0.763462
H53   H     H_    0.237529 0.395317 0.469542 0.241077
H54   H     H_    0.295874 0.397430 0.552652 0.244063
H55   H     H_    0.219902 0.269916 0.558673 0.219687
O32   O     O_3   0.727631 0.329932 0.575306 -0.574250
C72   C     C_3   0.756501 0.507962 0.558772 0.059065
H56   H     H_    0.800525 0.482519 0.525243 0.164745
H57   H     H_    0.775607 0.588746 0.611362 0.105853
C73   C     C_3   0.707620 0.634523 0.512317 -0.337892
H58   H     H_    0.683744 0.554931 0.462606 0.196963
H59   H     H_    0.669156 0.681031 0.551651 0.209625
C74   C     C_3   0.740888 0.809890 0.480963 -0.763463
H60   H     H_    0.762470 0.895318 0.530459 0.241077
H61   H     H_    0.704126 0.897430 0.447348 0.244063
H62   H     H_    0.780098 0.769917 0.441327 0.219687
O33   O     O_3   0.319305 0.025659 0.955429 -0.666131
H63   H     H_    0.292887 0.992428 0.000568 0.324230
O34   O     O_3   0.680695 0.525659 0.044571 -0.666131
H64   H     H_    0.707113 0.492428 0.999432 0.324232

loop_
_geom_bond_atom_site_label_1
_geom_bond_atom_site_label_2
_ccdc_geom_bond_type
C68   H46   S    
C42   C44   A    
C39   C41   A    
C63   H33   S    
O14   V4    S    
C70   H52   S    
C47   H13   S    
C74   H61   S    
C74   H60   S    
C24   H6    S    
O21   C57   S    
O1    C3    A    
C54   O17   A    
O29   H47   S    
O2    C4    A    
C2    O7    A    
O26   H32   S    
O33   H63   S    
C37   C51   A    
O5    C3    A    
C66   H41   S    
C34   O26   S    
C5    C21   A    
C36   C38   A    
C72   H57   S    
C67   H43   S    
O32   C72   S    
C28   C50   A    
C21   C23   A    
C29   O23   S    
C33   C35   A    
C15   C17   A    
O22   C60   S    
C34   C36   A    
C68   H44   S    
C57   C58   S    
C11   H7    S    
C38   C46   A    
C59   H21   S    
C25   C49   A    
C8    C12   A    
C61   H24   S    
C48   H14   S    
O16   V4    S    
C51   C56   S    
O13   C53   A    
O15   V3    S    
C71   H54   S    
C31   O27   S    
C65   H37   S    
C41   C43   A    
C57   H16   S    
O31   C69   S    
C67   C68   S    
C1    C28   S    
C2    C27   S    
C71   H55   S    
O6    C4    A    
C52   C55   S    
C64   C65   S    
O5    V1    S    
C53   O18   A    
O6    V2    S    
C20   O22   S    
C30   O24   S    
C70   C71   S    
C73   H59   S    
C60   H23   S    
C38   C52   A    
C73   H58   S    
C29   C51   A    
C46   O30   S    
C27   C47   A    
C7    C13   A    
C32   O28   S    
C44   O34   S    
C30   C32   A    
C29   C31   A    
C66   C67   S    
O18   V4    S    
C3    C8    S    
C35   C37   A    
H10   C50   S    
C72   C73   S    
C67   H42   S    
H9    C49   S    
O11   V4    S    
O4    C2    A    
O16   C56   A    
O15   C55   A    
C63   C64   S    
C15   C23   A    
C9    C17   A    
C14   O32   S    
C21   H1    S    
C43   C45   A    
C40   C42   A    
O4    V2    S    
C7    C11   A    
C28   C48   A    
O19   V3    S    
O13   V3    S    
O34   H64   S    
C9    H3    S    
C69   C70   S    
C25   H11   S    
C60   H22   S    
C10   H4    S    
C57   H15   S    
O20   V4    S    
C6    C53   S    
O1    V2    S    
C59   H20   S    
O2    V1    S    
C6    C22   A    
C61   C62   S    
O25   H31   S    
C30   C52   A    
C19   O21   S    
C58   H18   S    
C12   H8    S    
C69   H50   S    
O14   C54   A    
C31   C33   A    
C25   C41   A    
O27   C63   S    
C45   O29   S    
C60   C61   S    
C10   C12   A    
C6    C20   A    
C26   C50   A    
O3    V1    S    
C62   H26   S    
C37   C45   A    
C68   H45   S    
C63   H34   S    
C10   C18   A    
C22   H2    S    
C35   C39   A    
C27   C49   A    
C39   C47   A    
O28   C66   S    
O3    C1    A    
O24   H30   S    
C26   C42   A    
C13   C15   A    
C66   H40   S    
C26   H12   S    
C14   C16   A    
C58   H17   S    
C13   O31   S    
C36   C40   A    
C5    C54   S    
C62   H28   S    
C9    C11   A    
C64   H35   S    
C1    O8    A    
C17   C19   A    
O8    V2    S    
O23   H29   S    
O19   V4    S    
C18   C20   A    
C71   H53   S    
C8    C14   A    
C43   O33   S    
C65   H39   S    
C5    C19   A    
O17   V3    S    
C4    C7    S    
C16   C18   A    
O20   V3    S    
C74   H62   S    
C32   C34   A    
C22   C24   A    
C40   C48   A    
O7    V1    S    
C59   H19   S    
C23   H5    S    
C61   H25   S    
O11   C55   A    
C72   H56   S    
C33   O25   S    
C58   C59   S    
C69   H49   S    
C16   C24   A    
C73   C74   S    
C65   H38   S    
O9    V2    S    
C70   H51   S    
C44   C46   A    
O10   V1    S    
C64   H36   S    
O12   V3    S    
O30   H48   S    
O12   C56   A    
C62   H27   S    
