data_mof_unit_pretest_941.cif
_audit_creation_date              2012-12-11T15:17:40-0500
_audit_creation_method            fapswitch 2.2
_symmetry_space_group_name_H-M    P1
_symmetry_Int_Tables_number       1
_space_group_crystal_system       triclinic
_cell_length_a                    15.718106
_cell_length_b                    15.696715
_cell_length_c                    34.49223
_cell_angle_alpha                 90.209692
_cell_angle_beta                  89.747682
_cell_angle_gamma                 119.746064
_cell_volume                      7388.59158041

loop_
_atom_site_label
_atom_site_type_symbol
_atom_type_description
_atom_site_fract_x
_atom_site_fract_y
_atom_site_fract_z
_atom_type_partial_charge
C1    C     C_R   0.578010 0.441833 0.554793 0.554277
C2    C     C_R   0.558324 0.136364 0.554806 0.557311
C3    C     C_R   0.863594 0.421974 0.554825 0.567899
C4    C     C_R   0.442103 0.577607 0.054510 0.562117
C5    C     C_R   0.135878 0.558193 0.054859 0.560798
C6    C     C_R   0.422386 0.864885 0.054453 0.562243
C7    C     C_R   0.988851 0.498339 0.711608 0.322970
C8    C     C_R   0.501409 0.490983 0.711626 0.322969
C9    C     C_R   0.509090 0.010503 0.711505 0.322972
C10   C     C_R   0.513586 0.014670 0.208136 0.323829
C11   C     C_R   0.501396 0.487664 0.208146 0.322145
C12   C     C_R   0.918985 0.465562 0.198219 0.322355
C13   C     C_R   0.008426 0.432681 0.853555 0.349223
C14   C     C_R   0.568250 0.573887 0.853722 0.349561
C15   C     C_R   0.425163 0.992756 0.853777 0.349467
C16   C     C_R   0.442501 0.026980 0.350008 0.343899
C17   C     C_R   0.584271 0.558146 0.350003 0.362780
C18   C     C_R   0.845372 0.344524 0.335887 0.340296
C19   C     C_R   0.041240 0.446107 0.891671 -0.132842
C20   C     C_R   0.554540 0.593691 0.891849 -0.132380
C21   C     C_R   0.405735 0.959932 0.891917 -0.132728
C22   C     C_R   0.451703 0.052209 0.389041 -0.134841
C23   C     C_R   0.599826 0.548737 0.389045 -0.114020
C24   C     C_R   0.835405 0.336325 0.376049 -0.143817
C25   C     C_R   0.072179 0.613453 0.890355 0.399308
C26   C     C_R   0.387659 0.458100 0.890429 0.399106
C27   C     C_R   0.540796 0.926874 0.890020 0.399341
C28   C     C_R   0.615809 0.075076 0.389417 0.375061
C29   C     C_R   0.463652 0.382029 0.388735 0.386321
C30   C     C_R   0.822586 0.483592 0.378796 0.381490
C31   C     C_R   0.039766 0.600468 0.852079 0.385443
C32   C     C_R   0.400927 0.438281 0.852140 0.385565
C33   C     C_R   0.560246 0.959272 0.851714 0.385304
C34   C     C_R   0.607419 0.050944 0.350082 0.390314
C35   C     C_R   0.447982 0.391042 0.349561 0.375958
C36   C     C_R   0.832517 0.492216 0.338449 0.375164
C37   C     C_R   0.012626 0.511545 0.832602 -0.030816
C38   C     C_R   0.489651 0.499628 0.832699 -0.030879
C39   C     C_R   0.499116 0.987438 0.832519 -0.030854
C40   C     C_R   0.522478 0.031789 0.329469 -0.033158
C41   C     C_R   0.511307 0.477595 0.329303 -0.034571
C42   C     C_R   0.845280 0.423416 0.316456 -0.035383
C43   C     C_R   0.078318 0.537898 0.909687 -0.102166
C44   C     C_R   0.462744 0.539740 0.909775 -0.102487
C45   C     C_R   0.459727 0.921774 0.909657 -0.101972
C46   C     C_R   0.540199 0.082088 0.408500 -0.104099
C47   C     C_R   0.543290 0.459217 0.408228 -0.104558
C48   C     C_R   0.825248 0.406027 0.398101 -0.110700
C49   C     C_R   0.578170 0.441867 0.445329 0.570837
C50   C     C_R   0.558109 0.135688 0.445421 0.564422
C51   C     C_R   0.810331 0.392297 0.440546 0.587063
C52   C     C_R   0.442278 0.577716 0.945560 0.585962
C53   C     C_R   0.135613 0.557848 0.945553 0.587714
C54   C     C_R   0.422209 0.864380 0.945543 0.586461
C55   C     C_R   0.919771 0.456634 0.591156 0.014397
C56   C     C_R   0.543020 0.464039 0.591072 0.014962
C57   C     C_R   0.536439 0.079818 0.591084 0.014546
C58   C     C_R   0.458931 0.925642 0.089805 0.043749
C59   C     C_R   0.465931 0.541236 0.089930 0.044296
C60   C     C_R   0.069068 0.531443 0.088749 0.039709
C61   C     C_R   0.945378 0.394264 0.610688 -0.169847
C62   C     C_R   0.605287 0.551528 0.610802 -0.169911
C63   C     C_R   0.449115 0.055419 0.610958 -0.169755
C64   C     C_R   0.395875 0.949347 0.110082 -0.177394
C65   C     C_R   0.552386 0.604409 0.109892 -0.177825
C66   C     C_R   0.040745 0.442239 0.107738 -0.176898
C67   C     C_R   0.974152 0.411460 0.649288 -0.128469
C68   C     C_R   0.587940 0.563191 0.649456 -0.128308
C69   C     C_R   0.437478 0.026489 0.649548 -0.128282
C70   C     C_R   0.416764 0.984287 0.147832 -0.131312
C71   C     C_R   0.566696 0.583885 0.147587 -0.131651
C72   C     C_R   0.988278 0.419159 0.142300 -0.128826
C73   C     C_R   0.977063 0.490904 0.669210 -0.008139
C74   C     C_R   0.508455 0.487225 0.669190 -0.008294
C75   C     C_R   0.513282 0.022179 0.669106 -0.008322
C76   C     C_R   0.502006 0.997489 0.166029 -0.000320
C77   C     C_R   0.495207 0.498954 0.166094 -0.000152
C78   C     C_R   0.962134 0.484571 0.158895 0.000073
C79   C     C_R   0.961163 0.558795 0.648741 -0.086359
C80   C     C_R   0.440426 0.404259 0.648489 -0.086501
C81   C     C_R   0.596275 0.036693 0.648274 -0.086381
C82   C     C_R   0.571320 0.985891 0.144340 -0.098702
C83   C     C_R   0.414354 0.429596 0.144782 -0.099349
C84   C     C_R   0.983912 0.570752 0.138816 -0.096712
C85   C     C_R   0.935542 0.544036 0.609566 0.256975
C86   C     C_R   0.455348 0.393359 0.609266 0.258051
C87   C     C_R   0.607169 0.062467 0.609106 0.257873
C88   C     C_R   0.550432 0.949598 0.106140 0.262093
C89   C     C_R   0.398678 0.450130 0.106625 0.261765
C90   C     C_R   0.037532 0.595078 0.103818 0.260380
C91   C     C_R   0.999016 0.504180 0.790151 0.394440
C92   C     C_R   0.496781 0.493871 0.790208 0.394197
C93   C     C_R   0.505194 0.000843 0.790056 0.394387
C94   C     C_R   0.519195 0.024148 0.286723 0.394072
C95   C     C_R   0.506513 0.481737 0.286657 0.394080
C96   C     C_R   0.864043 0.436460 0.274058 0.392230
Cr1   Cr    Cr6+3 0.522350 0.263930 0.500020 1.093875
Cr2   Cr    Cr6+3 0.736070 0.258420 0.500020 1.091941
Cr3   Cr    Cr6+3 0.741580 0.477650 0.500020 1.096535
Cr4   Cr    Cr6+3 0.263930 0.522350 0.000020 1.113523
Cr5   Cr    Cr6+3 0.258420 0.736070 0.000020 1.117092
Cr6   Cr    Cr6+3 0.477650 0.741580 0.000020 1.112072
H1    H     H_    0.936761 0.328212 0.597011 0.157821
H2    H     H_    0.671473 0.608331 0.597267 0.157791
H3    H     H_    0.392317 0.065179 0.597572 0.158218
H4    H     H_    0.327489 0.936020 0.097559 0.124228
H5    H     H_    0.607079 0.672715 0.097180 0.123844
H6    H     H_    0.061327 0.390746 0.096435 0.123346
H7    H     H_    0.042780 0.385947 0.906314 0.218614
H8    H     H_    0.614404 0.655207 0.906545 0.218700
H9    H     H_    0.344550 0.959222 0.906805 0.218202
H10   H     H_    0.391209 0.054149 0.403369 0.217743
H11   H     H_    0.660199 0.610020 0.403624 0.227007
H12   H     H_    0.836198 0.275009 0.389930 0.250853
H13   H     H_    0.988048 0.358866 0.664080 0.165900
H14   H     H_    0.640579 0.629097 0.664445 0.166251
H15   H     H_    0.371587 0.013647 0.664625 0.166200
H16   H     H_    0.363104 0.995518 0.163381 0.155685
H17   H     H_    0.631399 0.637581 0.162854 0.155230
H18   H     H_    0.971598 0.351435 0.156739 0.154760
H19   H     H_    0.965424 0.622041 0.663311 0.161527
H20   H     H_    0.377057 0.345845 0.662921 0.161522
H21   H     H_    0.654623 0.031232 0.662552 0.161478
H22   H     H_    0.640331 0.002550 0.157384 0.140531
H23   H     H_    0.362303 0.360789 0.158075 0.139284
H24   H     H_    0.959948 0.619531 0.150413 0.138939
N1    N     N_R   0.010016 0.436116 0.769802 -0.102406
N2    N     N_R   0.564180 0.572966 0.770080 -0.102100
N3    N     N_R   0.426574 0.990688 0.770035 -0.101938
N4    N     N_R   0.452757 0.037519 0.266642 -0.104761
N5    N     N_R   0.585810 0.547872 0.266274 -0.089148
N6    N     N_R   0.858636 0.362183 0.251995 -0.106608
N7    N     N_R   0.004499 0.432863 0.731356 -0.201642
N8    N     N_R   0.566866 0.571392 0.731603 -0.201338
N9    N     N_R   0.428634 0.995966 0.731584 -0.201214
N10   N     N_R   0.449581 0.032305 0.228208 -0.207419
N11   N     N_R   0.583145 0.551185 0.227855 -0.202139
N12   N     N_R   0.885726 0.376430 0.214941 -0.209449
N13   N     N_R   0.977825 0.566525 0.731888 -0.202974
N14   N     N_R   0.433905 0.411732 0.731683 -0.203073
N15   N     N_R   0.587855 0.020671 0.731455 -0.203287
N16   N     N_R   0.581251 0.002764 0.228083 -0.206140
N17   N     N_R   0.422327 0.420526 0.228423 -0.213776
N18   N     N_R   0.921681 0.539292 0.219863 -0.211745
N19   N     N_R   0.983275 0.569663 0.770384 -0.102349
N20   N     N_R   0.431339 0.413352 0.770210 -0.102460
N21   N     N_R   0.585749 0.015461 0.769958 -0.102873
N22   N     N_R   0.584294 0.007902 0.266630 -0.100634
N23   N     N_R   0.425029 0.417351 0.266924 -0.115851
N24   N     N_R   0.894766 0.524984 0.257019 -0.111960
O1    O     O_R   0.498680 0.159540 0.541860 -0.513927
O2    O     O_R   0.840460 0.339140 0.541860 -0.508641
O3    O     O_R   0.660860 0.501320 0.541860 -0.517296
O4    O     O_R   0.159540 0.498680 0.041860 -0.545615
O5    O     O_R   0.339140 0.840460 0.041860 -0.543428
O6    O     O_R   0.501320 0.660860 0.041860 -0.546589
O7    O     O_R   0.532760 0.358060 0.540030 -0.463820
O8    O     O_R   0.641940 0.174700 0.540030 -0.464391
O9    O     O_R   0.825300 0.467240 0.540030 -0.462694
O10   O     O_R   0.358060 0.532760 0.040030 -0.468780
O11   O     O_R   0.174700 0.641940 0.040030 -0.465788
O12   O     O_R   0.467240 0.825300 0.040030 -0.468766
O13   O     O_R   0.498590 0.161190 0.456930 -0.495284
O14   O     O_R   0.838810 0.337400 0.456930 -0.496599
O15   O     O_R   0.662600 0.501410 0.456930 -0.484240
O16   O     O_R   0.161190 0.498590 0.956930 -0.491805
O17   O     O_R   0.337400 0.838810 0.956930 -0.492175
O18   O     O_R   0.501410 0.662600 0.956930 -0.491525
O19   O     O_R   0.532680 0.359580 0.461300 -0.444291
O20   O     O_R   0.640420 0.173100 0.461300 -0.463169
O21   O     O_R   0.826900 0.467320 0.461300 -0.433728
O22   O     O_R   0.359580 0.532680 0.961300 -0.427637
O23   O     O_R   0.173100 0.640420 0.961300 -0.427288
O24   O     O_R   0.467320 0.826900 0.961300 -0.427569
O25   O     O_3   0.666667 0.333333 0.499990 -0.311250
O26   O     O_3   0.333333 0.666667 0.999990 -0.297917
O27   O     O_3   0.915273 0.610176 0.591231 -0.553752
C97   C     C_3   0.995129 0.672525 0.567071 0.022667
H25   H     H_    0.965982 0.699108 0.543607 0.168312
H26   H     H_    0.029929 0.633900 0.552399 0.119908
C98   C     C_3   0.071785 0.761512 0.589909 -0.279925
H27   H     H_    0.035899 0.799134 0.604191 0.188938
H28   H     H_    0.104401 0.736864 0.612715 0.162950
C99   C     C_3   0.153782 0.834139 0.563511 -0.464015
H29   H     H_    0.191550 0.798329 0.549333 0.156909
H30   H     H_    0.208178 0.897251 0.580940 0.155712
H31   H     H_    0.123730 0.862058 0.540913 0.167003
O28   O     O_3   0.389136 0.307657 0.590679 -0.553088
C100  C     C_3   0.327891 0.326460 0.566408 0.022740
H32   H     H_    0.301271 0.270764 0.542850 0.170549
H33   H     H_    0.367354 0.399523 0.551865 0.115428
C101  C     C_3   0.239017 0.316015 0.589072 -0.280921
H34   H     H_    0.200510 0.242804 0.603195 0.188695
H35   H     H_    0.263768 0.373230 0.611997 0.162720
C102  C     C_3   0.167558 0.326944 0.562557 -0.461117
H36   H     H_    0.204251 0.400281 0.548549 0.158149
H37   H     H_    0.104485 0.319513 0.579863 0.155350
H38   H     H_    0.139591 0.269108 0.539827 0.169929
O29   O     O_3   0.692782 0.081275 0.590391 -0.553176
C103  C     C_3   0.674085 0.001326 0.565859 0.023729
H39   H     H_    0.729706 0.029997 0.542278 0.172415
H40   H     H_    0.601121 0.968284 0.551363 0.116466
C104  C     C_3   0.684599 0.922728 0.588198 -0.280172
H41   H     H_    0.757719 0.956856 0.602270 0.188705
H42   H     H_    0.627474 0.890693 0.611142 0.162498
C105  C     C_3   0.673740 0.840367 0.561393 -0.463403
H43   H     H_    0.600495 0.804296 0.547428 0.156589
H44   H     H_    0.681222 0.784601 0.578465 0.154294
H45   H     H_    0.731483 0.869802 0.538631 0.169286
O30   O     O_3   0.621219 0.945330 0.083361 -0.547588
C106  C     C_3   0.653289 0.883624 0.099800 0.013673
H46   H     H_    0.641814 0.827537 0.077666 0.176921
H47   H     H_    0.612026 0.843057 0.126264 0.115382
C107  C     C_3   0.763109 0.943116 0.108462 -0.266190
H48   H     H_    0.803582 0.979301 0.081444 0.191441
H49   H     H_    0.777384 0.001187 0.130113 0.173921
C108  C     C_3   0.801656 0.877847 0.124105 -0.471468
H50   H     H_    0.762981 0.841623 0.151385 0.172298
H51   H     H_    0.881206 0.923176 0.130258 0.156820
H52   H     H_    0.790939 0.820878 0.102424 0.150435
O31   O     O_3   0.323637 0.379272 0.084223 -0.547564
C109  C     C_3   0.230489 0.348281 0.101047 0.013390
H53   H     H_    0.186190 0.360337 0.079126 0.176677
H54   H     H_    0.231591 0.389972 0.127546 0.115001
C110  C     C_3   0.179928 0.238311 0.109853 -0.266066
H55   H     H_    0.175957 0.197471 0.082895 0.191961
H56   H     H_    0.223082 0.223684 0.131539 0.172968
C111  C     C_3   0.076359 0.200586 0.125523 -0.471303
H57   H     H_    0.078407 0.239912 0.152654 0.172325
H58   H     H_    0.042130 0.120990 0.131933 0.157599
H59   H     H_    0.030665 0.211283 0.103740 0.149975
O32   O     O_3   0.050968 0.675301 0.082353 -0.547418
C112  C     C_3   0.108844 0.764174 0.102677 0.011133
H60   H     H_    0.173995 0.809798 0.084442 0.172337
H61   H     H_    0.136558 0.755702 0.131373 0.117733
C113  C     C_3   0.051333 0.818589 0.107856 -0.264722
H62   H     H_    0.026705 0.829497 0.079063 0.193327
H63   H     H_    0.985387 0.774116 0.126014 0.170942
C114  C     C_3   0.113779 0.918448 0.127065 -0.470024
H64   H     H_    0.138646 0.909432 0.156085 0.175353
H65   H     H_    0.069780 0.955614 0.130667 0.155084
H66   H     H_    0.178722 0.965463 0.108798 0.149367
F1    F     F_    0.976926 0.343624 0.836788 -0.533095
F2    F     F_    0.657188 0.630837 0.836974 -0.532615
F3    F     F_    0.368296 0.025309 0.837282 -0.532632
F4    F     F_    0.356442 0.002154 0.332150 -0.542524
F5    F     F_    0.643473 0.645132 0.332300 -0.526540
F6    F     F_    0.857622 0.276005 0.316443 -0.520785
F7    F     F_    0.104321 0.702485 0.907267 -0.538207
F8    F     F_    0.298732 0.401759 0.907304 -0.538547
F9    F     F_    0.596954 0.893616 0.906649 -0.538502
F10   F     F_    0.700433 0.097691 0.407987 -0.572714
F11   F     F_    0.405149 0.295006 0.406570 -0.552328
F12   F     F_    0.810476 0.551473 0.398765 -0.560584
F13   F     F_    0.042328 0.677766 0.833452 -0.511909
F14   F     F_    0.323989 0.363773 0.833453 -0.511681
F15   F     F_    0.634302 0.955632 0.832784 -0.512194
F16   F     F_    0.685121 0.052886 0.331882 -0.497057
F17   F     F_    0.375133 0.312230 0.331064 -0.520865
F18   F     F_    0.828905 0.567812 0.321052 -0.518774

loop_
_geom_bond_atom_site_label_1
_geom_bond_atom_site_label_2
_ccdc_geom_bond_type
C25   C31   A    
C7    N13   A    
C104  H41   S    
C24   H12   S    
Cr1   O25   S    
Cr3   O9    S    
Cr4   O22   S    
C71   C77   A    
C6    C58   S    
Cr5   O23   S    
C114  H64   S    
C87   O29   S    
C54   O17   A    
C25   C43   A    
C111  H58   S    
C97   H25   S    
C2    C57   S    
C26   C44   A    
C7    C73   S    
C15   F3    S    
C98   H27   S    
C27   C33   A    
C108  H52   S    
C26   C32   A    
C104  H42   S    
C28   C46   A    
C3    O2    A    
C33   C39   A    
C91   N1    A    
C29   C47   A    
C34   C40   A    
C30   C48   A    
C61   H1    S    
C1    C56   S    
C10   N10   A    
C7    N7    A    
C18   C42   A    
C89   O31   S    
C52   O22   A    
C107  H49   S    
C55   C85   A    
C98   C99   S    
Cr3   O21   S    
Cr5   O5    S    
C68   C74   A    
C5    O4    A    
C102  H37   S    
Cr3   O3    S    
C110  C111  S    
Cr1   O19   S    
C99   H29   S    
C34   F16   S    
C14   C20   A    
Cr4   O16   S    
C10   N16   A    
Cr5   O17   S    
C67   H13   S    
C39   C93   S    
C20   H8    S    
C72   C78   A    
C11   C77   S    
C21   H9    S    
N3    N9    A    
C10   C76   S    
C43   C53   S    
C48   C51   S    
C59   C89   A    
Cr2   O8    S    
C113  H63   S    
C103  H39   S    
Cr1   O13   S    
C12   C78   S    
Cr4   O26   S    
N18   N24   A    
C30   F12   S    
C93   N21   A    
C67   C73   A    
C32   C38   A    
C63   H3    S    
C26   F8    S    
C112  H60   S    
C13   C37   A    
C6    O5    A    
C2    O8    A    
C96   N6    A    
C102  H38   S    
C66   H6    S    
C44   C52   S    
C19   H7    S    
C28   C34   A    
O29   C103  S    
C88   O30   S    
C95   N5    A    
C90   O32   S    
C41   C95   S    
C84   C90   A    
C78   C84   A    
C83   H23   S    
C93   N3    A    
C92   N2    A    
C82   H22   S    
C111  H57   S    
C20   C44   A    
C19   C43   A    
C57   C63   A    
C21   C45   A    
C98   H28   S    
C94   N22   A    
C83   C89   A    
C104  C105  S    
C66   C72   A    
C23   C47   A    
C37   C91   S    
C92   N20   A    
C29   F11   S    
C24   C48   A    
C101  C102  S    
C35   F17   S    
C60   C90   A    
C47   C49   S    
C113  H62   S    
C76   C82   A    
C51   O21   A    
C9    N15   A    
C105  H43   S    
C75   C81   A    
C13   C19   A    
C80   H20   S    
C58   C64   A    
C108  H50   S    
C65   C71   A    
C8    N8    A    
C114  H65   S    
C62   H2    S    
C31   C37   A    
C16   C22   A    
O28   C100  S    
C5    O11   A    
C13   F1    S    
C100  C101  S    
C25   F7    S    
C64   C70   A    
C28   F10   S    
C49   O15   A    
O31   C109  S    
N5    N11   A    
N2    N8    A    
C23   H11   S    
C79   H19   S    
C61   C67   A    
C56   C86   A    
C106  H46   S    
C15   C21   A    
Cr6   O12   S    
C96   N24   A    
C32   F14   S    
C8    C74   S    
C110  H55   S    
Cr1   O1    S    
Cr3   O25   S    
C51   O14   A    
C50   O20   A    
C17   C23   A    
C1    O7    A    
C109  H54   S    
C112  H61   S    
N16   N22   A    
C15   C39   A    
C53   O23   A    
C12   N18   A    
C68   H14   S    
C14   F2    S    
C9    N9    A    
C103  H40   S    
C22   C46   A    
C16   C40   A    
C45   C54   S    
O30   C106  S    
C22   H10   S    
C72   H18   S    
C70   C76   A    
C18   C24   A    
C52   O18   A    
C108  H51   S    
N14   N20   A    
C14   C38   A    
C94   N4    A    
Cr6   O6    S    
C91   N19   A    
C27   F9    S    
C81   H21   S    
N6    N12   A    
Cr4   O4    S    
C2    O1    A    
C106  H47   S    
C46   C50   S    
N13   N19   A    
Cr6   O18   S    
C5    C60   S    
C4    O6    A    
C50   O13   A    
C107  H48   S    
C6    O12   A    
N4    N10   A    
N1    N7    A    
C40   C94   S    
Cr4   O10   S    
C73   C79   A    
C107  C108  S    
C58   C88   A    
C36   C42   A    
C17   F5    S    
C97   H26   S    
C113  C114  S    
C64   H4    S    
C95   N23   A    
C71   H17   S    
Cr6   O24   S    
C29   C35   A    
Cr2   O2    S    
C3    C55   S    
C109  C110  S    
C99   H31   S    
C31   F13   S    
C8    N14   A    
Cr2   O14   S    
C54   O24   A    
C84   H24   S    
Cr5   O11   S    
C11   N11   A    
C63   C69   A    
C30   C36   A    
C42   C96   S    
C101  H34   S    
C49   O19   A    
Cr2   O25   S    
C81   C87   A    
C105  H45   S    
C27   C45   A    
C4    O10   A    
C11   N17   A    
C70   H16   S    
C103  C104  S    
C82   C88   A    
C55   C61   A    
C4    C59   S    
C69   H15   S    
O32   C112  S    
C110  H56   S    
C79   C85   A    
C99   H30   S    
C69   C75   A    
C114  H66   S    
C56   C62   A    
C62   C68   A    
C36   F18   S    
C100  H32   S    
C35   C41   A    
C112  C113  S    
C17   C41   A    
C16   F4    S    
C1    O3    A    
C97   C98   S    
N15   N21   A    
C3    O9    A    
C60   C66   A    
C102  H36   S    
Cr2   O20   S    
C57   C87   A    
C80   C86   A    
N17   N23   A    
C106  C107  S    
C53   O16   A    
C85   O27   S    
O27   C97   S    
C33   F15   S    
C18   F6    S    
C77   C83   A    
C12   N12   A    
Cr5   O26   S    
C74   C80   A    
C9    C75   S    
C100  H33   S    
C105  H44   S    
Cr6   O26   S    
C109  H53   S    
C65   H5    S    
C111  H59   S    
C59   C65   A    
C86   O28   S    
C38   C92   S    
Cr1   O7    S    
Cr3   O15   S    
C101  H35   S    
