data_mof_unit_pretest_1599.cif
_audit_creation_date              2012-12-10T18:22:03-0500
_audit_creation_method            fapswitch 2.2
_symmetry_space_group_name_H-M    P1
_symmetry_Int_Tables_number       1
_space_group_crystal_system       triclinic
_cell_length_a                    23.427103
_cell_length_b                    23.427107
_cell_length_c                    51.738379
_cell_angle_alpha                 90.000071
_cell_angle_beta                  90.000062
_cell_angle_gamma                 89.999978
_cell_volume                      28395.5356745

loop_
_atom_site_label
_atom_site_type_symbol
_atom_type_description
_atom_site_fract_x
_atom_site_fract_y
_atom_site_fract_z
_atom_type_partial_charge
C1    C     C_R   0.000000 0.500000 0.179221 0.842570
C2    C     C_R   0.000000 0.500000 0.820779 0.842571
C3    C     C_R   0.500000 1.000000 0.179221 0.842571
C4    C     C_R   0.500000 0.000000 0.820779 0.842570
C5    C     C_R   0.500000 1.000000 0.679221 0.842572
C6    C     C_R   0.500000 0.000000 0.320779 0.842571
C7    C     C_R   1.000000 0.500000 0.679221 0.842571
C8    C     C_R   0.000000 0.500000 0.320779 0.842572
C9    C     C_R   0.000583 0.447796 0.390511 0.185335
C10   C     C_R   0.999465 0.447794 0.609489 0.185333
C11   C     C_R   0.552206 0.000544 0.390511 0.185333
C12   C     C_R   0.552205 0.999425 0.609489 0.185336
C13   C     C_R   0.999408 0.552206 0.390510 0.185334
C14   C     C_R   0.000534 0.552206 0.609489 0.185336
C15   C     C_R   0.447795 0.999461 0.390511 0.185335
C16   C     C_R   0.447794 0.000588 0.609489 0.185332
C17   C     C_R   0.500590 0.947796 0.890511 0.185333
C18   C     C_R   0.499465 0.947794 0.109489 0.185335
C19   C     C_R   0.052206 0.500546 0.890511 0.185337
C20   C     C_R   0.052205 0.499425 0.109489 0.185337
C21   C     C_R   0.499411 0.052206 0.890510 0.185340
C22   C     C_R   0.500536 0.052205 0.109489 0.185332
C23   C     C_R   0.947795 0.499453 0.890511 0.185331
C24   C     C_R   0.947794 0.500585 0.109489 0.185333
C25   C     C_R   0.000479 0.448459 0.363310 -0.237597
C26   C     C_R   0.999567 0.448458 0.636690 -0.237608
C27   C     C_R   0.551542 0.000441 0.363310 -0.237607
C28   C     C_R   0.551541 0.999528 0.636690 -0.237598
C29   C     C_R   0.999517 0.551542 0.363310 -0.237597
C30   C     C_R   0.000433 0.551542 0.636690 -0.237613
C31   C     C_R   0.448459 0.999562 0.363310 -0.237609
C32   C     C_R   0.448458 0.000478 0.636690 -0.237597
C33   C     C_R   0.500484 0.948459 0.863310 -0.237595
C34   C     C_R   0.499566 0.948457 0.136690 -0.237607
C35   C     C_R   0.051542 0.500444 0.863310 -0.237608
C36   C     C_R   0.051541 0.499529 0.136690 -0.237599
C37   C     C_R   0.499517 0.051542 0.863310 -0.237617
C38   C     C_R   0.500433 0.051541 0.136690 -0.237600
C39   C     C_R   0.948459 0.499557 0.863310 -0.237595
C40   C     C_R   0.948458 0.500475 0.136690 -0.237596
C41   C     C_R   0.999999 0.500000 0.349517 -0.098931
C42   C     C_R   1.000000 0.500000 0.650483 -0.098924
C43   C     C_R   0.500000 0.000001 0.349517 -0.098926
C44   C     C_R   0.500000 0.000001 0.650483 -0.098930
C45   C     C_R   0.500001 0.000000 0.849516 -0.098926
C46   C     C_R   0.500000 1.000000 0.150483 -0.098930
C47   C     C_R   0.000000 0.500001 0.849517 -0.098930
C48   C     C_R   1.000000 0.500000 0.150483 -0.098931
C49   C     C_R   0.999996 0.500001 0.404340 0.256315
C50   C     C_R   1.000000 0.500000 0.595660 0.256338
C51   C     C_R   0.500001 0.000003 0.404340 0.256335
C52   C     C_R   0.499999 0.000007 0.595660 0.256316
C53   C     C_R   0.500001 0.000001 0.904340 0.256329
C54   C     C_R   0.500001 0.999999 0.095660 0.256326
C55   C     C_R   0.000001 0.500000 0.904340 0.256322
C56   C     C_R   0.999999 0.500005 0.095660 0.256314
C57   C     C_R   0.895257 0.604742 0.250000 0.818164
C58   C     C_R   0.104743 0.395257 0.750000 0.818309
C59   C     C_R   0.395258 0.895258 0.250000 0.818167
C60   C     C_R   0.604742 0.104743 0.750000 0.818312
C61   C     C_R   0.104742 0.395257 0.250000 0.818163
C62   C     C_R   0.895257 0.604742 0.750000 0.818309
C63   C     C_R   0.604742 0.104742 0.250000 0.818166
C64   C     C_R   0.395257 0.895258 0.750000 0.818312
C65   C     C_R   0.895257 0.395257 0.750000 0.818167
C66   C     C_R   0.104742 0.604742 0.250000 0.818312
C67   C     C_R   0.395257 0.104742 0.750000 0.818164
C68   C     C_R   0.604742 0.895257 0.250000 0.818309
C69   C     C_R   0.104742 0.604742 0.750000 0.818166
C70   C     C_R   0.895257 0.395257 0.250000 0.818312
C71   C     C_R   0.604742 0.895258 0.750000 0.818163
C72   C     C_R   0.395258 0.104742 0.250000 0.818309
C73   C     C_1   0.149724 0.649724 0.250000 -0.170798
C74   C     C_1   0.850276 0.350276 0.750000 -0.171226
C75   C     C_1   0.350276 0.149724 0.250000 -0.170802
C76   C     C_1   0.649724 0.850276 0.750000 -0.171230
C77   C     C_1   0.850276 0.350276 0.250000 -0.170798
C78   C     C_1   0.149724 0.649724 0.750000 -0.171226
C79   C     C_1   0.649724 0.850276 0.250000 -0.170803
C80   C     C_1   0.350276 0.149724 0.750000 -0.171231
C81   C     C_1   0.149724 0.350276 0.750000 -0.170803
C82   C     C_1   0.850276 0.649724 0.250000 -0.171231
C83   C     C_1   0.350276 0.850276 0.750000 -0.170798
C84   C     C_1   0.649724 0.149724 0.250000 -0.171226
C85   C     C_1   0.850276 0.649724 0.750000 -0.170802
C86   C     C_1   0.149724 0.350276 0.250000 -0.171230
C87   C     C_1   0.649724 0.149724 0.750000 -0.170798
C88   C     C_1   0.350276 0.850276 0.250000 -0.171226
C89   C     C_1   0.187100 0.687100 0.250000 -0.001846
C90   C     C_1   0.812900 0.312900 0.750000 -0.002149
C91   C     C_1   0.312900 0.187100 0.250000 -0.001850
C92   C     C_1   0.687100 0.812900 0.750000 -0.002153
C93   C     C_1   0.812899 0.312900 0.250000 -0.001846
C94   C     C_1   0.187100 0.687100 0.750000 -0.002149
C95   C     C_1   0.687100 0.812899 0.250000 -0.001851
C96   C     C_1   0.312900 0.187100 0.750000 -0.002154
C97   C     C_1   0.187100 0.312899 0.750000 -0.001850
C98   C     C_1   0.812900 0.687100 0.250000 -0.002154
C99   C     C_1   0.312899 0.812900 0.750000 -0.001846
C100  C     C_1   0.687100 0.187100 0.250000 -0.002149
C101  C     C_1   0.812900 0.687100 0.750000 -0.001850
C102  C     C_1   0.187100 0.312900 0.250000 -0.002153
C103  C     C_1   0.687100 0.187100 0.750000 -0.001846
C104  C     C_1   0.312900 0.812900 0.250000 -0.002149
C105  C     C_1   0.231313 0.731313 0.250000 0.009333
C106  C     C_1   0.768688 0.268688 0.750000 0.009236
C107  C     C_1   0.268687 0.231313 0.250000 0.009329
C108  C     C_1   0.731312 0.768688 0.750000 0.009232
C109  C     C_1   0.768687 0.268687 0.250000 0.009333
C110  C     C_1   0.231312 0.731312 0.750000 0.009236
C111  C     C_1   0.731313 0.768687 0.250000 0.009329
C112  C     C_1   0.268688 0.231312 0.750000 0.009232
C113  C     C_1   0.231313 0.268687 0.750000 0.009329
C114  C     C_1   0.768688 0.731312 0.250000 0.009232
C115  C     C_1   0.268687 0.768687 0.750000 0.009333
C116  C     C_1   0.731312 0.231312 0.250000 0.009236
C117  C     C_1   0.768687 0.731313 0.750000 0.009329
C118  C     C_1   0.231312 0.268688 0.250000 0.009232
C119  C     C_1   0.731313 0.231313 0.750000 0.009333
C120  C     C_1   0.268688 0.768688 0.250000 0.009236
C121  C     C_R   0.449036 0.000030 0.054623 0.490375
C122  C     C_R   0.550966 0.000092 0.945377 0.490375
C123  C     C_R   0.999921 0.449039 0.054623 0.490382
C124  C     C_R   0.999958 0.550965 0.945377 0.490377
C125  C     C_R   0.550965 0.999969 0.054623 0.490372
C126  C     C_R   0.449037 0.999911 0.945377 0.490365
C127  C     C_R   0.000076 0.550968 0.054623 0.490370
C128  C     C_R   0.000042 0.449036 0.945377 0.490371
C129  C     C_R   0.949035 0.500035 0.554623 0.490370
C130  C     C_R   0.050961 0.500087 0.445377 0.490382
C131  C     C_R   0.499919 0.949042 0.554623 0.490381
C132  C     C_R   0.499960 0.050969 0.445377 0.490371
C133  C     C_R   0.050964 0.499965 0.554622 0.490367
C134  C     C_R   0.949032 0.499916 0.445377 0.490370
C135  C     C_R   0.500078 0.050971 0.554623 0.490370
C136  C     C_R   0.500041 0.949040 0.445377 0.490368
C137  C     C_R   0.552003 0.000038 0.027381 -0.018577
C138  C     C_R   0.447999 0.999977 0.972619 -0.018575
C139  C     C_R   0.000010 0.552005 0.027381 -0.018578
C140  C     C_R   0.999974 0.447999 0.972619 -0.018578
C141  C     C_R   0.447999 0.999962 0.027381 -0.018575
C142  C     C_R   0.552004 0.000025 0.972619 -0.018577
C143  C     C_R   0.999988 0.448001 0.027382 -0.018580
C144  C     C_R   0.000025 0.552004 0.972619 -0.018577
C145  C     C_R   0.052001 0.500033 0.527381 -0.018574
C146  C     C_R   0.947995 0.499982 0.472619 -0.018578
C147  C     C_R   0.500012 0.052008 0.527381 -0.018577
C148  C     C_R   0.499973 0.948002 0.472619 -0.018574
C149  C     C_R   0.947996 0.499968 0.527381 -0.018573
C150  C     C_R   0.052000 0.500020 0.472618 -0.018579
C151  C     C_R   0.499986 0.948003 0.527381 -0.018579
C152  C     C_R   0.500027 0.052007 0.472619 -0.018574
C153  C     C_R   0.500001 0.000000 0.013706 -0.019327
C154  C     C_R   0.500001 0.000001 0.986293 -0.019327
C155  C     C_R   0.999999 0.500003 0.013707 -0.019329
C156  C     C_R   1.000000 0.500002 0.986293 -0.019326
C157  C     C_R   0.999998 0.500001 0.513706 -0.019323
C158  C     C_R   0.999998 0.500001 0.486293 -0.019331
C159  C     C_R   0.499999 0.000005 0.513707 -0.019329
C160  C     C_R   0.500000 0.000005 0.486293 -0.019324
C161  C     C_R   0.603633 0.000062 0.013518 -0.161889
C162  C     C_R   0.396370 0.999939 0.986481 -0.161892
C163  C     C_R   0.000036 0.603634 0.013518 -0.161886
C164  C     C_R   0.999963 0.396371 0.986482 -0.161887
C165  C     C_R   0.396370 0.999939 0.013518 -0.161890
C166  C     C_R   0.603633 0.000063 0.986482 -0.161888
C167  C     C_R   0.999962 0.396371 0.013519 -0.161888
C168  C     C_R   0.000036 0.603634 0.986481 -0.161891
C169  C     C_R   0.103630 0.500052 0.513518 -0.161892
C170  C     C_R   0.896366 0.499949 0.486482 -0.161887
C171  C     C_R   0.500040 0.103637 0.513518 -0.161886
C172  C     C_R   0.499960 0.896373 0.486482 -0.161892
C173  C     C_R   0.896367 0.499949 0.513518 -0.161892
C174  C     C_R   0.103629 0.500053 0.486481 -0.161887
C175  C     C_R   0.499959 0.896374 0.513519 -0.161887
C176  C     C_R   0.500040 0.103636 0.486481 -0.161892
H1    H     H_    0.644253 0.000088 0.023512 0.191239
H2    H     H_    0.355750 0.999916 0.976488 0.191239
H3    H     H_    0.000048 0.644255 0.023511 0.191238
H4    H     H_    0.999947 0.355750 0.976489 0.191239
H5    H     H_    0.355749 0.999912 0.023511 0.191238
H6    H     H_    0.644253 0.000085 0.976488 0.191239
H7    H     H_    0.999950 0.355751 0.023512 0.191238
H8    H     H_    0.000053 0.644254 0.976488 0.191238
H9    H     H_    0.144250 0.500074 0.523511 0.191239
H10   H     H_    0.855746 0.499931 0.476489 0.191239
H11   H     H_    0.500053 0.144257 0.523511 0.191238
H12   H     H_    0.499942 0.855753 0.476489 0.191239
H13   H     H_    0.855746 0.499927 0.523512 0.191239
H14   H     H_    0.144249 0.500071 0.476488 0.191238
H15   H     H_    0.499945 0.855754 0.523512 0.191238
H16   H     H_    0.500058 0.144257 0.476488 0.191239
H17   H     H_    0.000645 0.408345 0.352877 0.170967
H18   H     H_    0.999438 0.408344 0.647123 0.170966
H19   H     H_    0.591656 0.000574 0.352876 0.170966
H20   H     H_    0.591655 0.999366 0.647123 0.170967
H21   H     H_    0.999352 0.591654 0.352876 0.170968
H22   H     H_    0.000561 0.591655 0.647124 0.170967
H23   H     H_    0.408345 0.999428 0.352876 0.170967
H24   H     H_    0.408345 0.000638 0.647124 0.170967
H25   H     H_    0.500651 0.908345 0.852877 0.170966
H26   H     H_    0.499437 0.908344 0.147124 0.170967
H27   H     H_    0.091656 0.500580 0.852876 0.170967
H28   H     H_    0.091655 0.499369 0.147123 0.170967
H29   H     H_    0.499348 0.091655 0.852876 0.170967
H30   H     H_    0.500561 0.091655 0.147124 0.170967
H31   H     H_    0.908346 0.499422 0.852876 0.170968
H32   H     H_    0.908345 0.500634 0.147124 0.170968
N1    N     N_R   0.500001 0.999999 0.067681 -0.355657
N2    N     N_R   0.500001 0.000002 0.932319 -0.355660
N3    N     N_R   0.999999 0.500004 0.067681 -0.355666
N4    N     N_R   0.000001 0.500001 0.932319 -0.355659
N5    N     N_R   0.999999 0.500000 0.567681 -0.355652
N6    N     N_R   0.999996 0.500002 0.432319 -0.355666
N7    N     N_R   0.499999 0.000006 0.567681 -0.355665
N8    N     N_R   0.500000 0.000004 0.432319 -0.355653
O1    O     O_3   0.000000 0.500000 0.250000 -0.426758
O2    O     O_3   0.000000 0.500000 0.750000 -0.426758
O3    O     O_3   0.500000 0.000000 0.250000 -0.426758
O4    O     O_3   0.500000 0.000000 0.750000 -0.426758
O5    O     O_R   0.044090 0.500000 0.192350 -0.641244
O6    O     O_R   0.955910 0.500000 0.807650 -0.641245
O7    O     O_R   0.500000 0.044090 0.192350 -0.641245
O8    O     O_R   0.500000 0.955910 0.807650 -0.641244
O9    O     O_R   0.955910 0.500000 0.192350 -0.641245
O10   O     O_R   0.044090 0.500000 0.807650 -0.641244
O11   O     O_R   0.500000 0.955910 0.192350 -0.641244
O12   O     O_R   0.500000 0.044090 0.807650 -0.641244
O13   O     O_R   0.544090 0.000000 0.692350 -0.641245
O14   O     O_R   0.455910 0.000000 0.307650 -0.641244
O15   O     O_R   0.000000 0.544090 0.692350 -0.641244
O16   O     O_R   0.000000 0.455910 0.307650 -0.641245
O17   O     O_R   0.455910 0.000000 0.692350 -0.641246
O18   O     O_R   0.544090 0.000000 0.307650 -0.641244
O19   O     O_R   0.000000 0.455910 0.692350 -0.641245
O20   O     O_R   0.000000 0.544090 0.307650 -0.641246
O21   O     O_R   0.893990 0.562090 0.235170 -0.624819
O22   O     O_R   0.106010 0.437910 0.764830 -0.624692
O23   O     O_R   0.437910 0.893990 0.235170 -0.624817
O24   O     O_R   0.562090 0.106010 0.764830 -0.624690
O25   O     O_R   0.106010 0.437910 0.235170 -0.624819
O26   O     O_R   0.893990 0.562090 0.764830 -0.624693
O27   O     O_R   0.562090 0.106010 0.235170 -0.624816
O28   O     O_R   0.437910 0.893990 0.764830 -0.624690
O29   O     O_R   0.893990 0.437910 0.764830 -0.624817
O30   O     O_R   0.106010 0.562090 0.235170 -0.624691
O31   O     O_R   0.437910 0.106010 0.764830 -0.624819
O32   O     O_R   0.562090 0.893990 0.235170 -0.624693
O33   O     O_R   0.106010 0.562090 0.764830 -0.624818
O34   O     O_R   0.893990 0.437910 0.235170 -0.624691
O35   O     O_R   0.562090 0.893990 0.764830 -0.624819
O36   O     O_R   0.437910 0.106010 0.235170 -0.624693
O37   O     O_R   0.393990 0.062090 0.735170 -0.624819
O38   O     O_R   0.606010 0.937910 0.264830 -0.624693
O39   O     O_R   0.937910 0.393990 0.735170 -0.624817
O40   O     O_R   0.062090 0.606010 0.264830 -0.624691
O41   O     O_R   0.606010 0.937910 0.735170 -0.624819
O42   O     O_R   0.393990 0.062090 0.264830 -0.624693
O43   O     O_R   0.062090 0.606010 0.735170 -0.624816
O44   O     O_R   0.937910 0.393990 0.264830 -0.624690
O45   O     O_R   0.393990 0.937910 0.264830 -0.624817
O46   O     O_R   0.606010 0.062090 0.735170 -0.624690
O47   O     O_R   0.937910 0.606010 0.264830 -0.624819
O48   O     O_R   0.062090 0.393990 0.735170 -0.624693
O49   O     O_R   0.606010 0.062090 0.264830 -0.624817
O50   O     O_R   0.393990 0.937910 0.735170 -0.624691
O51   O     O_R   0.062090 0.393990 0.264830 -0.624819
O52   O     O_R   0.937910 0.606010 0.735170 -0.624693
O53   O     O_2   0.399553 0.000357 0.067950 -0.568171
O54   O     O_2   0.600449 0.000475 0.932050 -0.568157
O55   O     O_2   0.999549 0.399557 0.067951 -0.568156
O56   O     O_2   0.999620 0.600448 0.932049 -0.568168
O57   O     O_2   0.600448 0.999643 0.067950 -0.568164
O58   O     O_2   0.399555 0.999526 0.932050 -0.568168
O59   O     O_2   0.000447 0.600451 0.067950 -0.568159
O60   O     O_2   0.000379 0.399553 0.932051 -0.568161
O61   O     O_2   0.899552 0.500366 0.567950 -0.568172
O62   O     O_2   0.100443 0.500466 0.432049 -0.568156
O63   O     O_2   0.499545 0.899559 0.567950 -0.568158
O64   O     O_2   0.499624 0.100451 0.432050 -0.568171
O65   O     O_2   0.100447 0.499634 0.567949 -0.568169
O66   O     O_2   0.899549 0.499537 0.432050 -0.568159
O67   O     O_2   0.500451 0.100453 0.567950 -0.568160
O68   O     O_2   0.500377 0.899557 0.432050 -0.568168
Zn1   Zn    Zn3+2 0.000000 0.563030 0.272130 0.987892
Zn2   Zn    Zn3+2 0.000000 0.436970 0.727870 0.987893
Zn3   Zn    Zn3+2 0.436970 0.000000 0.272130 0.987892
Zn4   Zn    Zn3+2 0.563030 0.000000 0.727870 0.987892
Zn5   Zn    Zn3+2 0.000000 0.436970 0.272130 0.987892
Zn6   Zn    Zn3+2 0.000000 0.563030 0.727870 0.987892
Zn7   Zn    Zn3+2 0.563030 0.000000 0.272130 0.987892
Zn8   Zn    Zn3+2 0.436970 0.000000 0.727870 0.987892
Zn9   Zn    Zn3+2 0.500000 0.063030 0.772130 0.987893
Zn10  Zn    Zn3+2 0.500000 0.936970 0.227870 0.987892
Zn11  Zn    Zn3+2 0.936970 0.500000 0.772130 0.987892
Zn12  Zn    Zn3+2 0.063030 0.500000 0.227870 0.987892
Zn13  Zn    Zn3+2 0.500000 0.936970 0.772130 0.987893
Zn14  Zn    Zn3+2 0.500000 0.063030 0.227870 0.987892
Zn15  Zn    Zn3+2 0.063030 0.500000 0.772130 0.987892
Zn16  Zn    Zn3+2 0.936970 0.500000 0.227870 0.987892
C177  C     C_3   0.000883 0.390732 0.404206 -0.405257
C178  C     C_3   0.059237 0.362131 0.402174 -0.823815
H33   H     H_    0.070358 0.353882 0.381644 0.254693
H34   H     H_    0.092540 0.389658 0.411004 0.292797
H35   H     H_    0.058410 0.320733 0.412617 0.247930
H36   H     H_    0.989829 0.394999 0.424965 0.214889
H37   H     H_    0.967967 0.362519 0.395475 0.209632
C179  C     C_3   0.999224 0.390731 0.595794 -0.405277
C180  C     C_3   0.940892 0.362081 0.597817 -0.823806
H38   H     H_    0.929762 0.353826 0.618345 0.254707
H39   H     H_    0.907574 0.389580 0.588981 0.292807
H40   H     H_    0.941761 0.320684 0.587375 0.247926
H41   H     H_    0.010291 0.395007 0.575037 0.214894
H42   H     H_    0.032156 0.362544 0.604530 0.209630
C181  C     C_3   0.609270 0.000793 0.404206 -0.405275
C182  C     C_3   0.637912 0.059128 0.402182 -0.823805
H43   H     H_    0.646166 0.070258 0.381654 0.254706
H44   H     H_    0.610410 0.092444 0.411017 0.292807
H45   H     H_    0.679310 0.058264 0.412624 0.247927
H46   H     H_    0.604995 0.989727 0.424963 0.214893
H47   H     H_    0.637460 0.967863 0.395470 0.209629
C183  C     C_3   0.609268 0.999132 0.595794 -0.405261
C184  C     C_3   0.637875 0.940781 0.597824 -0.823815
H48   H     H_    0.646124 0.929658 0.618354 0.254696
H49   H     H_    0.610351 0.907477 0.588994 0.292797
H50   H     H_    0.679273 0.941613 0.587382 0.247929
H51   H     H_    0.605000 0.010189 0.575035 0.214890
H52   H     H_    0.637478 0.032050 0.604526 0.209632
C185  C     C_3   0.999096 0.609270 0.404205 -0.405254
C186  C     C_3   0.940740 0.637865 0.402168 -0.823810
H53   H     H_    0.929623 0.646105 0.381637 0.254690
H54   H     H_    0.907438 0.610336 0.410997 0.292800
H55   H     H_    0.941559 0.679266 0.412608 0.247929
H56   H     H_    0.010142 0.605006 0.424965 0.214885
H57   H     H_    0.032013 0.637486 0.395476 0.209631
C187  C     C_3   0.000776 0.609270 0.595794 -0.405276
C188  C     C_3   0.059106 0.637920 0.597818 -0.823805
H58   H     H_    0.070240 0.646167 0.618346 0.254709
H59   H     H_    0.092425 0.610425 0.588979 0.292803
H60   H     H_    0.058234 0.679322 0.587380 0.247926
H61   H     H_    0.989709 0.604994 0.575037 0.214893
H62   H     H_    0.967842 0.637455 0.604531 0.209630
C189  C     C_3   0.390731 0.999212 0.404206 -0.405273
C190  C     C_3   0.362086 0.940878 0.402180 -0.823806
H63   H     H_    0.353837 0.929748 0.381652 0.254704
H64   H     H_    0.389586 0.907561 0.411017 0.292804
H65   H     H_    0.320686 0.941744 0.412620 0.247927
H66   H     H_    0.395006 0.010275 0.424963 0.214892
H67   H     H_    0.362542 0.032144 0.395471 0.209630
C191  C     C_3   0.390730 0.000892 0.595795 -0.405254
C192  C     C_3   0.362129 0.059245 0.597832 -0.823808
H68   H     H_    0.353885 0.070361 0.618363 0.254689
H69   H     H_    0.389654 0.092551 0.589003 0.292800
H70   H     H_    0.320729 0.058422 0.587391 0.247929
H71   H     H_    0.394996 0.989846 0.575035 0.214886
H72   H     H_    0.362517 0.967973 0.604524 0.209631
C193  C     C_3   0.500893 0.890732 0.904206 -0.405254
C194  C     C_3   0.559248 0.862134 0.902173 -0.823823
H73   H     H_    0.570368 0.853886 0.881643 0.254694
H74   H     H_    0.592551 0.889663 0.911002 0.292794
H75   H     H_    0.558424 0.820736 0.912616 0.247932
H76   H     H_    0.489841 0.894998 0.924965 0.214890
H77   H     H_    0.467978 0.862518 0.895475 0.209634
C195  C     C_3   0.499224 0.890730 0.095794 -0.405277
C196  C     C_3   0.440894 0.862079 0.097818 -0.823800
H78   H     H_    0.429765 0.853823 0.118346 0.254704
H79   H     H_    0.407574 0.889577 0.088983 0.292810
H80   H     H_    0.441763 0.820681 0.087376 0.247925
H81   H     H_    0.510290 0.895006 0.075037 0.214891
H82   H     H_    0.532158 0.862545 0.104530 0.209628
C197  C     C_3   0.109270 0.500798 0.904206 -0.405278
C198  C     C_3   0.137909 0.559134 0.902182 -0.823800
H83   H     H_    0.146162 0.570265 0.881654 0.254704
H84   H     H_    0.110405 0.592449 0.911017 0.292809
H85   H     H_    0.179307 0.558273 0.912624 0.247925
H86   H     H_    0.104996 0.489732 0.924963 0.214892
H87   H     H_    0.137462 0.467870 0.895470 0.209628
C199  C     C_3   0.109268 0.499134 0.095794 -0.405259
C200  C     C_3   0.137878 0.440785 0.097825 -0.823816
H88   H     H_    0.146127 0.429662 0.118354 0.254695
H89   H     H_    0.110355 0.407479 0.088994 0.292797
H90   H     H_    0.179275 0.441618 0.087382 0.247929
H91   H     H_    0.105000 0.510190 0.075035 0.214890
H92   H     H_    0.137477 0.532053 0.104526 0.209632
C201  C     C_3   0.499099 0.109270 0.904205 -0.405273
C202  C     C_3   0.440735 0.137852 0.902178 -0.823802
H93   H     H_    0.429592 0.146076 0.881648 0.254705
H94   H     H_    0.407448 0.110322 0.911018 0.292803
H95   H     H_    0.441558 0.179259 0.912612 0.247925
H96   H     H_    0.510165 0.105008 0.924963 0.214890
H97   H     H_    0.532001 0.137494 0.895470 0.209630
C203  C     C_3   0.500779 0.109269 0.095794 -0.405263
C204  C     C_3   0.559106 0.137926 0.097825 -0.823806
H98   H     H_    0.570222 0.146185 0.118354 0.254696
H99   H     H_    0.592434 0.110431 0.088994 0.292805
H100  H     H_    0.558238 0.179323 0.087382 0.247928
H101  H     H_    0.489726 0.104992 0.075035 0.214888
H102  H     H_    0.467838 0.137451 0.104526 0.209630
C205  C     C_3   0.890731 0.499196 0.904206 -0.405257
C206  C     C_3   0.862083 0.440866 0.902171 -0.823810
H103  H     H_    0.853826 0.429755 0.881641 0.254692
H104  H     H_    0.889584 0.407539 0.910999 0.292801
H105  H     H_    0.820687 0.441723 0.912614 0.247930
H106  H     H_    0.895006 0.510242 0.924965 0.214887
H107  H     H_    0.862544 0.532136 0.895476 0.209631
C207  C     C_3   0.890730 0.500887 0.095795 -0.405249
C208  C     C_3   0.862125 0.559238 0.097833 -0.823811
H108  H     H_    0.853881 0.570351 0.118364 0.254689
H109  H     H_    0.889647 0.592547 0.089005 0.292799
H110  H     H_    0.820724 0.558413 0.087393 0.247929
H111  H     H_    0.894996 0.489844 0.075035 0.214885
H112  H     H_    0.862519 0.467965 0.104523 0.209631

loop_
_geom_bond_atom_site_label_1
_geom_bond_atom_site_label_2
_ccdc_geom_bond_type
C40   H32   S    
C193  C194  S    
C17   C53   A    
C33   C45   A    
C131  C151  A    
C35   C47   A    
C188  H58   S    
C125  O57   S    
C177  C178  S    
C21   C201  S    
C157  C158  A    
C98   C114  S    
C1    O9    A    
C22   C38   A    
C198  H83   S    
C194  H75   S    
C1    O5    A    
C148  C160  A    
C7    C42   S    
O33   Zn15  S    
C61   O51   A    
C54   N1    S    
C169  C174  A    
C132  N8    A    
C15   C51   A    
C172  C175  A    
C69   O33   A    
O4    Zn8   S    
C207  H112  S    
C82   C98   T    
C71   O35   A    
C61   O25   A    
C134  C146  A    
O7    Zn14  S    
C186  H53   S    
C131  N7    A    
C184  H48   S    
C84   C100  T    
C91   C107  S    
C25   C41   A    
C28   C44   A    
C52   N7    S    
C182  H43   S    
C202  H94   S    
C162  C165  A    
C145  C157  A    
C11   C27   A    
O17   Zn8   S    
C137  C153  A    
C138  C162  A    
O18   Zn7   S    
C23   C55   A    
C63   O49   A    
O2    Zn6   S    
C87   C103  T    
C132  C152  A    
C202  H95   S    
C133  C145  A    
C37   C45   A    
C26   H18   S    
C188  H60   S    
C2    O10   A    
C39   C47   A    
C66   O30   A    
C40   C48   A    
C17   C193  S    
C127  O59   S    
C187  C188  S    
O2    Zn15  S    
C1    C48   S    
O1    Zn1   S    
C2    C47   S    
C24   C56   A    
C204  H98   S    
C3    C46   S    
C198  H85   S    
C63   C84   S    
O48   Zn2   S    
C74   C90   T    
C19   C35   A    
C196  H78   S    
C137  C161  A    
C14   C50   A    
C78   C94   T    
O27   Zn14  S    
O24   Zn9   S    
C65   O39   A    
C130  N6    A    
C140  C156  A    
C191  C192  S    
C136  O68   S    
C179  H41   S    
C197  H86   S    
C155  C156  A    
O49   Zn7   S    
O50   Zn8   S    
O20   Zn1   S    
C199  C200  S    
C57   O21   A    
C22   C203  S    
O45   Zn3   S    
C51   N8    S    
O46   Zn4   S    
O47   Zn1   S    
C192  H68   S    
C166  H6    S    
C19   C197  S    
C20   C56   A    
O25   Zn12  S    
C192  H70   S    
O26   Zn11  S    
C22   C54   A    
C68   O32   A    
C133  N5    A    
O39   Zn2   S    
C181  H46   S    
C31   C43   A    
C182  H45   S    
C182  H44   S    
C208  H110  S    
C177  H37   S    
C205  C206  S    
C195  C196  S    
O15   Zn6   S    
C187  H62   S    
C62   O52   A    
C67   O31   A    
C92   C108  S    
C183  H52   S    
C53   N2    S    
O14   Zn3   S    
C130  C150  A    
C122  N2    A    
C105  C120  T    
C34   C46   A    
C107  C118  T    
O21   Zn16  S    
C75   C91   T    
O22   Zn15  S    
C68   C79   S    
C126  O58   S    
C10   C179  S    
C70   C77   S    
C72   C75   S    
C88   C104  T    
C4    C45   S    
C180  H39   S    
C132  O64   S    
C204  H100  S    
C178  H34   S    
C60   O46   A    
C9    C49   A    
C8    C41   S    
C56   N3    S    
C196  H80   S    
C125  N1    A    
C200  H90   S    
C50   N5    S    
O41   Zn4   S    
C65   C74   S    
O42   Zn3   S    
C184  H49   S    
C151  C159  A    
C195  H81   S    
C144  C156  A    
C129  C149  A    
C203  H101  S    
C68   O38   A    
C142  C166  A    
C143  C155  A    
C139  C155  A    
C185  H56   S    
C142  C154  A    
C194  H74   S    
C143  C167  A    
C136  C148  A    
C60   O24   A    
C30   H22   S    
C66   O40   A    
C135  C147  A    
O8    Zn13  S    
C6    O14   A    
C163  H3    S    
C86   C102  T    
C121  O53   S    
C26   C42   A    
C123  O55   S    
C124  O56   S    
C3    O7    A    
C173  H13   S    
C58   O48   A    
C131  O63   S    
C108  C117  T    
C59   O45   A    
C206  H103  S    
C15   C31   A    
C146  C158  A    
C14   C187  S    
C16   C32   A    
C171  C176  A    
O3    Zn3   S    
O4    Zn4   S    
C139  C163  A    
C163  C168  A    
C128  C140  A    
C64   O50   A    
C141  C153  A    
C12   C183  S    
C191  H71   S    
C34   H26   S    
C18   C195  S    
C28   H20   S    
C198  H84   S    
C36   C48   A    
C208  H109  S    
C129  N5    A    
C38   C46   A    
C205  H107  S    
C190  H63   S    
C89   C105  S    
C57   C82   S    
C138  C154  A    
C97   C113  S    
C140  C164  A    
C93   C109  S    
C193  H77   S    
C197  H87   S    
C106  C119  T    
C100  C116  S    
C31   H23   S    
C9    C25   A    
C200  H88   S    
O23   Zn10  S    
C7    O15   A    
C134  O66   S    
O9    Zn16  S    
C186  H54   S    
C12   C28   A    
C13   C29   A    
C99   C115  S    
C71   C76   S    
C197  C198  S    
C2    O6    A    
O19   Zn2   S    
C15   C189  S    
C199  H91   S    
C109  C116  T    
C12   C52   A    
C55   N4    S    
C201  H97   S    
O13   Zn4   S    
C186  H55   S    
O6    Zn11  S    
C70   O34   A    
C16   C191  S    
C164  H4    S    
C69   O43   A    
C29   C41   A    
C70   O44   A    
C183  C184  S    
C181  C182  S    
C83   C99   T    
C17   C33   A    
C206  H105  S    
O1    Zn5   S    
C188  H59   S    
C7    O19   A    
C205  H106  S    
C145  C169  A    
C151  C175  A    
C121  C141  A    
C135  O67   S    
C90   C106  S    
C58   C81   S    
O16   Zn5   S    
C124  N4    A    
O43   Zn6   S    
C125  C137  A    
C49   N6    S    
C94   C110  S    
O12   Zn9   S    
C64   C83   S    
C79   C95   T    
C204  H99   S    
C159  C160  A    
C190  H65   S    
C170  H10   S    
C185  H57   S    
O32   Zn10  S    
C179  H42   S    
C174  H14   S    
C8    O20   A    
C5    C44   S    
C207  H111  S    
O37   Zn8   S    
C71   O41   A    
O38   Zn7   S    
C10   C50   A    
C3    O11   A    
C25   H17   S    
C201  C202  S    
C19   C55   A    
C65   O29   A    
O44   Zn5   S    
C57   O47   A    
C150  C158  A    
C141  C165  A    
C164  C167  A    
C67   C80   S    
C16   C52   A    
C203  C204  S    
C192  H69   S    
C64   O28   A    
C134  N6    A    
O11   Zn10  S    
C101  C117  S    
C202  H93   S    
C73   C89   T    
C32   H24   S    
C128  N4    A    
C33   H25   S    
C23   C205  S    
C177  H36   S    
C189  H67   S    
C77   C93   T    
C111  C114  T    
C4    O12   A    
C11   C181  S    
C176  H16   S    
C61   C86   S    
C122  O54   S    
C20   C36   A    
C27   C43   A    
O34   Zn16  S    
C21   C37   A    
C207  C208  S    
C30   C42   A    
C149  C157  A    
C110  C115  T    
C104  C120  S    
C170  C173  A    
O2    Zn2   S    
C189  C190  S    
C152  C160  A    
C72   O42   A    
C185  C186  S    
C147  C159  A    
O1    Zn12  S    
C180  H38   S    
C96   C112  S    
C178  H35   S    
O35   Zn13  S    
C24   C207  S    
C144  C168  A    
O10   Zn15  S    
C13   C185  S    
C196  H79   S    
C175  H15   S    
C23   C39   A    
C200  H89   S    
C195  H82   S    
C59   C88   S    
C128  O60   S    
C203  H102  S    
O3    Zn14  S    
C24   C40   A    
O4    Zn9   S    
C135  N7    A    
O5    Zn12  S    
C168  H8    S    
C39   H31   S    
C208  H108  S    
C129  O61   S    
C121  N1    A    
C80   C96   T    
C161  C166  A    
C102  C118  S    
C10   C26   A    
O3    Zn7   S    
C5    O17   A    
C189  H66   S    
C199  H92   S    
C69   C78   S    
C127  C139  A    
C14   C30   A    
C112  C113  T    
C60   C87   S    
C147  C171  A    
O28   Zn13  S    
C62   O26   A    
C67   O37   A    
C62   C85   S    
C167  H7    S    
C162  H2    S    
O51   Zn5   S    
O36   Zn14  S    
C206  H104  S    
C126  N2    A    
C4    O8    A    
C66   C73   S    
O29   Zn11  S    
C123  N3    A    
C130  O62   S    
C59   O23   A    
C9    C177  S    
C187  H61   S    
O2    Zn11  S    
O3    Zn10  S    
C183  H51   S    
C191  H72   S    
O4    Zn13  S    
C63   O27   A    
C32   C44   A    
C72   O36   A    
C18   C34   A    
C76   C92   T    
C13   C49   A    
C127  N3    A    
C150  C174  A    
C190  H64   S    
C29   H21   S    
C146  C170  A    
C5    O13   A    
C122  C142  A    
O52   Zn6   S    
C85   C101  T    
C179  C180  S    
C180  H40   S    
C193  H76   S    
C178  H33   S    
C126  C138  A    
C38   H30   S    
C103  C119  S    
O1    Zn16  S    
O31   Zn9   S    
C20   C199  S    
C171  H11   S    
C6    C43   S    
C184  H50   S    
C165  H5    S    
C169  H9    S    
C95   C111  S    
C181  H47   S    
C21   C53   A    
C8    O16   A    
C35   H27   S    
C37   H29   S    
C81   C97   T    
C172  H12   S    
C133  O65   S    
O30   Zn12  S    
C148  C172  A    
O40   Zn1   S    
C149  C173  A    
C6    O18   A    
C194  H73   S    
C11   C51   A    
C18   C54   A    
C201  H96   S    
C152  C176  A    
C27   H19   S    
C123  C143  A    
C124  C144  A    
C36   H28   S    
C153  C154  A    
C58   O22   A    
C161  H1    S    
C136  N8    A    
