data_mof_unit_pretest_60.cif
_audit_creation_date              2012-12-11T17:01:24-0500
_audit_creation_method            fapswitch 2.2
_symmetry_space_group_name_H-M    P1
_symmetry_Int_Tables_number       1
_space_group_crystal_system       triclinic
_cell_length_a                    19.4205
_cell_length_b                    7.102715
_cell_length_c                    17.579052
_cell_angle_alpha                 90.000835
_cell_angle_beta                  108.624335
_cell_angle_gamma                 90.000048
_cell_volume                      2297.84301883

loop_
_atom_site_label
_atom_site_type_symbol
_atom_type_description
_atom_site_fract_x
_atom_site_fract_y
_atom_site_fract_z
_atom_type_partial_charge
O1    O     O_R   0.413720 0.494330 0.415730 -0.537725
O2    O     O_R   0.586280 0.994330 0.584270 -0.537726
O3    O     O_R   0.560210 0.819300 0.430070 -0.543399
O4    O     O_R   0.439790 0.319300 0.569930 -0.543399
C1    C     C_R   0.581691 0.655507 0.414864 0.716461
C2    C     C_R   0.418310 0.155508 0.585137 0.716463
O5    O     O_R   0.412670 0.823730 0.406310 -0.541577
O6    O     O_R   0.587330 0.323730 0.593690 -0.541577
O7    O     O_R   0.437690 0.998790 0.560340 -0.538612
O8    O     O_R   0.562310 0.498790 0.439660 -0.538611
C3    C     C_R   0.385411 0.655212 0.383362 0.696831
C4    C     C_R   0.614589 0.155214 0.616638 0.696833
O9    O     O_3   0.508380 0.662350 0.550560 -0.375056
O10   O     O_3   0.491620 0.162350 0.449440 -0.375056
V1    V     V_3+5 0.498450 0.935370 0.490620 1.398905
V2    V     V_3+5 0.501550 0.435370 0.509380 1.398911
C5    C     C_R   0.699044 0.989542 0.737449 0.119193
C6    C     C_R   0.300955 0.489540 0.262549 0.119182
C7    C     C_R   0.681804 0.147070 0.686909 -0.114411
C8    C     C_R   0.318196 0.647067 0.313092 -0.114409
C9    C     C_R   0.730236 0.300564 0.706807 -0.179782
C10   C     C_R   0.269765 0.800563 0.293195 -0.179784
H1    H     H_    0.719302 0.425528 0.669887 0.137281
H2    H     H_    0.280700 0.925528 0.330117 0.137279
C11   C     C_R   0.795936 0.289051 0.771015 -0.173954
C12   C     C_R   0.204066 0.789053 0.228987 -0.173975
H3    H     H_    0.833188 0.406658 0.782120 0.130551
H4    H     H_    0.166815 0.906661 0.217883 0.130552
C13   C     C_R   0.815479 0.123078 0.816959 -0.100332
C14   C     C_R   0.184522 0.623080 0.183040 -0.100343
C15   C     C_R   0.764058 0.977861 0.800752 0.153804
C16   C     C_R   0.235941 0.477861 0.199246 0.153791
C17   C     C_3   0.772544 0.773934 0.786094 -0.433362
C18   C     C_3   0.227453 0.273935 0.213901 -0.433349
C19   C     C_3   0.701546 0.786655 0.717149 -0.413644
C20   C     C_3   0.298450 0.286653 0.282846 -0.413644
H5    H     H_    0.768639 0.684903 0.836568 0.197977
H6    H     H_    0.231357 0.184902 0.163426 0.197959
H7    H     H_    0.820380 0.745725 0.766053 0.163252
H8    H     H_    0.179616 0.245729 0.233941 0.163253
H9    H     H_    0.656678 0.705062 0.727886 0.186629
H10   H     H_    0.343317 0.205058 0.272109 0.186624
H11   H     H_    0.708259 0.765488 0.657223 0.165498
H12   H     H_    0.291736 0.265488 0.342772 0.165498
C21   C     C_R   0.321760 0.299257 0.632958 -0.208672
C22   C     C_R   0.678243 0.799263 0.367047 -0.208679
C23   C     C_R   0.369001 0.148259 0.634245 -0.106370
C24   C     C_R   0.631004 0.648255 0.365760 -0.106365
C25   C     C_R   0.369043 0.991323 0.682622 -0.185661
C26   C     C_R   0.630969 0.491305 0.317389 -0.185660
C27   C     C_R   0.323795 0.986155 0.730773 0.115238
C28   C     C_R   0.676217 0.486140 0.269237 0.115243
C29   C     C_R   0.275564 0.136536 0.728555 0.006669
C30   C     C_R   0.724445 0.636532 0.271454 0.006668
C31   C     C_R   0.273479 0.293356 0.678164 0.061813
C32   C     C_R   0.726528 0.793358 0.321846 0.061817
C33   C     C_R   0.326162 0.832391 0.781204 -0.191520
C34   C     C_R   0.673852 0.332367 0.218805 -0.191496
C35   C     C_R   0.281366 0.826315 0.829315 -0.147127
C36   C     C_R   0.718641 0.326304 0.170685 -0.147097
C37   C     C_R   0.232574 0.974198 0.828281 0.054261
C38   C     C_R   0.767428 0.474204 0.171717 0.054256
C39   C     C_R   0.229581 0.129777 0.776912 0.002806
C40   C     C_R   0.770427 0.629777 0.223096 0.002795
C41   C     C_R   0.181203 0.279382 0.774236 0.061580
C42   C     C_R   0.818810 0.779380 0.225779 0.061592
C43   C     C_R   0.178777 0.433403 0.723571 -0.241113
C44   C     C_R   0.821237 0.933404 0.276447 -0.241135
C45   C     C_R   0.223616 0.440945 0.674800 0.280564
C46   C     C_R   0.776394 0.940949 0.325215 0.280550
C47   C     C_R   0.187039 0.970398 0.877258 0.202855
C48   C     C_R   0.812951 0.470423 0.122727 0.202858
C49   C     C_R   0.136145 0.118164 0.871761 -0.128468
C50   C     C_R   0.863858 0.618173 0.128241 -0.128461
C51   C     C_R   0.134912 0.272157 0.821167 -0.213974
C52   C     C_R   0.865105 0.772151 0.178853 -0.213994
H13   H     H_    0.322295 0.420352 0.595709 0.163922
H14   H     H_    0.677702 0.920367 0.404291 0.163904
H15   H     H_    0.405606 0.874886 0.684218 0.128868
H16   H     H_    0.594410 0.374858 0.315795 0.128866
H17   H     H_    0.362580 0.715493 0.783195 0.138031
H18   H     H_    0.637439 0.215453 0.216818 0.138017
H19   H     H_    0.285154 0.702912 0.866347 0.186118
H20   H     H_    0.714853 0.202898 0.133650 0.186106
H21   H     H_    0.096780 0.386124 0.817330 0.149316
H22   H     H_    0.903250 0.886104 0.182703 0.149265
H23   H     H_    0.141132 0.547833 0.720982 0.133583
H24   H     H_    0.858887 0.047833 0.279042 0.133563
O11   O     O_R   0.937800 0.775460 0.060470 -0.536543
O12   O     O_R   0.062200 0.275460 0.939530 -0.536539
O13   O     O_R   0.087350 0.441340 0.093710 -0.545295
O14   O     O_R   0.912650 0.941340 0.906290 -0.545296
C53   C     C_R   0.114700 0.610319 0.116458 0.727100
C54   C     C_R   0.885301 0.110317 0.883542 0.727103
O15   O     O_R   0.939820 0.446010 0.069950 -0.518860
O16   O     O_R   0.060180 0.946010 0.930050 -0.518846
O17   O     O_R   0.913690 0.271230 0.915700 -0.529902
O18   O     O_R   0.086310 0.771230 0.084300 -0.529908
C55   C     C_R   0.916373 0.613396 0.082268 0.743567
C56   C     C_R   0.083628 0.113393 0.917732 0.743561
O19   O     O_3   0.991670 0.603050 0.949510 -0.373559
O20   O     O_3   0.008330 0.103050 0.050490 -0.373574
V3    V     V_3+5 0.001550 0.329940 0.009370 1.481881
V4    V     V_3+5 0.998450 0.829940 0.990630 1.481891
Br1   Br    Br    0.199511 0.771887 0.956366 -0.588222
Br2   Br    Br    0.800440 0.271991 0.043569 -0.588195
N1    N     N_2   0.217908 0.597434 0.622457 -0.520638
H25   H     H_    0.203610 0.721293 0.644168 0.267219
C57   C     C_3   0.173116 0.562820 0.540480 -0.581167
H26   H     H_    0.115808 0.538770 0.537721 0.194981
H27   H     H_    0.192972 0.438375 0.515370 0.201840
H28   H     H_    0.175189 0.687054 0.502923 0.200402
N2    N     N_2   0.782116 0.097426 0.377572 -0.520625
H29   H     H_    0.796433 0.221279 0.355876 0.267201
C58   C     C_3   0.826905 0.062757 0.459547 -0.581082
H30   H     H_    0.884199 0.038446 0.462291 0.194967
H31   H     H_    0.806982 0.938430 0.484670 0.201830
H32   H     H_    0.824913 0.187068 0.497100 0.200377

loop_
_geom_bond_atom_site_label_1
_geom_bond_atom_site_label_2
_ccdc_geom_bond_type
C49   C56   S    
C42   C44   A    
C39   C41   A    
C49   C51   A    
C20   H10   S    
O1    C3    A    
O2    C4    A    
C2    O7    A    
C45   N1    S    
C23   C25   A    
O5    C3    A    
C17   H7    S    
C50   C52   A    
O11   C55   A    
C18   H8    S    
C7    C9    A    
C35   H19   S    
C14   C53   S    
C57   H27   S    
C13   C54   S    
C36   H20   S    
O15   C55   A    
C33   C35   A    
C41   C43   A    
C34   C36   A    
C58   H30   S    
C36   C38   A    
C37   C39   A    
C38   C40   A    
C17   C19   S    
C51   H21   S    
O15   V3    S    
C25   C27   A    
C26   C28   A    
N1    H25   S    
C15   C17   S    
C27   C33   A    
C19   H11   S    
C18   C20   S    
C37   C47   A    
C21   C23   A    
O6    V2    S    
N1    C57   S    
C48   Br2   S    
O12   C56   A    
C28   C30   A    
C22   C24   A    
C29   C31   A    
C46   N2    S    
C11   C13   A    
C1    C24   S    
C30   C32   A    
C3    C8    S    
C35   C37   A    
C2    C23   S    
C34   H18   S    
C48   C50   A    
C57   H28   S    
C22   H14   S    
O5    V1    S    
C54   O17   A    
C58   H31   S    
C17   H5    S    
C25   H15   S    
C43   C45   A    
C40   C42   A    
O4    V2    S    
O13   C53   A    
O6    C4    A    
C58   H32   S    
C42   C52   A    
O14   C54   A    
C38   C48   A    
O1    V2    S    
O17   V3    S    
O20   V4    S    
O2    V1    S    
C31   C45   A    
C28   C34   A    
O4    C2    A    
C8    C10   A    
C12   C14   A    
O19   V4    S    
C32   C46   A    
C47   Br1   S    
O11   V4    S    
C44   H24   S    
C10   H2    S    
C20   H12   S    
C6    C16   A    
C52   H22   S    
O3    V1    S    
C47   C49   A    
N2    H29   S    
O16   V4    S    
C9    C11   A    
C18   H6    S    
C43   H23   S    
O13   V3    S    
O3    C1    A    
C26   H16   S    
C50   C55   S    
C11   H3    S    
C12   H4    S    
C41   C51   A    
C9    H1    S    
O7    V1    S    
C1    O8    A    
C13   C15   A    
O8    V2    S    
C57   H26   S    
C14   C16   A    
C29   C39   A    
C30   C40   A    
C5    C15   A    
O16   C56   A    
C4    C7    S    
C24   C26   A    
C5    C7    A    
C6    C8    A    
O20   V3    S    
C19   H9    S    
C33   H17   S    
O12   V3    S    
O14   V4    S    
C21   C31   A    
O19   V3    S    
C10   C12   A    
O9    V2    S    
C22   C32   A    
C44   C46   A    
O10   V1    S    
C21   H13   S    
C5    C19   S    
C27   C29   A    
C6    C20   S    
C53   O18   A    
O18   V4    S    
C16   C18   S    
N2    C58   S    
