data_mof_unit_pretest_278.cif
_audit_creation_date              2012-12-10T17:43:37-0500
_audit_creation_method            fapswitch 2.2
_symmetry_space_group_name_H-M    P1
_symmetry_Int_Tables_number       1
_space_group_crystal_system       triclinic
_cell_length_a                    15.001072
_cell_length_b                    10.614472
_cell_length_c                    9.91728
_cell_angle_alpha                 90.050178
_cell_angle_beta                  90.014006
_cell_angle_gamma                 91.63459
_cell_volume                      1578.46996782

loop_
_atom_site_label
_atom_site_type_symbol
_atom_type_description
_atom_site_fract_x
_atom_site_fract_y
_atom_site_fract_z
_atom_type_partial_charge
C1    C     C_R   0.498682 0.260737 0.499849 0.868397
C2    C     C_R   0.184893 0.494399 0.377170 -0.256833
C3    C     C_R   0.230760 0.496123 0.500010 -0.072458
C4    C     C_R   0.326724 0.498668 0.499995 0.841432
C5    C     C_R   0.184969 0.495509 0.622877 -0.278295
C6    C     C_R   0.333929 0.123729 0.555538 -0.195759
C7    C     C_R   0.256210 0.054375 0.586065 -0.142930
C8    C     C_R   0.257327 0.923314 0.589865 -0.124911
C9    C     C_R   0.336045 0.861296 0.562340 -0.155351
C10   C     C_R   0.415524 0.930337 0.531446 0.064911
C11   C     C_R   0.414509 0.062177 0.529470 0.098180
C12   C     C_R   0.907336 0.496607 0.623807 0.118976
C13   C     C_R   0.494451 0.128416 0.499007 -0.123038
C14   C     C_R   0.572752 0.068729 0.466557 -0.210920
C15   C     C_R   0.574161 0.939775 0.466611 0.130031
C16   C     C_R   0.499822 0.739336 0.500036 0.918845
C17   C     C_R   0.496189 0.871616 0.500099 -0.153384
C18   C     C_R   0.382384 0.335863 0.139920 -0.155088
C19   C     C_R   0.324048 0.255565 0.069606 -0.195543
C20   C     C_R   0.323994 0.255690 0.930019 -0.191593
C21   C     C_R   0.382290 0.336113 0.860048 -0.154186
C22   C     C_R   0.441962 0.419272 0.927730 0.166931
C23   C     C_R   0.953653 0.494312 0.253792 -0.204572
C24   C     C_R   0.441996 0.419234 0.072262 0.166982
C25   C     C_R   0.555591 0.577162 0.071586 -0.108583
C26   C     C_R   0.555583 0.577104 0.928489 -0.111757
C27   C     C_R   0.673294 0.499732 0.500002 0.922315
C28   C     C_R   0.815165 0.498207 0.622869 -0.239977
C29   C     C_R   0.769294 0.498530 0.500024 -0.066276
C30   C     C_R   0.815105 0.497233 0.377186 -0.227709
C31   C     C_R   0.907269 0.495608 0.376261 0.118746
C32   C     C_R   0.953651 0.495425 0.500036 0.060426
C33   C     C_R   0.046247 0.493346 0.253789 -0.214586
C34   C     C_R   0.092699 0.493826 0.376254 0.116479
C35   C     C_R   0.046375 0.494530 0.500037 0.063001
C36   C     C_R   0.092775 0.494904 0.623812 0.116604
C37   C     C_R   0.046392 0.495438 0.746280 -0.219171
C38   C     C_R   0.953793 0.496334 0.746278 -0.208700
H1    H     H_    0.779369 0.499224 0.717858 0.163535
H2    H     H_    0.378829 0.330365 0.753314 0.201478
H3    H     H_    0.779261 0.497520 0.282192 0.165621
H4    H     H_    0.601021 0.640127 0.874809 0.156180
H5    H     H_    0.918386 0.494299 0.158378 0.143588
H6    H     H_    0.081480 0.492663 0.158378 0.144368
H7    H     H_    0.220708 0.494159 0.282168 0.167858
H8    H     H_    0.220842 0.496173 0.717868 0.169698
H9    H     H_    0.081680 0.495576 0.841686 0.145187
H10   H     H_    0.918579 0.497086 0.841695 0.143942
H11   H     H_    0.633083 0.122893 0.442538 0.166191
H12   H     H_    0.330149 0.225190 0.551087 0.113920
H13   H     H_    0.194935 0.102450 0.606234 0.142854
H14   H     H_    0.196926 0.869458 0.613208 0.145396
H15   H     H_    0.333890 0.759514 0.564828 0.137651
H16   H     H_    0.601032 0.640232 0.125372 0.165983
H17   H     H_    0.378861 0.329568 0.246845 0.202875
H18   H     H_    0.278792 0.192629 0.123950 0.158037
H19   H     H_    0.278704 0.192874 0.875425 0.159010
I1    I     I_    0.696843 0.854084 0.419227 -0.393869
N1    N     N_R   0.499150 0.498800 0.142780 -0.124303
N2    N     N_R   0.499120 0.498720 0.857170 -0.123756
O1    O     O_R   0.500000 0.316780 0.614690 -0.630314
O2    O     O_R   0.499990 0.316750 0.385360 -0.633476
O3    O     O_R   0.367850 0.499980 0.614680 -0.652738
O4    O     O_R   0.367840 0.499960 0.385350 -0.644393
O5    O     O_R   0.500010 0.683250 0.614640 -0.611676
O6    O     O_R   0.500000 0.683220 0.385310 -0.597101
O7    O     O_R   0.632160 0.500040 0.614650 -0.621477
O8    O     O_R   0.632150 0.500020 0.385320 -0.616848
Zn1   Zn    Zn3+2 0.500010 0.500020 0.653130 0.944575
Zn2   Zn    Zn3+2 0.499990 0.499980 0.346870 0.951367

loop_
_geom_bond_atom_site_label_1
_geom_bond_atom_site_label_2
_ccdc_geom_bond_type
C19   H18   S    
C1    C13   S    
C5    C36   A    
C30   H3    S    
C6    C7    A    
C27   O8    A    
O4    Zn2   S    
C27   C29   S    
C29   C30   A    
C9    C10   A    
C4    O4    A    
C38   H10   S    
C31   C32   A    
C33   H6    S    
C9    H15   S    
C1    O2    A    
C2    C34   A    
C2    C3    A    
C20   H19   S    
C3    C5    A    
C7    H13   S    
C7    C8    A    
C21   C22   A    
C6    H12   S    
O7    Zn1   S    
C12   C38   A    
C11   C13   A    
C4    O3    A    
C26   H4    S    
O6    Zn2   S    
C21   H2    S    
N2    Zn1   S    
C12   C28   A    
C24   N1    A    
C18   C24   A    
C18   H17   S    
N1    Zn2   S    
C36   C37   A    
C37   C38   A    
C33   C34   A    
C2    H7    S    
C22   N2    A    
C30   C31   A    
C15   I1    S    
C22   C24   A    
C14   H11   S    
C37   H9    S    
C10   C11   A    
C10   C17   A    
C3    C4    S    
C32   C35   A    
O3    Zn1   S    
C27   O7    A    
C20   C21   A    
O2    Zn2   S    
O8    Zn2   S    
C34   C35   A    
C5    H8    S    
O1    Zn1   S    
C6    C11   A    
C15   C17   A    
C18   C19   A    
C8    H14   S    
C14   C15   A    
C28   C29   A    
C16   O6    A    
C16   O5    A    
C25   N1    A    
C28   H1    S    
O5    Zn1   S    
C25   C26   A    
C13   C14   A    
C23   H5    S    
C26   N2    A    
C25   H16   S    
C12   C32   A    
C19   C20   A    
C16   C17   S    
C23   C31   A    
C8    C9    A    
C23   C33   A    
C35   C36   A    
C1    O1    A    
