data_mof_unit_pretest_1442.cif
_audit_creation_date              2012-12-10T17:01:10-0500
_audit_creation_method            fapswitch 2.2
_symmetry_space_group_name_H-M    P1
_symmetry_Int_Tables_number       1
_space_group_crystal_system       triclinic
_cell_length_a                    16.062873
_cell_length_b                    15.286362
_cell_length_c                    9.870922
_cell_angle_alpha                 89.989633
_cell_angle_beta                  59.908507
_cell_angle_gamma                 90.009284
_cell_volume                      2097.07787285

loop_
_atom_site_label
_atom_site_type_symbol
_atom_type_description
_atom_site_fract_x
_atom_site_fract_y
_atom_site_fract_z
_atom_type_partial_charge
C1    C     C_R   0.369972 0.116042 0.563362 0.732684
C2    C     C_R   0.628766 0.882510 0.437461 0.779172
C3    C     C_R   0.629471 0.117477 0.436934 0.721571
C4    C     C_R   0.369662 0.884893 0.563133 0.783153
C5    C     C_R   0.868442 0.614597 0.564145 0.767912
C6    C     C_R   0.129018 0.383015 0.437571 0.724440
C7    C     C_R   0.129100 0.617767 0.437782 0.711043
C8    C     C_R   0.873225 0.380748 0.561922 0.789411
C9    C     C_2   0.510299 0.999941 0.915709 -0.074300
C10   C     C_2   0.489652 0.000371 0.084518 -0.035060
C11   C     C_2   0.010124 0.501131 0.916111 -0.078870
C12   C     C_2   0.989431 0.499991 0.084856 -0.032309
C13   C     C_2   0.283558 0.833844 0.604201 0.199448
C14   C     C_2   0.711689 0.176408 0.396074 0.196078
C15   C     C_2   0.698034 0.812051 0.401373 0.203769
C16   C     C_2   0.298903 0.184776 0.601915 0.140453
C17   C     C_2   0.795216 0.318604 0.602918 0.191071
C18   C     C_2   0.211894 0.675381 0.400945 0.212067
C19   C     C_2   0.200859 0.315154 0.402061 0.183607
C20   C     C_2   0.794471 0.681009 0.604071 0.140692
C21   C     C_2   0.290177 0.769367 0.506522 0.366793
C22   C     C_2   0.706467 0.232600 0.505355 0.294449
C23   C     C_2   0.725765 0.790183 0.505035 0.250945
C24   C     C_2   0.269355 0.206085 0.500371 0.293268
C25   C     C_2   0.797250 0.266641 0.491575 0.370905
C26   C     C_2   0.202540 0.735418 0.508883 0.283317
C27   C     C_2   0.224952 0.292427 0.509805 0.333857
C28   C     C_2   0.766825 0.702362 0.500129 0.251660
Cu1   Cu    Cu3+1 0.522650 1.000000 0.349410 0.960009
Cu2   Cu    Cu3+1 0.477350 1.000000 0.650590 0.947841
Cu3   Cu    Cu3+1 0.022650 0.500000 0.349410 0.964978
Cu4   Cu    Cu3+1 0.977350 0.500000 0.650590 0.936945
H1    H     H_    0.626962 0.999246 0.032477 0.187387
H2    H     H_    0.373021 0.000745 0.967119 0.198175
H3    H     H_    0.126932 0.500631 0.032309 0.183660
H4    H     H_    0.873018 0.498009 0.967151 0.195296
H5    H     H_    0.415405 0.000842 0.177727 0.187170
H6    H     H_    0.584683 0.999459 0.822828 0.181871
H7    H     H_    0.914974 0.499238 0.178024 0.187514
H8    H     H_    0.084543 0.503199 0.823902 0.167417
N1    N     N_2   0.443290 1.000000 0.876860 -0.279203
N2    N     N_2   0.556710 0.000000 0.123140 -0.291743
N3    N     N_2   0.943290 0.500000 0.876860 -0.283565
N4    N     N_2   0.056710 0.500000 0.123140 -0.288596
O1    O     O_R   0.422430 0.089640 0.419570 -0.544537
O2    O     O_R   0.577570 0.910360 0.580430 -0.546213
O3    O     O_R   0.577570 0.089640 0.580430 -0.601336
O4    O     O_R   0.422430 0.910360 0.419570 -0.554821
O5    O     O_R   0.922430 0.589640 0.419570 -0.551305
O6    O     O_R   0.077570 0.410360 0.580430 -0.551703
O7    O     O_R   0.077570 0.589640 0.580430 -0.611179
O8    O     O_R   0.922430 0.410360 0.419570 -0.543665
O9    O     O_R   0.384170 0.089650 0.673910 -0.577014
O10   O     O_R   0.615830 0.910350 0.326090 -0.552763
O11   O     O_R   0.615830 0.089650 0.326090 -0.578178
O12   O     O_R   0.384170 0.910350 0.673910 -0.564488
O13   O     O_R   0.884170 0.589650 0.673910 -0.559748
O14   O     O_R   0.115830 0.410350 0.326090 -0.567902
O15   O     O_R   0.115830 0.589650 0.326090 -0.572246
O16   O     O_R   0.884170 0.410350 0.673910 -0.587027
O17   O     O_3   0.626230 0.286722 0.577100 -0.597887
C29   C     C_3   0.558812 0.257930 0.729130 0.072749
H9    H     H_    0.555500 0.306403 0.814449 0.210480
H10   H     H_    0.575099 0.193319 0.762376 0.157017
C30   C     C_3   0.460240 0.256904 0.744824 -0.699200
H11   H     H_    0.411297 0.212837 0.841757 0.238306
H12   H     H_    0.430489 0.324112 0.768656 0.208279
H13   H     H_    0.466327 0.235027 0.633448 0.267851
O18   O     O_3   0.380793 0.738018 0.397558 -0.561284
C31   C     C_3   0.400097 0.660817 0.456712 0.069003
H14   H     H_    0.449830 0.619604 0.356008 0.176054
H15   H     H_    0.334808 0.620172 0.528898 0.097252
C32   C     C_3   0.450142 0.681674 0.549574 -0.858161
H16   H     H_    0.472927 0.619972 0.580654 0.204635
H17   H     H_    0.514654 0.722679 0.478167 0.265422
H18   H     H_    0.400461 0.716372 0.659690 0.243212
O19   O     O_3   0.281386 0.147642 0.383849 -0.545430
C33   C     C_3   0.207952 0.083634 0.450263 0.071844
H19   H     H_    0.137343 0.111447 0.540342 0.108052
H20   H     H_    0.229260 0.031391 0.504910 0.107567
C34   C     C_3   0.193932 0.042389 0.322738 -0.741935
H21   H     H_    0.258393 0.004489 0.240804 0.219922
H22   H     H_    0.131616 0.996919 0.376284 0.201000
H23   H     H_    0.180446 0.093799 0.256526 0.261884
O20   O     O_3   0.718096 0.851517 0.614515 -0.556229
C35   C     C_3   0.805141 0.899422 0.548666 0.120665
H24   H     H_    0.814631 0.939136 0.447201 0.080926
H25   H     H_    0.868390 0.855266 0.509193 0.144502
C36   C     C_3   0.803177 0.960979 0.671108 -0.816907
H26   H     H_    0.783142 0.924718 0.780642 0.261183
H27   H     H_    0.875271 0.990830 0.626885 0.197676
H28   H     H_    0.750261 0.013810 0.696293 0.208077
O21   O     O_3   0.123230 0.790786 0.569709 -0.609274
C37   C     C_3   0.048264 0.763271 0.717371 0.049898
H29   H     H_    0.041027 0.809051 0.808822 0.191351
H30   H     H_    0.058356 0.698020 0.756423 0.159484
C38   C     C_3   0.955240 0.768430 0.713927 -0.689859
H31   H     H_    0.898031 0.730981 0.812718 0.245520
H32   H     H_    0.932634 0.837693 0.721631 0.224767
H33   H     H_    0.966747 0.742146 0.601380 0.250059
O22   O     O_3   0.885938 0.243979 0.364274 -0.558192
C39   C     C_3   0.916778 0.163684 0.396809 0.045164
H34   H     H_    0.959208 0.127648 0.285247 0.172106
H35   H     H_    0.856466 0.119402 0.475372 0.106342
C40   C     C_3   0.982419 0.179050 0.464449 -0.869798
H36   H     H_    0.006049 0.114998 0.485646 0.212895
H37   H     H_    0.046301 0.217639 0.381124 0.275921
H38   H     H_    0.944089 0.213863 0.577746 0.215810
O23   O     O_3   0.776294 0.642023 0.387887 -0.571195
C41   C     C_3   0.701645 0.579328 0.459997 0.087195
H39   H     H_    0.632339 0.608616 0.551343 0.112765
H40   H     H_    0.723133 0.527203 0.515059 0.138160
C42   C     C_3   0.683382 0.537740 0.337272 -0.738959
H41   H     H_    0.748754 0.503216 0.248252 0.223632
H42   H     H_    0.623663 0.489709 0.394045 0.208204
H43   H     H_    0.663172 0.588773 0.278859 0.258172
O24   O     O_3   0.209198 0.350294 0.629278 -0.557852
C43   C     C_3   0.273369 0.422565 0.567634 0.067173
H44   H     H_    0.231048 0.483917 0.605842 0.135745
H45   H     H_    0.316767 0.425347 0.437405 0.083017
C44   C     C_3   0.342764 0.421766 0.629691 -0.771656
H46   H     H_    0.393053 0.366025 0.576832 0.256683
H47   H     H_    0.385584 0.482911 0.596153 0.181815
H48   H     H_    0.302651 0.415984 0.759350 0.257826
O25   O     O_3   0.785837 0.187413 0.241331 -0.545134
C45   C     C_3   0.823046 0.106834 0.164340 0.096527
H49   H     H_    0.774650 0.076514 0.128233 0.169230
H50   H     H_    0.836179 0.060669 0.238911 0.086800
C46   C     C_3   0.917464 0.123301 0.013756 -0.817224
H51   H     H_    0.969914 0.154121 0.040384 0.251521
H52   H     H_    0.947507 0.060498 0.951791 0.191138
H53   H     H_    0.905449 0.167432 0.935740 0.248162
O26   O     O_3   0.201929 0.841825 0.751516 -0.599166
C47   C     C_3   0.170145 0.929821 0.787706 0.067128
H54   H     H_    0.123582 0.945693 0.737558 0.147348
H55   H     H_    0.228646 0.979101 0.743742 0.116946
C48   C     C_3   0.111466 0.940302 0.964820 -0.818020
H56   H     H_    0.157694 0.927542 0.016744 0.263632
H57   H     H_    0.082977 0.007976 0.995022 0.181993
H58   H     H_    0.050196 0.893723 0.015633 0.237622
O27   O     O_3   0.271544 0.233312 0.736267 -0.556247
C49   C     C_3   0.186086 0.197558 0.859885 0.058908
H59   H     H_    0.202846 0.137127 0.904390 0.147730
H60   H     H_    0.132335 0.181973 0.823308 0.120161
C50   C     C_3   0.140800 0.263947 0.992276 -0.666215
H61   H     H_    0.118378 0.323018 0.953246 0.263862
H62   H     H_    0.076882 0.235259 0.094572 0.214045
H63   H     H_    0.193076 0.283322 0.028677 0.252240
O28   O     O_3   0.728320 0.765554 0.263836 -0.574214
C51   C     C_3   0.825142 0.787645 0.155222 0.137606
H64   H     H_    0.856476 0.733553 0.069487 0.176561
H65   H     H_    0.871331 0.793716 0.209453 0.118587
C52   C     C_3   0.830368 0.871911 0.068608 -0.914537
H66   H     H_    0.801852 0.926713 0.152538 0.227002
H67   H     H_    0.905923 0.887486 0.981149 0.206133
H68   H     H_    0.787685 0.865509 0.009071 0.272799
O29   O     O_3   0.297666 0.672966 0.256319 -0.544788
C53   C     C_3   0.322279 0.587765 0.192691 0.112649
H69   H     H_    0.278688 0.568470 0.139058 0.170590
H70   H     H_    0.313524 0.539525 0.283141 0.072005
C54   C     C_3   0.426709 0.586231 0.061007 -0.821546
H71   H     H_    0.475647 0.599137 0.107216 0.236480
H72   H     H_    0.444307 0.520870 0.004219 0.189520
H73   H     H_    0.438597 0.636437 0.971664 0.253962
O30   O     O_3   0.716317 0.320360 0.753018 -0.629900
C55   C     C_3   0.738988 0.281434 0.861162 0.090741
H74   H     H_    0.716101 0.326853 0.961516 0.188500
H75   H     H_    0.816882 0.267770 0.814236 0.137117
C56   C     C_3   0.684318 0.195944 0.922419 -0.859131
H76   H     H_    0.703497 0.150461 0.823620 0.215037
H77   H     H_    0.703376 0.165296 0.005104 0.245276
H78   H     H_    0.605743 0.208112 0.985081 0.247039
O31   O     O_3   0.762663 0.727310 0.742197 -0.565876
C57   C     C_3   0.668844 0.698943 0.852020 0.066753
H79   H     H_    0.669152 0.628461 0.880589 0.128223
H80   H     H_    0.618074 0.708930 0.807470 0.153612
C58   C     C_3   0.632340 0.751990 0.001527 -0.672615
H81   H     H_    0.635915 0.822950 0.975029 0.256960
H82   H     H_    0.556606 0.734531 0.086222 0.231977
H83   H     H_    0.677082 0.737977 0.055349 0.265150
O32   O     O_3   0.245078 0.276662 0.255376 -0.562628
C59   C     C_3   0.323480 0.330034 0.151551 0.082552
H84   H     H_    0.311658 0.401135 0.178704 0.092133
H85   H     H_    0.332294 0.323484 0.033909 0.160379
C60   C     C_3   0.416490 0.301288 0.144689 -0.798372
H86   H     H_    0.434292 0.233213 0.100085 0.264817
H87   H     H_    0.475687 0.345978 0.066923 0.192155
H88   H     H_    0.410093 0.304754 0.261574 0.236601

loop_
_geom_bond_atom_site_label_1
_geom_bond_atom_site_label_2
_ccdc_geom_bond_type
C55   H75   S    
C21   C26   S    
O21   C37   S    
C34   H23   S    
C10   N2    D    
C32   H17   S    
C56   H76   S    
C6    O14   A    
C18   C26   D    
C24   C27   S    
Cu3   O8    S    
C25   O22   S    
C19   O32   S    
C47   C48   S    
C54   H71   S    
C5    C20   S    
O19   C33   S    
C2    O2    A    
C6    C19   S    
C48   H57   S    
O22   C39   S    
C14   O25   S    
C10   H5    S    
H1    N2    S    
Cu3   O14   S    
C46   H51   S    
O20   C35   S    
Cu1   N2    S    
C58   H83   S    
C33   H20   S    
C60   H87   S    
Cu1   O10   S    
C59   H85   S    
O32   C59   S    
C39   C40   S    
C14   C22   D    
C32   H16   S    
Cu3   O15   S    
C4    C13   S    
C1    O9    A    
C59   H84   S    
C44   H48   S    
C29   H10   S    
C53   C54   S    
C50   H62   S    
C57   H79   S    
C3    O11   A    
O29   C53   S    
C20   O31   S    
C58   H82   S    
C51   C52   S    
Cu2   N1    S    
C11   N3    D    
C31   H14   S    
C36   H27   S    
C19   C27   D    
C9    C10   S    
C8    O8    A    
C46   H53   S    
C30   H13   S    
C26   O21   S    
C15   C23   D    
O25   C45   S    
C48   H56   S    
C16   C24   D    
C4    O12   A    
C53   H70   S    
C56   H77   S    
C49   C50   S    
C5    O5    A    
O18   C31   S    
H2    N1    S    
Cu4   O13   S    
Cu3   O5    S    
C7    O15   A    
C43   H44   S    
C54   H72   S    
C38   H31   S    
C41   H40   S    
C27   O24   S    
C40   H38   S    
Cu3   N4    S    
Cu1   O4    S    
C39   H34   S    
C52   H67   S    
Cu2   O3    S    
C38   H32   S    
C35   H24   S    
C60   H88   S    
C47   H55   S    
C20   C28   D    
C45   C46   S    
C30   H12   S    
O31   C57   S    
C31   C32   S    
Cu2   O12   S    
C22   C25   S    
C34   H21   S    
C41   H39   S    
C21   O18   S    
C36   H28   S    
C59   C60   S    
C39   H35   S    
Cu4   O7    S    
Cu1   Cu2   S    
H3    N4    S    
O26   C47   S    
C40   H37   S    
C24   O19   S    
Cu3   Cu4   S    
C57   C58   S    
C7    C18   S    
C29   H9    S    
C13   C21   D    
Cu2   O9    S    
C1    C16   S    
C11   H8    S    
C6    O6    A    
C52   H68   S    
C37   H30   S    
C2    C15   S    
C41   C42   S    
Cu4   O6    S    
C44   H46   S    
C3    C14   S    
C30   H11   S    
C37   H29   S    
O27   C49   S    
C2    O10   A    
C55   H74   S    
C56   H78   S    
C51   H65   S    
C23   C28   S    
Cu4   O16   S    
C57   H80   S    
C50   H61   S    
C15   O28   S    
C54   H73   S    
C50   H63   S    
C42   H41   S    
C4    O4    A    
C45   H50   S    
C38   H33   S    
C29   C30   S    
C33   H19   S    
C13   O26   S    
Cu2   O2    S    
C35   C36   S    
C34   H22   S    
C11   C12   S    
C47   H54   S    
C28   O23   S    
Cu1   O11   S    
C40   H36   S    
C9    N1    D    
C8    C17   S    
C37   C38   S    
C5    O13   A    
C17   C25   D    
C42   H43   S    
C12   H7    S    
C16   O27   S    
C52   H66   S    
C7    O7    A    
C12   N4    D    
C18   O29   S    
C17   O30   S    
O24   C43   S    
C8    O16   A    
C22   O17   S    
C33   C34   S    
C1    O1    A    
C60   H86   S    
C53   H69   S    
C45   H49   S    
C48   H58   S    
C3    O3    A    
C9    H6    S    
C32   H18   S    
Cu4   N3    S    
C35   H25   S    
O17   C29   S    
C43   H45   S    
C44   H47   S    
O23   C41   S    
O30   C55   S    
C55   C56   S    
C58   H81   S    
C23   O20   S    
Cu1   O1    S    
C49   H59   S    
C51   H64   S    
H4    N3    S    
C31   H15   S    
C46   H52   S    
C36   H26   S    
O28   C51   S    
C43   C44   S    
C49   H60   S    
C42   H42   S    
