data_mof_unit_pretest_1905.cif
_audit_creation_date              2012-12-10T19:47:23-0500
_audit_creation_method            fapswitch 2.2
_symmetry_space_group_name_H-M    P1
_symmetry_Int_Tables_number       1
_space_group_crystal_system       triclinic
_cell_length_a                    14.910457
_cell_length_b                    14.217584
_cell_length_c                    10.73471
_cell_angle_alpha                 90.280663
_cell_angle_beta                  90.821606
_cell_angle_gamma                 90.507508
_cell_volume                      2275.30644871

loop_
_atom_site_label
_atom_site_type_symbol
_atom_type_description
_atom_site_fract_x
_atom_site_fract_y
_atom_site_fract_z
_atom_type_partial_charge
C1    C     C_R   0.328206 0.499523 0.500731 0.878926
C2    C     C_R   0.953414 0.515227 0.450487 -0.083329
C3    C     C_R   0.425745 0.102655 0.456835 0.130950
C4    C     C_R   0.575309 0.105330 0.544869 0.111217
C5    C     C_R   0.427768 0.201831 0.452879 0.456277
C6    C     C_R   0.571560 0.204417 0.550405 0.472006
C7    C     C_R   0.500994 0.052825 0.500223 -0.185106
C8    C     C_R   0.556572 0.896394 0.421494 -0.208279
C9    C     C_R   0.445840 0.896351 0.580238 -0.220062
C10   C     C_R   0.556055 0.797373 0.422625 0.275051
C11   C     C_R   0.445256 0.797365 0.578589 0.284969
C12   C     C_R   0.672777 0.500392 0.496615 0.967370
C13   C     C_R   0.501243 0.947191 0.500691 0.140355
C14   C     C_R   0.489818 0.499451 0.260164 0.915531
C15   C     C_R   0.500301 0.499897 0.740564 0.913682
C16   C     C_R   0.443285 0.672624 0.104767 0.159450
C17   C     C_R   0.561886 0.660201 0.905269 0.144501
C18   C     C_R   0.476746 0.755678 0.049827 0.117294
C19   C     C_R   0.542757 0.748898 0.957367 0.125611
C20   C     C_R   0.512914 0.580508 0.945201 -0.049687
C21   C     C_R   0.473462 0.584376 0.061189 -0.039148
C22   C     C_R   0.470341 0.498496 0.127336 -0.181674
C23   C     C_R   0.232850 0.498701 0.491878 -0.217357
C24   C     C_R   0.495251 0.498313 0.873900 -0.167683
C25   C     C_R   0.463891 0.412568 0.059602 0.137397
C26   C     C_R   0.458110 0.417799 0.931279 0.137647
C27   C     C_R   0.103194 0.491443 0.355306 0.509181
C28   C     C_R   0.905549 0.597090 0.480036 0.496535
C29   C     C_R   0.194757 0.482976 0.373938 -0.175426
C30   C     C_R   0.814210 0.589459 0.497368 -0.211155
C31   C     C_R   0.769519 0.502763 0.482096 -0.190116
C32   C     C_R   0.179943 0.520096 0.595600 0.467287
C33   C     C_R   0.816970 0.421843 0.446650 0.478195
C34   C     C_R   0.088421 0.527794 0.577316 -0.140406
C35   C     C_R   0.909489 0.429034 0.432269 -0.291258
C36   C     C_R   0.050035 0.514073 0.458773 -0.143278
H1    H     H_    0.600501 0.933764 0.358865 0.194501
H2    H     H_    0.816215 0.288548 0.402495 0.353075
H3    H     H_    0.377972 0.302145 0.357631 0.375403
H4    H     H_    0.613939 0.304529 0.655406 0.371781
H5    H     H_    0.402577 0.933705 0.643427 0.192401
H6    H     H_    0.236885 0.466832 0.295209 0.185350
H7    H     H_    0.778231 0.652355 0.523009 0.230616
H8    H     H_    0.046498 0.542919 0.656570 0.209494
H9    H     H_    0.948018 0.366849 0.410668 0.189125
H10   H     H_    0.005868 0.497753 0.232013 0.353477
H11   H     H_    0.006948 0.683547 0.462964 0.355652
H12   H     H_    0.278128 0.515973 0.718162 0.337210
I1    I     I_    0.476986 0.272359 0.131942 -0.200434
I2    I     I_    0.692805 0.038155 0.614464 -0.124022
I3    I     I_    0.379940 0.310130 0.835071 -0.188735
I4    I     I_    0.648051 0.734042 0.300158 -0.256266
I5    I     I_    0.355239 0.734107 0.704192 -0.208095
I6    I     I_    0.329022 0.678398 0.222717 -0.217249
I7    I     I_    0.681525 0.641280 0.800631 -0.248639
I8    I     I_    0.431350 0.890360 0.109808 -0.169141
I9    I     I_    0.609656 0.871950 0.891724 -0.159887
I10   I     I_    0.308922 0.031199 0.387310 -0.111872
N1    N     N_R   0.500000 0.252470 0.500000 -0.226449
N2    N     N_R   0.500000 0.747550 0.500000 -0.132932
O1    O     O_R   0.369060 0.579480 0.500010 -0.584260
O2    O     O_3   0.945202 0.684674 0.495539 -0.708351
O3    O     O_3   0.213892 0.532783 0.715077 -0.703331
O4    O     O_3   0.772497 0.337252 0.426813 -0.681883
O5    O     O_3   0.355140 0.245773 0.400027 -0.689415
O6    O     O_3   0.640528 0.250905 0.611066 -0.667648
O7    O     O_R   0.630940 0.579480 0.499990 -0.615200
O8    O     O_R   0.369050 0.420520 0.500010 -0.606085
O9    O     O_R   0.630950 0.420520 0.499990 -0.545939
O10   O     O_R   0.500000 0.579490 0.316770 -0.595261
O11   O     O_R   0.500000 0.579490 0.683230 -0.596436
O12   O     O_R   0.499990 0.420540 0.316770 -0.621026
O13   O     O_R   0.500010 0.420540 0.683230 -0.635570
O14   O     O_3   0.069356 0.478257 0.235922 -0.712667
Zn1   Zn    Zn3+2 0.500000 0.606140 0.500000 1.024131
Zn2   Zn    Zn3+2 0.500000 0.393860 0.500000 1.019111

loop_
_geom_bond_atom_site_label_1
_geom_bond_atom_site_label_2
_ccdc_geom_bond_type
C2    C35   A    
C12   O9    A    
C8    C13   A    
C29   H6    S    
C27   C29   A    
H3    O5    S    
O12   Zn2   S    
C10   I4    S    
C1    O8    A    
H11   O2    S    
O1    Zn1   S    
C16   C21   A    
C23   C29   A    
C24   C26   A    
C3    C7    A    
C30   C31   A    
C17   C20   A    
O9    Zn2   S    
C18   C19   A    
C9    C13   A    
C17   C19   A    
C20   C24   A    
C25   I1    S    
C31   C33   A    
C27   O14   S    
C17   I7    S    
C11   I5    S    
C18   I8    S    
H4    O6    S    
C21   C22   A    
C14   O10   A    
C4    C7    A    
H2    O4    S    
C12   O7    A    
C5    N1    A    
C34   H8    S    
C4    C6    A    
H12   O3    S    
C25   C26   A    
C22   C25   A    
C19   I9    S    
C4    I2    S    
C32   C34   A    
C10   N2    A    
C6    O6    S    
C9    C11   A    
C5    O5    S    
C15   C24   S    
C15   O13   A    
C1    C23   S    
C12   C31   S    
O13   Zn2   S    
C30   H7    S    
O7    Zn1   S    
C8    H1    S    
C11   N2    A    
C35   H9    S    
H10   O14   S    
C2    C36   S    
C14   O12   A    
C6    N1    A    
C8    C10   A    
C32   O3    S    
C3    C5    A    
C1    O1    A    
C27   C36   A    
O8    Zn2   S    
C15   O11   A    
N2    Zn1   S    
C9    H5    S    
C23   C32   A    
C14   C22   S    
C28   C30   A    
C26   I3    S    
O11   Zn1   S    
C33   O4    S    
C33   C35   A    
C34   C36   A    
C16   I6    S    
C3    I10   S    
C7    C13   S    
C20   C21   A    
C16   C18   A    
O10   Zn1   S    
C2    C28   A    
N1    Zn2   S    
C28   O2    S    
