data_mof_unit_pretest_16.cif
_audit_creation_date              2012-12-10T16:54:53-0500
_audit_creation_method            fapswitch 2.2
_symmetry_space_group_name_H-M    P1
_symmetry_Int_Tables_number       1
_space_group_crystal_system       triclinic
_cell_length_a                    7.770036
_cell_length_b                    8.577988
_cell_length_c                    15.723476
_cell_angle_alpha                 90.843421
_cell_angle_beta                  85.844526
_cell_angle_gamma                 93.634614
_cell_volume                      1043.07830825

loop_
_atom_site_label
_atom_site_type_symbol
_atom_type_description
_atom_site_fract_x
_atom_site_fract_y
_atom_site_fract_z
_atom_type_partial_charge
C1    C     C_R   0.545777 0.794737 0.497792 0.961411
C2    C     C_2   0.430121 0.041791 0.503389 -0.369430
C3    C     C_R   0.502008 0.500012 0.661591 0.896429
C4    C     C_R   0.454221 0.205262 0.502169 0.961336
C5    C     C_R   0.497990 0.499973 0.338418 0.899323
C6    C     C_3   0.426300 0.650229 0.953554 -0.385649
C7    C     C_3   0.689541 0.491370 0.945332 -0.433693
C8    C     C_3   0.686315 0.490299 0.043829 0.217075
C9    C     C_1   0.493904 0.500325 0.249712 -0.089051
C10   C     C_3   0.503593 0.499025 0.917153 0.211281
C11   C     C_3   0.421999 0.651060 0.051755 -0.316438
C12   C     C_3   0.496694 0.500012 0.082708 0.108536
C13   C     C_3   0.387654 0.354719 0.050896 0.203133
C14   C     C_3   0.390737 0.355905 0.952399 -0.425439
C15   C     C_1   0.493619 0.500332 0.174392 0.041182
C16   C     C_1   0.506451 0.499084 0.825640 -0.065939
C17   C     C_1   0.506071 0.499394 0.750319 -0.174207
C18   C     C_2   0.569874 0.958206 0.496512 -0.366017
Cl1   Cl    Cl    0.830188 0.644643 0.081250 -0.586816
Cl2   Cl    Cl    0.168579 0.344344 0.096898 -0.587091
H1    H     H_    0.497707 0.756320 0.074043 0.209612
H2    H     H_    0.747326 0.383684 0.919060 0.162736
H3    H     H_    0.772051 0.592572 0.918858 0.222912
H4    H     H_    0.737021 0.378966 0.063781 0.149488
H5    H     H_    0.257536 0.359431 0.931033 0.226510
H6    H     H_    0.443760 0.246091 0.926192 0.152005
H7    H     H_    0.292744 0.658207 0.933334 0.202894
H8    H     H_    0.286737 0.660405 0.078872 0.246079
H9    H     H_    0.445670 0.246692 0.070647 0.111890
H10   H     H_    0.701874 0.009245 0.489948 0.184098
H11   H     H_    0.298121 0.990752 0.509945 0.182803
H12   H     H_    0.013458 0.381983 0.436565 0.206136
H13   H     H_    0.986542 0.618031 0.563426 0.191524
H14   H     H_    0.505171 0.754664 0.928436 0.183148
N1    N     N_2   0.950340 0.457950 0.477370 -0.164306
N2    N     N_2   0.049660 0.542050 0.522630 -0.171929
O1    O     O_R   0.389240 0.738570 0.505550 -0.613715
O2    O     O_R   0.678400 0.711630 0.491050 -0.626978
O3    O     O_R   0.355360 0.513470 0.630110 -0.613738
O4    O     O_R   0.644510 0.486530 0.615610 -0.625184
O5    O     O_R   0.321600 0.288370 0.508950 -0.630644
O6    O     O_R   0.610760 0.261430 0.494450 -0.613620
O7    O     O_R   0.355490 0.513470 0.384390 -0.611973
O8    O     O_R   0.644640 0.486530 0.369890 -0.593003
Zn1   Zn    Zn3+2 0.306930 0.517990 0.509680 0.961836
Zn2   Zn    Zn3+2 0.693070 0.482010 0.490320 0.971482

loop_
_geom_bond_atom_site_label_1
_geom_bond_atom_site_label_2
_ccdc_geom_bond_type
C6    C10   S    
C7    C10   S    
C2    C4    S    
C11   C12   S    
C5    C9    S    
C18   H10   S    
C8    C12   S    
C2    C18   D    
C7    H2    S    
C6    H7    S    
N1    N2    D    
C12   C15   S    
C1    O1    A    
O3    Zn1   S    
C5    O7    A    
C3    O3    A    
N2    Zn1   S    
C10   C16   S    
C13   C14   S    
C14   H6    S    
O4    Zn2   S    
O7    Zn1   S    
C1    C18   S    
C4    O6    A    
C1    O2    A    
C7    H3    S    
C11   H8    S    
C13   H9    S    
C8    H4    S    
C5    O8    A    
O8    Zn2   S    
C3    O4    A    
C3    C17   S    
C14   H5    S    
C10   C14   S    
O2    Zn2   S    
C8    Cl1   S    
C4    O5    A    
O1    Zn1   S    
H12   N1    S    
C7    C8    S    
H13   N2    S    
C12   C13   S    
O6    Zn2   S    
C6    C11   S    
O5    Zn1   S    
C2    H11   S    
C13   Cl2   S    
C9    C15   T    
N1    Zn2   S    
C11   H1    S    
C6    H14   S    
C16   C17   T    
