data_mof_unit_pretest_158.cif
_audit_creation_date              2012-12-10T17:05:15-0500
_audit_creation_method            fapswitch 2.2
_symmetry_space_group_name_H-M    P1
_symmetry_Int_Tables_number       1
_space_group_crystal_system       triclinic
_cell_length_a                    10.774658
_cell_length_b                    11.02535
_cell_length_c                    9.89198
_cell_angle_alpha                 111.309693
_cell_angle_beta                  98.298035
_cell_angle_gamma                 90.97627
_cell_volume                      1080.22578852

loop_
_atom_site_label
_atom_site_type_symbol
_atom_type_description
_atom_site_fract_x
_atom_site_fract_y
_atom_site_fract_z
_atom_type_partial_charge
C1    C     C_R   0.489695 0.254146 0.440597 0.902085
C2    C     C_3   0.877603 0.491775 0.495426 -0.077975
C3    C     C_3   0.932982 0.623301 0.498561 -0.491876
C4    C     C_3   0.905943 0.380342 0.354114 0.290293
C5    C     C_2   0.481637 0.114381 0.407295 -0.330356
C6    C     C_2   0.502838 0.069231 0.515715 -0.133283
C7    C     C_2   0.512823 0.885013 0.591655 -0.347112
C8    C     C_2   0.495840 0.929814 0.482648 -0.134634
C9    C     C_2   0.511467 0.511267 0.084704 -0.038009
C10   C     C_2   0.494193 0.488820 0.922082 -0.002849
C11   C     C_R   0.259977 0.491355 0.499383 0.874213
C12   C     C_R   0.508594 0.745691 0.559229 0.870216
C13   C     C_R   0.739788 0.497268 0.498086 0.845365
C14   C     C_3   0.086835 0.463957 0.642374 0.769651
C15   C     C_3   0.942573 0.471234 0.635553 -0.392212
C16   C     C_3   0.077156 0.622121 0.508436 -0.529893
C17   C     C_3   0.050557 0.383089 0.351952 0.238729
C18   C     C_3   0.121491 0.485565 0.500821 -0.066714
Cu1   Cu    Cu3+1 0.522160 0.521810 0.644910 1.081387
Cu2   Cu    Cu3+1 0.477840 0.478190 0.355090 0.920297
H1    H     H_    0.859523 0.403690 0.258653 0.065292
H2    H     H_    0.106936 0.647955 0.419648 0.194938
H3    H     H_    0.891387 0.640325 0.397855 0.209309
H4    H     H_    0.477343 0.863605 0.368160 0.202484
H5    H     H_    0.525936 0.135312 0.629967 0.178124
H6    H     H_    0.529860 0.951531 0.705149 0.161736
H7    H     H_    0.458368 0.047760 0.293404 0.155614
H8    H     H_    0.424550 0.412656 0.850084 0.140755
H9    H     H_    0.581224 0.584449 0.162291 0.241680
H10   H     H_    0.378145 0.375133 0.063840 0.193839
H11   H     H_    0.896788 0.383219 0.643131 0.216394
H12   H     H_    0.922983 0.554703 0.731729 0.195301
H13   H     H_    0.122838 0.701594 0.611181 0.243449
H14   H     H_    0.909536 0.705474 0.594700 0.221150
H15   H     H_    0.065110 0.420345 0.264019 0.043935
N1    N     N_2   0.444530 0.445420 0.137360 -0.342610
N2    N     N_2   0.555520 0.554510 0.862630 0.028220
O1    O     O_R   0.511820 0.332340 0.577400 -0.572405
O2    O     O_R   0.474400 0.295500 0.332650 -0.612405
O3    O     O_R   0.336400 0.518400 0.622370 -0.535346
O4    O     O_R   0.298980 0.481560 0.377620 -0.625265
O5    O     O_R   0.525600 0.704500 0.667350 -0.521089
O6    O     O_R   0.488180 0.667660 0.422600 -0.587259
O7    O     O_R   0.701020 0.518440 0.622380 -0.534468
O8    O     O_R   0.663600 0.481600 0.377630 -0.606165
O9    O     O_3   0.149590 0.575499 0.763464 -0.659268
C19   C     C_3   0.177326 0.572013 0.905642 0.097019
H16   H     H_    0.249318 0.654220 0.967926 0.166664
H17   H     H_    0.225488 0.486053 0.910291 0.185273
C20   C     C_3   0.063011 0.597179 0.984329 -0.337624
H18   H     H_    0.014140 0.679178 0.966029 0.236734
H19   H     H_    0.997152 0.508221 0.941588 0.256589
C21   C     C_3   0.101760 0.634703 0.148557 -0.900204
H20   H     H_    0.158036 0.558818 0.171014 0.262251
H21   H     H_    0.015422 0.643806 0.199367 0.280336
H22   H     H_    0.158506 0.730001 0.196904 0.255681
S1    S     S_3+6 0.672511 0.673734 0.971885 0.060747
O10   O     O_2   0.615856 0.781024 0.083534 -0.333487
O11   O     O_2   0.769334 0.614786 0.049836 -0.356015
O12   O     O_3   0.743272 0.737348 0.869345 -0.515229
H23   H     H_    0.813854 0.796714 0.938338 0.332867
S2    S     S_3+6 0.124520 0.303322 0.650440 -0.026227
O13   O     O_2   0.101226 0.294604 0.793022 -0.386860
O14   O     O_2   0.041060 0.195229 0.531331 -0.212132
O15   O     O_3   0.274242 0.274461 0.630785 -0.567781
H24   H     H_    0.287720 0.193212 0.650093 0.360613
O16   O     O_3   0.096106 0.257310 0.323945 -0.528440
C22   C     C_3   0.143285 0.207657 0.189378 0.062959
H25   H     H_    0.235784 0.258702 0.200355 0.186329
H26   H     H_    0.078606 0.219498 0.097290 0.127640
C23   C     C_3   0.160195 0.062251 0.151479 -0.310842
H27   H     H_    0.219152 0.048026 0.245632 0.242386
H28   H     H_    0.066884 0.008844 0.131667 0.213866
C24   C     C_3   0.222542 0.005261 0.014952 -0.912373
H29   H     H_    0.164512 0.017340 0.918922 0.274717
H30   H     H_    0.232075 0.899471 0.989816 0.266178
H31   H     H_    0.317743 0.054666 0.034102 0.258402
O17   O     O_3   0.856722 0.257431 0.347358 -0.552639
C25   C     C_3   0.823475 0.168609 0.199807 0.127962
H32   H     H_    0.845484 0.069533 0.196283 0.189120
H33   H     H_    0.877002 0.189736 0.121854 0.116590
C26   C     C_3   0.682964 0.166958 0.147903 -0.364538
H34   H     H_    0.631118 0.128188 0.213836 0.240666
H35   H     H_    0.656861 0.267312 0.163047 0.254116
C27   C     C_3   0.644797 0.081512 0.986523 -0.905169
H36   H     H_    0.694346 0.118757 0.916779 0.254366
H37   H     H_    0.541860 0.083472 0.955289 0.249976
H38   H     H_    0.666883 0.979344 0.967353 0.306248

loop_
_geom_bond_atom_site_label_1
_geom_bond_atom_site_label_2
_ccdc_geom_bond_type
C11   C18   S    
C14   C18   S    
C3    H3    S    
Cu1   Cu2   S    
Cu2   O4    S    
C15   H12   S    
C19   H17   S    
C21   H20   S    
C7    H6    S    
C24   H30   S    
C10   N2    D    
C1    C5    S    
C12   O6    A    
C5    C6    D    
S1    O11   D    
C6    H5    S    
C14   S2    S    
C2    C13   S    
C12   O5    A    
Cu1   N2    S    
C5    H7    S    
C22   H25   S    
C24   H31   S    
C9    N1    D    
C20   H19   S    
C9    C10   S    
S2    O14   D    
Cu2   O8    S    
Cu1   O5    S    
C9    H9    S    
C27   H37   S    
C20   H18   S    
C19   C20   S    
C21   H21   S    
C7    C12   S    
C17   O16   S    
C20   C21   S    
C24   H29   S    
O16   C22   S    
C7    C8    D    
C14   O9    S    
C23   H28   S    
Cu2   O2    S    
O17   C25   S    
S1    O12   S    
C6    C8    S    
C3    H14   S    
C27   H36   S    
O12   H23   S    
C2    C4    S    
C4    O17   S    
S2    O13   D    
Cu1   O1    S    
C16   H13   S    
C25   C26   S    
C19   H16   S    
C17   C18   S    
C2    C15   S    
C1    O1    A    
C4    C17   S    
C16   C18   S    
O15   H24   S    
C26   H35   S    
Cu2   O6    S    
Cu1   O7    S    
C27   H38   S    
C25   H33   S    
C21   H22   S    
C10   H8    S    
O9    C19   S    
C16   H2    S    
S2    O15   S    
C23   C24   S    
C15   H11   S    
C26   C27   S    
H10   N1    S    
C2    C3    S    
C23   H27   S    
C13   O8    A    
C4    H1    S    
S1    O10   D    
C22   C23   S    
C8    H4    S    
C11   O4    A    
C11   O3    A    
Cu1   O3    S    
C1    O2    A    
C25   H32   S    
Cu2   N1    S    
C22   H26   S    
C26   H34   S    
C14   C15   S    
C17   H15   S    
C13   O7    A    
N2    S1    S    
C3    C16   S    
