data_mof_unit_pretest_245.cif
_audit_creation_date              2013-03-05T16:11:32-0500
_audit_creation_method            fapswitch 2.2
_symmetry_space_group_name_H-M    P1
_symmetry_Int_Tables_number       1
_space_group_crystal_system       triclinic
_cell_length_a                    10.649245
_cell_length_b                    9.957753
_cell_length_c                    15.728027
_cell_angle_alpha                 91.916433
_cell_angle_beta                  91.518258
_cell_angle_gamma                 88.989374
_cell_volume                      1666.08778757

loop_
_atom_site_label
_atom_site_type_symbol
_atom_site_description
_atom_site_fract_x
_atom_site_fract_y
_atom_site_fract_z
_atom_type_partial_charge
O1    O     O_R   0.316750 0.614620 0.499990 -0.646851
O2    O     O_R   0.316750 0.385380 0.499990 -0.626156
C1    C     C_R   0.260260 0.500609 0.500482 0.850011
O3    O     O_R   0.499990 0.614720 0.377140 -0.608424
O4    O     O_R   0.499990 0.385280 0.377140 -0.635325
C2    C     C_R   0.500382 0.498216 0.338603 0.897025
Zn1   Zn    Zn3+2 0.499980 0.653120 0.500000 0.954443
Zn2   Zn    Zn3+2 0.499980 0.346880 0.500000 0.950672
O5    O     O_R   0.683220 0.614710 0.500000 -0.611561
O6    O     O_R   0.683220 0.385290 0.500000 -0.620763
O7    O     O_R   0.499980 0.614620 0.622860 -0.616446
O8    O     O_R   0.499980 0.385380 0.622860 -0.609155
C3    C     C_R   0.739540 0.499111 0.501170 0.869104
C4    C     C_R   0.500173 0.501994 0.661508 0.899056
C5    C     C_3   0.525723 0.646183 0.053903 0.155239
C6    C     C_3   0.367773 0.452531 0.043585 0.111302
C7    C     C_3   0.366907 0.471635 0.946204 -0.397907
C8    C     C_3   0.537731 0.644204 0.955586 -0.445024
H1    H     H_    0.480156 0.725189 0.925959 0.225912
H2    H     H_    0.300732 0.554319 0.928084 0.238221
H3    H     H_    0.358264 0.344010 0.053775 0.161441
H4    H     H_    0.617839 0.678817 0.081778 0.168144
H5    H     H_    0.332911 0.378175 0.912877 0.183762
H6    H     H_    0.636763 0.664119 0.939591 0.203950
C9    C     C_1   0.500155 0.506257 0.750435 -0.169396
C10   C     C_3   0.498707 0.499871 0.082932 -0.129200
C11   C     C_3   0.499972 0.505074 0.917208 0.119520
C12   C     C_3   0.593678 0.395410 0.948362 -0.463814
C13   C     C_3   0.608753 0.403601 0.048172 0.425185
C14   C     C_1   0.500097 0.507294 0.825775 -0.015610
C15   C     C_1   0.499750 0.496425 0.174571 0.094916
C16   C     C_1   0.500498 0.495301 0.249853 -0.049998
H7    H     H_    0.684350 0.402775 0.915804 0.221746
H8    H     H_    0.557797 0.296019 0.925651 0.213178
C17   C     C_R   0.063908 0.398000 0.456583 -0.164280
C18   C     C_R   0.064378 0.597470 0.550902 -0.213327
H9    H     H_    0.113043 0.320948 0.419921 0.138690
H10   H     H_    0.114472 0.672341 0.589281 0.147098
C19   C     C_R   0.935321 0.396318 0.457503 -0.147642
C20   C     C_R   0.935404 0.597437 0.550576 -0.168193
H11   H     H_    0.885415 0.318730 0.421133 0.166143
H12   H     H_    0.885296 0.673924 0.587530 0.149625
C21   C     C_R   0.872014 0.497324 0.503334 -0.013571
C22   C     C_R   0.127586 0.500002 0.501973 -0.008365
C23   C     C_R   0.565154 0.073492 0.561164 -0.100381
C24   C     C_R   0.570769 0.930261 0.558256 -0.108204
H13   H     H_    0.617608 0.128398 0.610386 0.151313
H14   H     H_    0.628273 0.878255 0.604830 0.144880
N1    N     N_R   0.499970 0.857200 0.499980 -0.107816
N2    N     N_R   0.499970 0.142800 0.499980 -0.103895
C25   C     C_R   0.422607 0.927719 0.445362 0.182219
C26   C     C_R   0.440433 0.067589 0.435608 0.144760
C27   C     C_3   0.306865 0.863993 0.403863 -0.359383
C28   C     C_3   0.196061 0.868817 0.464999 -0.330829
C29   C     C_3   0.126909 0.004300 0.470294 -0.875734
H15   H     H_    0.192431 0.086396 0.488546 0.271517
H16   H     H_    0.078317 0.024834 0.408683 0.263418
H17   H     H_    0.054234 0.001329 0.519527 0.255778
H18   H     H_    0.127127 0.792311 0.442475 0.239776
H19   H     H_    0.229789 0.844399 0.530186 0.240798
H20   H     H_    0.276826 0.910997 0.343797 0.206302
H21   H     H_    0.326888 0.759579 0.383489 0.239794
C30   C     C_3   0.432771 0.113857 0.344369 -0.344073
C31   C     C_3   0.309655 0.187283 0.319252 -0.399981
C32   C     C_3   0.299464 0.204590 0.223290 -0.719812
H22   H     H_    0.384754 0.252540 0.200558 0.269866
H23   H     H_    0.288854 0.105273 0.189803 0.297909
H24   H     H_    0.216271 0.268703 0.207488 0.268590
H25   H     H_    0.227530 0.130283 0.337581 0.221637
H26   H     H_    0.302485 0.286903 0.351486 0.255010
H27   H     H_    0.517534 0.170053 0.329867 0.241605
H28   H     H_    0.443329 0.024787 0.300303 0.216439
N3    N     N_R   0.431987 0.745924 0.083965 0.267275
O9    O     O_R   0.334760 0.779527 0.036883 -0.328800
O10   O     O_R   0.450494 0.808796 0.156976 -0.364802
N4    N     N_R   0.254486 0.516286 0.080591 0.251867
O11   O     O_R   0.257171 0.578657 0.154618 -0.341430
O12   O     O_R   0.145187 0.487340 0.046458 -0.306530
N5    N     N_R   0.732934 0.460552 0.074590 0.216602
O13   O     O_R   0.763185 0.476868 0.155004 -0.341925
O14   O     O_R   0.813059 0.498638 0.019482 -0.354718
N6    N     N_R   0.601335 0.266452 0.082105 0.187449
O15   O     O_R   0.518070 0.181279 0.052934 -0.418845
O16   O     O_R   0.684339 0.224422 0.137840 -0.311023

loop_
_geom_bond_atom_site_label_1
_geom_bond_atom_site_label_2
_geom_bond_distance
_ccdc_geom_bond_type
C5    C8    1.554426 S    
C2    C16   1.395223 S    
C29   H15   1.109665 S    
C6    H3    1.104544 S    
N3    O9    1.302330 A    
C19   H11   1.084161 S    
C28   H19   1.110571 S    
C27   C28   1.540865 S    
Zn1   O7    1.982543 S    
C24   N1    1.369659 A    
C7    H5    1.114061 S    
C8    H6    1.113376 S    
C12   C13   1.573295 S    
C17   H9    1.080380 S    
N4    O12   1.301709 A    
O4    C2    1.295373 A    
O7    C4    1.293332 A    
C7    H2    1.113706 S    
C8    H1    1.111733 S    
C5    H4    1.113118 S    
O5    C3    1.289025 A    
C27   H20   1.105513 S    
C20   C21   1.396147 A    
C6    C7    1.549440 S    
C32   H23   1.110938 S    
N2    C26   1.385628 A    
C31   H26   1.101203 S    
C20   H12   1.084034 S    
C12   H8    1.111570 S    
C10   C15   1.442592 S    
O1    Zn1   1.995184 S    
C11   C14   1.439000 S    
N3    O10   1.301432 A    
O3    Zn1   1.957233 S    
C28   H18   1.110255 S    
C23   H13   1.081598 S    
C6    C10   1.583461 S    
C24   H14   1.081755 S    
C1    C22   1.413815 S    
C25   C26   1.422889 A    
C7    C11   1.545282 S    
C18   C20   1.373356 A    
N4    O11   1.301013 A    
Zn1   N1    2.032187 S    
O3    C2    1.290810 A    
N5    O14   1.302202 A    
C5    C10   1.574848 S    
C19   C21   1.392503 A    
N1    C25   1.375576 A    
C23   C24   1.425704 A    
O6    C3    1.290989 A    
C30   C31   1.538723 S    
C25   C27   1.518279 S    
C17   C19   1.370213 A    
C27   H21   1.096680 S    
C15   C16   1.184282 T    
C13   N5    1.491531 S    
Zn2   O8    1.957391 S    
C32   H24   1.110507 S    
C31   H25   1.100886 S    
C17   C22   1.396899 A    
C5    N3    1.471414 S    
C30   H27   1.103273 S    
C12   H7    1.109593 S    
C32   H22   1.106661 S    
N6    O16   1.302060 A    
C29   H16   1.109756 S    
C18   C22   1.393460 A    
Zn2   N2    2.032170 S    
C3    C21   1.410067 S    
C9    C14   1.184670 T    
Zn1   O5    1.981868 S    
C28   C29   1.526448 S    
C6    N4    1.477402 S    
O2    Zn2   1.981916 S    
C8    C11   1.547992 S    
O8    C4    1.292560 A    
C26   C30   1.521471 S    
O4    Zn2   1.982323 S    
C31   C32   1.525627 S    
C18   H10   1.082435 S    
O2    C1    1.286014 A    
C13   N6    1.486933 S    
C23   N2    1.369786 A    
C4    C9    1.397882 S    
N5    O13   1.302420 A    
C30   H28   1.113171 S    
C10   C13   1.597036 S    
Zn2   O6    1.995108 S    
N6    O15   1.301936 A    
C29   H17   1.110647 S    
C11   C12   1.549132 S    
O1    C1    1.294519 A    
