data_mof_unit_pretest_1402.cif
_audit_creation_date              2012-12-11T14:01:27-0500
_audit_creation_method            fapswitch 2.2
_symmetry_space_group_name_H-M    P1
_symmetry_Int_Tables_number       1
_space_group_crystal_system       triclinic
_cell_length_a                    19.022676
_cell_length_b                    10.987094
_cell_length_c                    18.825927
_cell_angle_alpha                 90.028856
_cell_angle_beta                  90.654371
_cell_angle_gamma                 89.899247
_cell_volume                      3934.42956026

loop_
_atom_site_label
_atom_site_type_symbol
_atom_type_description
_atom_site_fract_x
_atom_site_fract_y
_atom_site_fract_z
_atom_type_partial_charge
C1    C     C_R   0.272140 0.044278 0.852360 0.554430
C2    C     C_R   0.727859 0.044194 0.147660 0.557766
C3    C     C_R   0.772062 0.544684 0.852109 0.558068
C4    C     C_R   0.227811 0.544345 0.147638 0.555731
C5    C     C_R   0.502719 0.062029 0.069555 -0.064439
C6    C     C_R   0.519322 0.051621 0.923654 -0.079068
C7    C     C_R   0.983931 0.553446 0.075210 -0.075042
C8    C     C_R   0.006585 0.559116 0.929660 -0.094303
C9    C     C_R   0.987965 0.665374 0.040844 0.295994
C10   C     C_R   0.998615 0.669632 0.967267 0.280048
C11   C     C_R   0.515554 0.169718 0.032497 0.292427
C12   C     C_R   0.522221 0.165081 0.957794 0.274928
C13   C     C_2   0.252846 0.577199 0.920060 0.218944
C14   C     C_2   0.746510 0.579526 0.079261 0.228491
C15   C     C_2   0.753617 0.077638 0.920334 0.216103
C16   C     C_2   0.246535 0.078507 0.079255 0.222075
C17   C     C_2   0.251749 0.599693 0.082108 -0.044655
C18   C     C_2   0.747143 0.603009 0.916355 -0.047989
C19   C     C_2   0.752278 0.100078 0.082577 -0.051072
C20   C     C_2   0.248022 0.099992 0.917764 -0.049106
C21   C     C_2   0.299641 0.547131 0.040569 0.260053
C22   C     C_2   0.699664 0.551869 0.958785 0.251844
C23   C     C_2   0.800747 0.049012 0.041023 0.253261
C24   C     C_2   0.198760 0.050237 0.958838 0.255821
C25   C     C_2   0.305832 0.590383 0.967433 -0.131863
C26   C     C_2   0.694264 0.597660 0.031518 -0.131557
C27   C     C_2   0.806337 0.093153 0.967889 -0.136981
C28   C     C_2   0.193211 0.092915 0.032235 -0.131943
C29   C     C_2   0.517309 0.837930 0.587890 0.312029
C30   C     C_2   0.508366 0.831353 0.426468 0.307558
C31   C     C_2   0.017284 0.337911 0.587871 0.312145
C32   C     C_2   0.008343 0.331350 0.426452 0.307644
C33   C     C_2   0.541281 0.753685 0.471213 -0.080961
C34   C     C_2   0.521971 0.741541 0.544798 -0.090335
C35   C     C_2   0.041235 0.253656 0.471199 -0.081023
C36   C     C_2   0.021915 0.241521 0.544778 -0.090378
C37   C     C_2   0.267319 0.648257 0.564766 0.229004
C38   C     C_2   0.764103 0.543224 0.397962 0.325870
C39   C     C_2   0.767324 0.148272 0.564766 0.229038
C40   C     C_2   0.264155 0.043038 0.397796 0.325437
C41   C     C_2   0.259460 0.618571 0.408102 -0.049652
C42   C     C_2   0.745671 0.599615 0.585951 -0.079962
C43   C     C_2   0.759463 0.118567 0.408103 -0.049646
C44   C     C_2   0.245741 0.099411 0.585830 -0.080139
C45   C     C_R   0.471220 0.821913 0.853287 0.519540
C46   C     C_R   0.528728 0.822997 0.146649 0.521884
C47   C     C_R   0.971206 0.322513 0.853463 0.520395
C48   C     C_R   0.028356 0.322074 0.146947 0.524973
C49   C     C_2   0.220025 0.696585 0.445487 0.381551
C50   C     C_2   0.771449 0.549592 0.527552 0.353600
C51   C     C_2   0.720037 0.196592 0.445489 0.382005
C52   C     C_2   0.271488 0.049286 0.527435 0.353069
C53   C     C_2   0.236425 0.726393 0.519215 -0.020654
C54   C     C_2   0.746673 0.593960 0.459670 -0.049833
C55   C     C_2   0.736458 0.226429 0.519210 -0.020916
C56   C     C_2   0.246689 0.093618 0.459546 -0.049709
C57   C     C_R   0.261272 0.635151 0.850820 0.536350
C58   C     C_R   0.738530 0.636008 0.148883 0.524234
C59   C     C_R   0.761473 0.135543 0.851014 0.539908
C60   C     C_R   0.238559 0.135714 0.148891 0.521112
C61   C     C_R   0.269758 0.051607 0.652222 0.580488
C62   C     C_R   0.729571 0.050969 0.348971 0.536466
C63   C     C_R   0.769717 0.551723 0.652306 0.578889
C64   C     C_R   0.229572 0.550973 0.348968 0.537946
C65   C     C_R   0.473466 0.824482 0.650561 0.566681
C66   C     C_R   0.530210 0.824019 0.352581 0.512200
C67   C     C_R   0.973460 0.324480 0.650555 0.567107
C68   C     C_R   0.030203 0.324019 0.352575 0.514580
C69   C     C_R   0.273897 0.685742 0.638076 0.597417
C70   C     C_R   0.745704 0.617500 0.336927 0.497881
C71   C     C_R   0.773899 0.185752 0.638077 0.596444
C72   C     C_R   0.245722 0.117440 0.336825 0.499069
C73   C     C_R   0.500842 0.834667 0.074293 -0.007814
C74   C     C_R   0.497621 0.829726 0.926097 0.002583
C75   C     C_R   0.000292 0.330068 0.074631 -0.008716
C76   C     C_R   0.998127 0.332205 0.926288 -0.006531
C77   C     C_R   0.502490 0.946869 0.035932 -0.014023
C78   C     C_R   0.506106 0.943030 0.961213 -0.011566
C79   C     C_R   0.994554 0.443010 0.038598 -0.015138
C80   C     C_R   0.999720 0.445019 0.963891 -0.004078
C81   C     C_R   0.494129 0.722009 0.965446 -0.156047
C82   C     C_R   0.492762 0.725159 0.037834 -0.164826
C83   C     C_R   0.001587 0.222401 0.963666 -0.156801
C84   C     C_R   0.000183 0.221227 0.036136 -0.153485
Cr1   Cr    Cr6+3 0.230530 0.836340 0.748870 1.035122
Cr2   Cr    Cr6+3 0.769470 0.836340 0.251130 1.056018
Cr3   Cr    Cr6+3 0.730530 0.336340 0.748870 1.043673
Cr4   Cr    Cr6+3 0.269470 0.336340 0.251130 1.047084
Cr5   Cr    Cr6+3 0.387420 0.989430 0.750820 1.014709
Cr6   Cr    Cr6+3 0.612580 0.989430 0.249180 1.050650
Cr7   Cr    Cr6+3 0.887420 0.489430 0.750820 1.011292
Cr8   Cr    Cr6+3 0.112580 0.489430 0.249180 1.033257
Cr9   Cr    Cr6+3 0.385640 0.677860 0.749230 1.020370
Cr10  Cr    Cr6+3 0.614360 0.677860 0.250770 1.032771
Cr11  Cr    Cr6+3 0.885640 0.177860 0.749230 1.022930
Cr12  Cr    Cr6+3 0.114360 0.177860 0.250770 1.015997
H1    H     H_    0.488399 0.633620 0.940470 0.149583
H2    H     H_    0.489446 0.639332 0.065478 0.137506
H3    H     H_    0.001633 0.134972 0.936951 0.175081
H4    H     H_    0.003185 0.133158 0.061919 0.162769
H5    H     H_    0.213014 0.809547 0.539545 0.145676
H6    H     H_    0.715477 0.677490 0.459850 0.032044
H7    H     H_    0.713076 0.309614 0.539531 0.145752
H8    H     H_    0.215410 0.177055 0.459760 0.032829
H9    H     H_    0.312242 0.594257 0.425204 0.133905
H10   H     H_    0.704362 0.668140 0.584571 -0.014426
H11   H     H_    0.812247 0.094250 0.425204 0.133739
H12   H     H_    0.204470 0.167999 0.584424 -0.014015
H13   H     H_    0.492169 0.071725 0.125472 0.157423
H14   H     H_    0.532034 0.048751 0.867935 0.130311
H15   H     H_    0.970698 0.554531 0.130908 0.145532
H16   H     H_    0.020974 0.563041 0.874444 0.126818
H17   H     H_    0.354982 0.632794 0.952594 0.102997
H18   H     H_    0.646200 0.644794 0.045905 0.105686
H19   H     H_    0.854788 0.138432 0.953287 0.112618
H20   H     H_    0.144110 0.135398 0.047655 0.107226
H21   H     H_    0.221199 0.675441 0.061789 0.043253
H22   H     H_    0.776806 0.680747 0.934981 0.030957
H23   H     H_    0.721446 0.175338 0.062638 0.052706
H24   H     H_    0.279550 0.173958 0.938409 0.047151
H25   H     H_    0.580847 0.690126 0.452493 0.102616
H26   H     H_    0.507007 0.650777 0.561719 0.122112
H27   H     H_    0.080800 0.190088 0.452487 0.102785
H28   H     H_    0.006934 0.150764 0.561697 0.122113
O1    O     O_R   0.215090 0.709860 0.828130 -0.503432
O2    O     O_R   0.784910 0.709860 0.171870 -0.499414
O3    O     O_R   0.715090 0.209860 0.828130 -0.486517
O4    O     O_R   0.284910 0.209860 0.171870 -0.505559
O5    O     O_R   0.445660 0.919250 0.676780 -0.470172
O6    O     O_R   0.554340 0.919250 0.323220 -0.522197
O7    O     O_R   0.945660 0.419250 0.676780 -0.469841
O8    O     O_R   0.054340 0.419250 0.323220 -0.520932
O9    O     O_R   0.456260 0.718170 0.670000 -0.546933
O10   O     O_R   0.543740 0.718170 0.330000 -0.524374
O11   O     O_R   0.956260 0.218170 0.670000 -0.546462
O12   O     O_R   0.043740 0.218170 0.330000 -0.524730
O13   O     O_R   0.320940 0.626760 0.674370 -0.463835
O14   O     O_R   0.679060 0.626760 0.325630 -0.507041
O15   O     O_R   0.820940 0.126760 0.674370 -0.464889
O16   O     O_R   0.179060 0.126760 0.325630 -0.508219
O17   O     O_3   0.334530 0.834540 0.749640 -0.266012
O18   O     O_3   0.665470 0.834540 0.250360 -0.258074
O19   O     O_3   0.834530 0.334540 0.749640 -0.267163
O20   O     O_3   0.165470 0.334540 0.250360 -0.251461
O21   O     O_R   0.236990 0.958390 0.823710 -0.453269
O22   O     O_R   0.763010 0.958390 0.176290 -0.451106
O23   O     O_R   0.736990 0.458390 0.823710 -0.447488
O24   O     O_R   0.263010 0.458390 0.176290 -0.447110
O25   O     O_R   0.332380 0.074750 0.830850 -0.545994
O26   O     O_R   0.667620 0.074750 0.169150 -0.510651
O27   O     O_R   0.832380 0.574750 0.830850 -0.554464
O28   O     O_R   0.167620 0.574750 0.169150 -0.539342
O29   O     O_R   0.445800 0.917770 0.825070 -0.520729
O30   O     O_R   0.554200 0.917770 0.174930 -0.514596
O31   O     O_R   0.945800 0.417770 0.825070 -0.520582
O32   O     O_R   0.054200 0.417770 0.174930 -0.510248
O33   O     O_R   0.456410 0.716580 0.829970 -0.529372
O34   O     O_R   0.543590 0.716580 0.170030 -0.517568
O35   O     O_R   0.956410 0.216580 0.829970 -0.525937
O36   O     O_R   0.043590 0.216580 0.170030 -0.522944
O37   O     O_R   0.321080 0.625290 0.822650 -0.528833
O38   O     O_R   0.678920 0.625290 0.177350 -0.527891
O39   O     O_R   0.821080 0.125290 0.822650 -0.531006
O40   O     O_R   0.178920 0.125290 0.177350 -0.537405
O41   O     O_R   0.214930 0.711450 0.668160 -0.573126
O42   O     O_R   0.785070 0.711450 0.331840 -0.530821
O43   O     O_R   0.714930 0.211450 0.668160 -0.573615
O44   O     O_R   0.285070 0.211450 0.331840 -0.529927
O45   O     O_R   0.236850 0.959870 0.675420 -0.514766
O46   O     O_R   0.763150 0.959870 0.324580 -0.511539
O47   O     O_R   0.736850 0.459870 0.675420 -0.515903
O48   O     O_R   0.263150 0.459870 0.324580 -0.510309
O49   O     O_R   0.332230 0.076350 0.670880 -0.478772
O50   O     O_R   0.667770 0.076350 0.329120 -0.438908
O51   O     O_R   0.832230 0.576350 0.670880 -0.479247
O52   O     O_R   0.167770 0.576350 0.329120 -0.440747
F1    F     F_    0.158604 0.742221 0.418796 -0.627227
F2    F     F_    0.821909 0.461343 0.531640 -0.577265
F3    F     F_    0.658611 0.242223 0.418806 -0.624928
F4    F     F_    0.321919 0.960996 0.531533 -0.577454
O53   O     O_3   0.298255 0.540214 0.543166 -0.586070
C85   C     C_3   0.252676 0.443073 0.558579 -0.127712
H29   H     H_    0.202167 0.451864 0.528602 0.125285
H30   H     H_    0.243136 0.435436 0.616601 0.126686
H31   H     H_    0.277929 0.357213 0.541206 0.148590
O54   O     O_3   0.803231 0.435666 0.395323 -0.503185
C86   C     C_3   0.810395 0.391900 0.325275 -0.103656
H32   H     H_    0.840150 0.305028 0.327067 0.142152
H33   H     H_    0.840963 0.456448 0.292332 0.077368
H34   H     H_    0.758145 0.373013 0.300505 0.127558
O55   O     O_3   0.798233 0.040203 0.543170 -0.586155
C87   C     C_3   0.752650 0.943089 0.558625 -0.127921
H35   H     H_    0.702133 0.951874 0.528661 0.125201
H36   H     H_    0.743127 0.935495 0.616652 0.126350
H37   H     H_    0.777890 0.857211 0.541264 0.148459
O56   O     O_3   0.303476 0.935708 0.395043 -0.503210
C88   C     C_3   0.310116 0.891582 0.325002 -0.104622
H38   H     H_    0.339986 0.804825 0.326712 0.142048
H39   H     H_    0.340312 0.956023 0.291618 0.077152
H40   H     H_    0.257686 0.872355 0.300723 0.124288
O57   O     O_3   0.974155 0.769620 0.079522 -0.548844
C89   C     C_3   0.037210 0.832484 0.093656 -0.076398
H41   H     H_    0.050419 0.891517 0.047972 0.179842
H42   H     H_    0.081739 0.770587 0.107767 0.103747
H43   H     H_    0.028889 0.893323 0.139854 0.143347
O58   O     O_3   0.005109 0.783107 0.935338 -0.562707
C90   C     C_3   0.967308 0.789519 0.870551 -0.100467
H44   H     H_    0.958921 0.886851 0.857198 0.147161
H45   H     H_    0.914490 0.746963 0.874250 0.126437
H46   H     H_    0.998028 0.748636 0.826754 0.109923
O59   O     O_3   0.530966 0.271591 0.073783 -0.580490
C91   C     C_3   0.502795 0.380815 0.046425 -0.065664
H47   H     H_    0.459247 0.368135 0.007696 0.145223
H48   H     H_    0.544934 0.435178 0.021625 0.174882
H49   H     H_    0.481916 0.433992 0.091552 0.163107
O60   O     O_3   0.538044 0.269341 0.919712 -0.565374
C92   C     C_3   0.487878 0.288276 0.864891 -0.110674
H50   H     H_    0.490429 0.385019 0.848279 0.148346
H51   H     H_    0.433087 0.270770 0.882581 0.101359
H52   H     H_    0.500295 0.231844 0.817702 0.115496
O61   O     O_3   0.341198 0.452255 0.065067 -0.574362
C93   C     C_3   0.323049 0.346486 0.026901 -0.079459
H53   H     H_    0.338632 0.354038 0.970318 0.086364
H54   H     H_    0.265787 0.327020 0.030742 0.142992
H55   H     H_    0.352147 0.268256 0.050098 0.179076
O62   O     O_3   0.661385 0.451096 0.937292 -0.530724
C94   C     C_3   0.684340 0.350606 0.977722 -0.026630
H56   H     H_    0.666034 0.357899 0.033418 0.134832
H57   H     H_    0.742577 0.339864 0.976172 0.115257
H58   H     H_    0.661749 0.266711 0.954872 0.220503
O63   O     O_3   0.841967 0.952957 0.064847 -0.519102
C95   C     C_3   0.825932 0.849820 0.023371 -0.015829
H59   H     H_    0.849841 0.857256 0.969993 0.117977
H60   H     H_    0.768092 0.835073 0.018919 0.108564
H61   H     H_    0.847879 0.768066 0.049590 0.216171
O64   O     O_3   0.155601 0.957658 0.934346 -0.539642
C96   C     C_3   0.176541 0.849138 0.968308 -0.032474
H62   H     H_    0.168892 0.854493 0.026544 0.074246
H63   H     H_    0.232604 0.827870 0.957372 0.131023
H64   H     H_    0.144014 0.773167 0.947675 0.203318
O65   O     O_3   0.191041 0.519471 0.939163 -0.594805
C97   C     C_3   0.173984 0.430303 0.887844 -0.131523
H65   H     H_    0.220843 0.377887 0.869940 0.092612
H66   H     H_    0.146453 0.472500 0.841640 0.124465
H67   H     H_    0.138259 0.363284 0.912208 0.141755
O66   O     O_3   0.806906 0.516623 0.060492 -0.594790
C98   C     C_3   0.822262 0.427546 0.112439 -0.141461
H68   H     H_    0.774454 0.378158 0.130335 0.092460
H69   H     H_    0.850057 0.469167 0.158581 0.118259
H70   H     H_    0.857239 0.358230 0.088797 0.141161
O67   O     O_3   0.692964 0.015833 0.938880 -0.590210
C99   C     C_3   0.678681 0.925172 0.887578 -0.132563
H71   H     H_    0.726737 0.873534 0.872382 0.089352
H72   H     H_    0.653186 0.965632 0.839697 0.123262
H73   H     H_    0.642046 0.858129 0.910653 0.138847
O68   O     O_3   0.307972 0.019775 0.059394 -0.595941
C100  C     C_3   0.328006 0.935076 0.112231 -0.136019
H74   H     H_    0.282348 0.886210 0.135507 0.085045
H75   H     H_    0.359313 0.980801 0.154634 0.122408
H76   H     H_    0.361148 0.864385 0.087426 0.143716
O69   O     O_3   0.453288 0.904459 0.449750 -0.482242
C101  C     C_3   0.458784 0.023650 0.422572 0.022106
H77   H     H_    0.422063 0.083345 0.451902 0.188763
H78   H     H_    0.442930 0.026662 0.365653 0.106034
H79   H     H_    0.512560 0.061622 0.430566 0.161816
O70   O     O_3   0.541202 0.951119 0.565397 -0.552266
C102  C     C_3   0.579615 0.009563 0.620144 -0.108472
H80   H     H_    0.543999 0.058896 0.656513 0.148815
H81   H     H_    0.613846 0.079001 0.595619 0.159468
H82   H     H_    0.614244 0.945700 0.650471 0.064373
O71   O     O_3   0.953260 0.404460 0.449711 -0.482555
C103  C     C_3   0.958888 0.523735 0.422685 0.021437
H83   H     H_    0.922156 0.583405 0.452019 0.188757
H84   H     H_    0.943141 0.526987 0.365745 0.105686
H85   H     H_    0.012679 0.561568 0.430810 0.161978
O72   O     O_3   0.041190 0.451084 0.565369 -0.552357
C104  C     C_3   0.079630 0.509508 0.620101 -0.108691
H86   H     H_    0.044034 0.558857 0.656477 0.148967
H87   H     H_    0.113865 0.578927 0.595565 0.159377
H88   H     H_    0.114256 0.445630 0.650416 0.064908

loop_
_geom_bond_atom_site_label_1
_geom_bond_atom_site_label_2
_ccdc_geom_bond_type
C16   C28   D    
C98   H69   S    
Cr7   O27   S    
C38   C70   S    
C3    O23   A    
Cr4   O48   S    
C37   C69   S    
Cr2   O2    S    
C6    H14   S    
O57   C89   S    
Cr1   O1    S    
C35   C36   S    
Cr2   O42   S    
Cr5   O49   S    
Cr6   O26   S    
C101  H79   S    
Cr3   O3    S    
C81   C82   A    
C89   H42   S    
C65   O9    A    
O67   C99   S    
Cr12  O12   S    
C47   O35   A    
C77   C78   A    
Cr8   O52   S    
C92   H52   S    
Cr11  O19   S    
C48   O36   A    
C69   O41   A    
Cr2   O18   S    
C50   C54   S    
Cr10  O34   S    
C41   H9    S    
C2    O26   A    
C83   C84   A    
Cr11  O35   S    
C99   H72   S    
C36   H28   S    
Cr1   O21   S    
C47   C76   S    
C5    C11   A    
Cr9   O9    S    
C8    H16   S    
C6    C12   A    
O69   C101  S    
C102  H82   S    
C51   F3    S    
C75   C84   A    
C6    C78   A    
Cr7   O7    S    
C59   O3    A    
O71   C103  S    
C62   O50   A    
C11   C12   A    
C55   H7    S    
O65   C97   S    
Cr5   O5    S    
O64   C96   S    
C3    C18   S    
C88   H39   S    
C100  H74   S    
C16   C60   S    
C68   O8    A    
C94   H56   S    
C85   H29   S    
C86   H34   S    
C28   H20   S    
C81   H1    S    
C11   O59   S    
C66   O10   A    
C52   C56   S    
C15   C27   D    
C39   C55   D    
C20   C24   D    
C53   H5    S    
C103  H83   S    
Cr4   O44   S    
C89   H43   S    
Cr8   O28   S    
C90   H46   S    
C97   H66   S    
C1    O25   A    
C8    C80   A    
C23   C27   S    
C64   O52   A    
C3    O27   A    
C66   O6    A    
C9    C10   A    
Cr10  O38   S    
C101  H77   S    
Cr7   O19   S    
C17   H21   S    
C32   C68   S    
C37   C53   D    
C44   C52   D    
Cr5   O25   S    
C60   O40   A    
C48   O32   A    
C37   O53   S    
C34   H26   S    
C71   O43   A    
C96   H62   S    
C33   H25   S    
C29   O70   S    
C72   O44   A    
C48   C75   S    
C13   C25   D    
C88   H38   S    
C45   O29   A    
C62   O46   A    
C31   O72   S    
Cr2   O22   S    
C76   C83   A    
C41   C49   D    
C30   C66   S    
C21   O61   S    
C49   F1    S    
C44   H12   S    
C69   O13   A    
C14   C58   S    
Cr3   O43   S    
C97   H67   S    
C89   H41   S    
C82   H2    S    
Cr7   O51   S    
O55   C87   S    
Cr10  O18   S    
C87   H37   S    
C76   C80   A    
C68   O12   A    
C61   O49   A    
O60   C92   S    
C56   H8    S    
O72   C104  S    
Cr1   O17   S    
O58   C90   S    
C101  H78   S    
C93   H55   S    
C40   C56   D    
C92   H50   S    
O53   C85   S    
C29   C34   D    
C95   H61   S    
Cr1   O45   S    
Cr5   O29   S    
C90   H44   S    
C74   C78   A    
C45   C74   S    
C100  H75   S    
C85   H31   S    
C87   H36   S    
C64   O48   A    
C88   H40   S    
C67   O11   A    
C52   F4    S    
Cr7   O31   S    
O61   C93   S    
C24   O64   S    
Cr11  O39   S    
C65   O5    A    
Cr12  O20   S    
C46   O34   A    
C39   O55   S    
C83   H3    S    
C63   O47   A    
O59   C91   S    
C38   C54   D    
C91   H49   S    
Cr9   O37   S    
C102  H80   S    
Cr3   O47   S    
O68   C100  S    
C95   H60   S    
C33   C34   S    
Cr4   O24   S    
C45   O33   A    
Cr8   O32   S    
C43   H11   S    
C14   C26   D    
C4    O28   A    
C93   H54   S    
C42   H10   S    
Cr6   O18   S    
C9    O57   S    
C42   C50   D    
C99   H73   S    
C29   C65   S    
C25   H17   S    
C46   O30   A    
C103  H84   S    
Cr12  O36   S    
C91   H48   S    
C58   O2    A    
C104  H87   S    
C22   C26   S    
Cr10  O14   S    
C96   H64   S    
C61   O45   A    
C1    O21   A    
C4    C17   S    
C74   C81   A    
C5    C77   A    
C58   O38   A    
C73   C82   A    
C20   H24   S    
Cr9   O17   S    
C19   C23   D    
C7    C79   A    
C40   O56   S    
C98   H70   S    
C26   H18   S    
C7    C9    A    
C21   C25   S    
O66   C98   S    
C1    C20   S    
C73   C77   A    
C40   C72   S    
C30   C33   D    
C50   F2    S    
C2    C19   S    
C18   C22   D    
C15   C59   S    
C54   H6    S    
C67   O7    A    
C32   C35   D    
C24   C28   S    
C60   O4    A    
O56   C88   S    
Cr3   O19   S    
Cr12  O16   S    
C84   H4    S    
C71   O15   A    
C98   H68   S    
C63   O51   A    
C18   H22   S    
C22   O62   S    
C44   C61   S    
C2    O22   A    
C4    O24   A    
Cr8   O8    S    
Cr6   O50   S    
Cr11  O15   S    
C92   H51   S    
C30   O69   S    
Cr1   O41   S    
C87   H35   S    
C100  H76   S    
C96   H63   S    
C10   O58   S    
C86   H32   S    
Cr4   O4    S    
C94   H57   S    
C38   O54   S    
C57   O1    A    
Cr9   O33   S    
C16   O68   S    
C70   O14   A    
C43   C51   D    
Cr6   O30   S    
C91   H47   S    
C15   O67   S    
Cr2   O46   S    
C103  H85   S    
Cr5   O17   S    
C97   H65   S    
C35   H27   S    
C95   H59   S    
Cr10  O10   S    
C57   O37   A    
C7    H15   S    
C51   C55   S    
C70   O42   A    
C93   H53   S    
Cr8   O20   S    
C85   H30   S    
C86   H33   S    
C49   C53   S    
Cr9   O13   S    
O70   C102  S    
C31   C67   S    
C19   H23   S    
C79   C80   A    
Cr6   O6    S    
Cr12  O40   S    
C72   O16   A    
C94   H58   S    
C13   C57   S    
Cr11  O11   S    
C8    C10   A    
O62   C94   S    
Cr3   O23   S    
C104  H88   S    
O63   C95   S    
C90   H45   S    
C59   O39   A    
C12   O60   S    
C31   C36   D    
C32   O71   S    
C13   O65   S    
C5    H13   S    
C41   C64   S    
C14   O66   S    
O54   C86   S    
C104  H86   S    
C75   C79   A    
C42   C63   S    
Cr4   O20   S    
C46   C73   S    
C23   O63   S    
C102  H81   S    
C43   C62   S    
C27   H19   S    
C99   H71   S    
C47   O31   A    
C39   C71   S    
C17   C21   D    
