data_mof_unit_pretest_1430.cif
_audit_creation_date              2012-12-11T15:17:45-0500
_audit_creation_method            fapswitch 2.2
_symmetry_space_group_name_H-M    P1
_symmetry_Int_Tables_number       1
_space_group_crystal_system       triclinic
_cell_length_a                    15.722901
_cell_length_b                    15.722271
_cell_length_c                    34.759301
_cell_angle_alpha                 89.998582
_cell_angle_beta                  89.998285
_cell_angle_gamma                 119.999006
_cell_volume                      7441.38840005

loop_
_atom_site_label
_atom_site_type_symbol
_atom_type_description
_atom_site_fract_x
_atom_site_fract_y
_atom_site_fract_z
_atom_type_partial_charge
C1    C     C_R   0.577633 0.441834 0.554643 0.596714
C2    C     C_R   0.558150 0.135749 0.554627 0.597687
C3    C     C_R   0.864279 0.422413 0.554607 0.598685
C4    C     C_R   0.441871 0.577522 0.054600 0.599145
C5    C     C_R   0.135707 0.558155 0.054616 0.598647
C6    C     C_R   0.422416 0.864250 0.054637 0.598866
C7    C     C_R   0.007505 0.512642 0.708915 0.362429
C8    C     C_R   0.489513 0.493269 0.709453 0.366506
C9    C     C_R   0.506304 0.995235 0.709294 0.365685
C10   C     C_R   0.510840 0.005038 0.209281 0.366893
C11   C     C_R   0.495538 0.488078 0.208869 0.365695
C12   C     C_R   0.992884 0.505585 0.208979 0.362514
C13   C     C_R   0.140157 0.529043 0.839226 -0.022182
C14   C     C_R   0.469777 0.607678 0.839271 -0.038794
C15   C     C_R   0.391836 0.862033 0.839259 -0.041770
C16   C     C_R   0.530404 0.138608 0.339253 -0.039082
C17   C     C_R   0.611053 0.473689 0.339280 -0.037947
C18   C     C_R   0.859986 0.389480 0.339203 -0.020098
C19   C     C_R   0.156707 0.528955 0.878349 -0.207472
C20   C     C_R   0.468785 0.625099 0.878270 -0.201840
C21   C     C_R   0.374472 0.843908 0.878275 -0.201592
C22   C     C_R   0.531422 0.156870 0.378268 -0.205561
C23   C     C_R   0.627832 0.473318 0.378360 -0.196674
C24   C     C_R   0.843238 0.372603 0.378309 -0.205907
C25   C     C_R   0.028829 0.568481 0.893335 0.245707
C26   C     C_R   0.437348 0.460864 0.894305 0.200195
C27   C     C_R   0.539282 0.975771 0.894159 0.201033
C28   C     C_R   0.562651 0.023880 0.394170 0.199798
C29   C     C_R   0.459890 0.431499 0.393547 0.147434
C30   C     C_R   0.971450 0.539729 0.393455 0.247362
C31   C     C_R   0.013070 0.572262 0.853197 -0.031514
C32   C     C_R   0.436187 0.440631 0.854376 -0.028681
C33   C     C_R   0.559395 0.994584 0.854207 -0.025357
C34   C     C_R   0.563623 0.004846 0.354241 -0.026043
C35   C     C_R   0.440740 0.430650 0.353514 -0.039142
C36   C     C_R   0.987470 0.559513 0.353356 -0.028263
C37   C     C_R   0.066321 0.548519 0.826454 -0.037731
C38   C     C_R   0.455062 0.515544 0.827064 -0.003070
C39   C     C_R   0.484193 0.938864 0.826957 -0.003192
C40   C     C_R   0.544844 0.061060 0.326970 -0.004861
C41   C     C_R   0.517672 0.454338 0.326601 0.002705
C42   C     C_R   0.934176 0.482746 0.326528 -0.038425
C43   C     C_R   0.102701 0.548353 0.905399 -0.003835
C44   C     C_R   0.452532 0.553567 0.905735 0.013016
C45   C     C_R   0.446338 0.898825 0.905683 0.011742
C46   C     C_R   0.547583 0.101405 0.405673 0.009477
C47   C     C_R   0.554145 0.452185 0.405466 0.012648
C48   C     C_R   0.897359 0.445753 0.405423 -0.004253
C49   C     C_R   0.578742 0.441681 0.445206 0.613255
C50   C     C_R   0.558167 0.136742 0.445323 0.615669
C51   C     C_R   0.862983 0.421306 0.445224 0.611960
C52   C     C_R   0.441858 0.578532 0.945342 0.616660
C53   C     C_R   0.137025 0.558321 0.945216 0.611074
C54   C     C_R   0.421436 0.863270 0.945317 0.616000
C55   C     C_R   0.921251 0.457068 0.590726 0.013854
C56   C     C_R   0.543366 0.463919 0.590924 0.012859
C57   C     C_R   0.535959 0.079083 0.590834 0.013106
C58   C     C_R   0.457064 0.921110 0.090813 0.014310
C59   C     C_R   0.464331 0.542542 0.090633 0.014106
C60   C     C_R   0.078579 0.535915 0.090715 0.013928
C61   C     C_R   0.929054 0.386901 0.613134 -0.142558
C62   C     C_R   0.613807 0.541735 0.613319 -0.143664
C63   C     C_R   0.457934 0.071317 0.613199 -0.143258
C64   C     C_R   0.387183 0.930025 0.112986 -0.143051
C65   C     C_R   0.543526 0.612136 0.112715 -0.142055
C66   C     C_R   0.069734 0.457324 0.112996 -0.143008
C67   C     C_R   0.961123 0.406766 0.650911 -0.108690
C68   C     C_R   0.594503 0.553505 0.651230 -0.110322
C69   C     C_R   0.446033 0.039955 0.651074 -0.108610
C70   C     C_R   0.406515 0.961417 0.150870 -0.110352
C71   C     C_R   0.555977 0.592517 0.150508 -0.108170
C72   C     C_R   0.037866 0.445248 0.150813 -0.108723
C73   C     C_R   0.986854 0.497688 0.667405 -0.012473
C74   C     C_R   0.503873 0.488064 0.667865 -0.011562
C75   C     C_R   0.511547 0.014853 0.667704 -0.011859
C76   C     C_R   0.496661 0.985483 0.167682 -0.012059
C77   C     C_R   0.489922 0.502342 0.167304 -0.012156
C78   C     C_R   0.013260 0.511132 0.167447 -0.012681
C79   C     C_R   0.988431 0.571635 0.644348 -0.082971
C80   C     C_R   0.429626 0.415892 0.644859 -0.080562
C81   C     C_R   0.583889 0.013070 0.644703 -0.081032
C82   C     C_R   0.570544 0.986259 0.144856 -0.080118
C83   C     C_R   0.416479 0.428662 0.144531 -0.080511
C84   C     C_R   0.012508 0.584066 0.144498 -0.082525
C85   C     C_R   0.957363 0.553078 0.605887 0.238414
C86   C     C_R   0.447622 0.403771 0.606282 0.236588
C87   C     C_R   0.596148 0.043482 0.606156 0.238131
C88   C     C_R   0.552541 0.955778 0.106323 0.241544
C89   C     C_R   0.403578 0.446968 0.106085 0.241637
C90   C     C_R   0.043426 0.596508 0.106024 0.241336
C91   C     C_R   0.040569 0.536163 0.785554 0.361186
C92   C     C_R   0.466967 0.501946 0.786198 0.441967
C93   C     C_R   0.497703 0.964178 0.786059 0.441569
C94   C     C_R   0.533007 0.035797 0.286067 0.441190
C95   C     C_R   0.504347 0.465869 0.285640 0.440607
C96   C     C_R   0.960153 0.496274 0.285644 0.361117
Cr1   Cr    Cr6+3 0.522350 0.263930 0.500020 1.154785
Cr2   Cr    Cr6+3 0.736070 0.258420 0.500020 1.150509
Cr3   Cr    Cr6+3 0.741580 0.477650 0.500020 1.149364
Cr4   Cr    Cr6+3 0.263930 0.522350 0.000020 1.143553
Cr5   Cr    Cr6+3 0.258420 0.736070 0.000020 1.147950
Cr6   Cr    Cr6+3 0.477650 0.741580 0.000020 1.146984
H1    H     H_    0.904970 0.313852 0.602264 0.205103
H2    H     H_    0.686682 0.590866 0.602327 0.204320
H3    H     H_    0.408740 0.094995 0.602220 0.204582
H4    H     H_    0.314657 0.907245 0.101849 0.204871
H5    H     H_    0.593322 0.684659 0.101592 0.205744
H6    H     H_    0.092834 0.407719 0.101993 0.205632
H7    H     H_    0.215673 0.517002 0.887918 0.124779
H8    H     H_    0.477381 0.695031 0.887433 0.121645
H9    H     H_    0.304331 0.782974 0.887489 0.125458
H10   H     H_    0.522954 0.218243 0.387493 0.116955
H11   H     H_    0.698973 0.485677 0.387823 0.125745
H12   H     H_    0.784073 0.301726 0.387817 0.123179
H13   H     H_    0.961841 0.348991 0.667621 0.179761
H14   H     H_    0.652473 0.611863 0.667918 0.177816
H15   H     H_    0.387531 0.039317 0.667750 0.179634
H16   H     H_    0.348894 0.962892 0.167411 0.177718
H17   H     H_    0.615359 0.649939 0.167010 0.179738
H18   H     H_    0.036397 0.386274 0.167441 0.179650
H19   H     H_    0.011299 0.643173 0.656623 0.187074
H20   H     H_    0.358313 0.367024 0.657267 0.187717
H21   H     H_    0.632827 0.990699 0.657099 0.187434
H22   H     H_    0.641526 0.007831 0.157393 0.187468
H23   H     H_    0.367080 0.357662 0.157063 0.187147
H24   H     H_    0.990475 0.633283 0.156879 0.186909
N1    N     N_R   0.006172 0.446776 0.769173 -0.157871
N2    N     N_R   0.556365 0.556288 0.769753 -0.149330
N3    N     N_R   0.443360 0.999215 0.769599 -0.142454
N4    N     N_R   0.443877 0.001771 0.269504 -0.150886
N5    N     N_R   0.558137 0.555323 0.269158 -0.143135
N6    N     N_R   0.994048 0.440892 0.269219 -0.156900
N7    N     N_R   0.989691 0.435230 0.731584 -0.190443
N8    N     N_R   0.567441 0.551731 0.732105 -0.195114
N9    N     N_R   0.447877 0.014762 0.731945 -0.188536
N10   N     N_R   0.432982 0.986366 0.231837 -0.195291
N11   N     N_R   0.553547 0.566225 0.231499 -0.188571
N12   N     N_R   0.010375 0.445714 0.231616 -0.190337
N13   N     N_R   0.041179 0.602182 0.725462 -0.186274
N14   N     N_R   0.399926 0.438167 0.726065 -0.178660
N15   N     N_R   0.561400 0.960753 0.725917 -0.179984
N16   N     N_R   0.600144 0.038504 0.226010 -0.179123
N17   N     N_R   0.440951 0.398439 0.225507 -0.180365
N18   N     N_R   0.959758 0.561865 0.225574 -0.186174
N19   N     N_R   0.057986 0.613927 0.763181 -0.180954
N20   N     N_R   0.388649 0.442861 0.763840 -0.155241
N21   N     N_R   0.556738 0.944858 0.763701 -0.156597
N22   N     N_R   0.611243 0.054257 0.263800 -0.156705
N23   N     N_R   0.445720 0.387332 0.263291 -0.160437
N24   N     N_R   0.943101 0.556911 0.263302 -0.181474
O1    O     O_R   0.498680 0.159540 0.541860 -0.489775
O2    O     O_R   0.840460 0.339140 0.541860 -0.489308
O3    O     O_R   0.660860 0.501320 0.541860 -0.491457
O4    O     O_R   0.159540 0.498680 0.041860 -0.490516
O5    O     O_R   0.339140 0.840460 0.041860 -0.490705
O6    O     O_R   0.501320 0.660860 0.041860 -0.490274
O7    O     O_R   0.532760 0.358060 0.540030 -0.438683
O8    O     O_R   0.641940 0.174700 0.540030 -0.441555
O9    O     O_R   0.825300 0.467240 0.540030 -0.441538
O10   O     O_R   0.358060 0.532760 0.040030 -0.441304
O11   O     O_R   0.174700 0.641940 0.040030 -0.441182
O12   O     O_R   0.467240 0.825300 0.040030 -0.441105
O13   O     O_R   0.498590 0.161190 0.456930 -0.501606
O14   O     O_R   0.838810 0.337400 0.456930 -0.498302
O15   O     O_R   0.662600 0.501410 0.456930 -0.502562
O16   O     O_R   0.161190 0.498590 0.956930 -0.501979
O17   O     O_R   0.337400 0.838810 0.956930 -0.499280
O18   O     O_R   0.501410 0.662600 0.956930 -0.499403
O19   O     O_R   0.532680 0.359580 0.461300 -0.469688
O20   O     O_R   0.640420 0.173100 0.461300 -0.476106
O21   O     O_R   0.826900 0.467320 0.461300 -0.477391
O22   O     O_R   0.359580 0.532680 0.961300 -0.475190
O23   O     O_R   0.173100 0.640420 0.961300 -0.472680
O24   O     O_R   0.467320 0.826900 0.961300 -0.473793
O25   O     O_3   0.666667 0.333333 0.499990 -0.331086
O26   O     O_3   0.333333 0.666667 0.999990 -0.329543
S1    S     S_3+6 0.966169 0.652034 0.578378 0.060482
O27   O     O_2   0.867512 0.645377 0.577210 -0.282610
O28   O     O_2   0.039439 0.748314 0.596248 -0.238955
O29   O     O_3   0.002323 0.647033 0.533353 -0.440620
H25   H     H_    0.999336 0.700356 0.519362 0.395193
S2    S     S_3+6 0.348296 0.313818 0.578882 0.062998
O30   O     O_2   0.355113 0.221946 0.577223 -0.279282
O31   O     O_2   0.252309 0.290385 0.597158 -0.241000
O32   O     O_3   0.352393 0.355569 0.534038 -0.430130
H26   H     H_    0.295336 0.301391 0.520714 0.407126
S3    S     S_3+6 0.686515 0.034718 0.578785 0.060801
O33   O     O_2   0.778328 0.133513 0.577534 -0.282715
O34   O     O_2   0.709784 0.961827 0.596846 -0.238539
O35   O     O_3   0.645543 0.998054 0.533780 -0.438322
H27   H     H_    0.702421 0.002558 0.519700 0.396136
S4    S     S_3+6 0.651494 0.963094 0.079282 0.058125
O36   O     O_2   0.747750 0.035250 0.097473 -0.239328
O37   O     O_2   0.643183 0.863704 0.078306 -0.287604
O38   O     O_3   0.648441 0.999772 0.034163 -0.442868
H28   H     H_    0.697815 0.990558 0.019935 0.379718
S5    S     S_3+6 0.311497 0.348272 0.079087 0.058045
O39   O     O_2   0.287332 0.251843 0.097138 -0.238973
O40   O     O_2   0.220576 0.356875 0.078380 -0.288753
O41   O     O_3   0.350676 0.351429 0.033866 -0.442618
H29   H     H_    0.291652 0.302956 0.019602 0.379450
S6    S     S_3+6 0.035800 0.687645 0.078751 0.057481
O42   O     O_2   0.963119 0.711369 0.096702 -0.239635
O43   O     O_2   0.134948 0.779045 0.077797 -0.287193
O44   O     O_3   0.999644 0.647426 0.033640 -0.444477
H30   H     H_    0.007537 0.705505 0.019410 0.379143
C97   C     C_2   0.205264 0.512101 0.813054 0.288023
H31   H     H_    0.245748 0.478209 0.824212 0.104773
O45   O     O_2   0.217841 0.538792 0.779530 -0.394588
C98   C     C_2   0.483442 0.687902 0.812660 0.281253
H32   H     H_    0.513475 0.762115 0.823619 0.110726
O46   O     O_2   0.458469 0.672418 0.778962 -0.403486
C99   C     C_2   0.311337 0.795729 0.812714 0.281532
H33   H     H_    0.236969 0.752673 0.823645 0.121957
O47   O     O_2   0.326765 0.785163 0.779124 -0.404259
C100  C     C_2   0.517130 0.205533 0.312711 0.279330
H34   H     H_    0.487089 0.249678 0.323699 0.103989
O48   O     O_2   0.542497 0.215396 0.279054 -0.403658
C101  C     C_2   0.693195 0.491081 0.313057 0.279664
H35   H     H_    0.767628 0.525433 0.324177 0.120518
O49   O     O_2   0.679127 0.464187 0.279558 -0.404687
C102  C     C_2   0.794759 0.307728 0.312944 0.290308
H36   H     H_    0.754033 0.233280 0.324017 0.103583
O50   O     O_2   0.782352 0.322181 0.279442 -0.393434
S7    S     S_3+6 0.951397 0.579138 0.928156 0.101880
O51   O     O_2   0.848066 0.533724 0.913149 -0.194277
O52   O     O_2   0.949650 0.527974 0.964914 -0.221714
O53   O     O_3   0.994684 0.698934 0.937157 -0.482902
H37   H     H_    0.940817 0.701469 0.950908 0.379638
S8    S     S_3+6 0.427374 0.374156 0.929699 0.049577
O54   O     O_2   0.478128 0.320043 0.916145 -0.223103
O55   O     O_2   0.473455 0.424290 0.967016 -0.202662
O56   O     O_3   0.307680 0.293501 0.936906 -0.539496
H38   H     H_    0.306535 0.239513 0.952009 0.381471
S9    S     S_3+6 0.626474 0.052149 0.929480 0.048279
O57   O     O_2   0.681533 0.156910 0.915832 -0.227874
O58   O     O_2   0.576640 0.048920 0.966782 -0.203128
O59   O     O_3   0.706135 0.011895 0.936766 -0.537193
H39   H     H_    0.760537 0.064553 0.951773 0.379974
S10   S     S_3+6 0.572524 0.947096 0.429547 0.034938
O60   O     O_2   0.679452 0.983988 0.437187 -0.290065
O61   O     O_2   0.523100 0.948703 0.466328 -0.217343
O62   O     O_3   0.518986 0.830158 0.414046 -0.483377
H40   H     H_    0.534583 0.794909 0.433939 0.396741
S11   S     S_3+6 0.370055 0.413651 0.428898 0.056511
O63   O     O_2   0.300456 0.445932 0.414538 -0.220878
O64   O     O_2   0.419573 0.472034 0.464411 -0.186113
O65   O     O_3   0.306181 0.293945 0.440599 -0.493400
H41   H     H_    0.281525 0.258986 0.415829 0.329156
S12   S     S_3+6 0.048937 0.627289 0.428393 0.096257
O66   O     O_2   0.009067 0.694144 0.437573 -0.241446
O67   O     O_2   0.052374 0.576688 0.464558 -0.227085
O68   O     O_3   0.164208 0.694262 0.411465 -0.445058
H42   H     H_    0.199937 0.744890 0.431380 0.395326
C103  C     C_2   0.941841 0.600493 0.838462 0.324819
H43   H     H_    0.897457 0.564257 0.813328 0.126874
O69   O     O_2   0.935491 0.667719 0.853058 -0.394616
C104  C     C_2   0.413496 0.341069 0.841564 0.316098
H44   H     H_    0.361270 0.276732 0.857570 0.175216
O70   O     O_2   0.453976 0.329656 0.813686 -0.442667
C105  C     C_2   0.659115 0.070847 0.841304 0.315562
H45   H     H_    0.723365 0.082367 0.857218 0.173361
O71   O     O_2   0.670763 0.122907 0.813457 -0.445539
C106  C     C_2   0.586187 0.927971 0.341382 0.324347
H46   H     H_    0.638712 0.916074 0.357265 0.176601
O72   O     O_2   0.545304 0.875873 0.313597 -0.441497
C107  C     C_2   0.340464 0.403098 0.339998 0.305847
H47   H     H_    0.276646 0.344808 0.354341 0.141965
O73   O     O_2   0.327874 0.446121 0.313318 -0.435904
C108  C     C_2   0.058804 0.659041 0.338759 0.333910
H48   H     H_    0.103418 0.667380 0.313678 0.127397
O74   O     O_2   0.064945 0.732480 0.353401 -0.395772

loop_
_geom_bond_atom_site_label_1
_geom_bond_atom_site_label_2
_ccdc_geom_bond_type
C25   C31   A    
C95   N5    A    
C103  O69   D    
C24   H12   S    
O35   H27   S    
Cr1   O25   S    
Cr3   O9    S    
Cr4   O22   S    
C6    C58   S    
C36   C42   A    
C51   O21   A    
C91   N19   A    
C54   O17   A    
C15   C99   S    
C16   C22   A    
C25   C43   A    
C2    C57   S    
C53   O23   A    
C7    C73   S    
Cr2   O2    S    
O44   H30   S    
C27   C33   A    
C26   C32   A    
C79   H19   S    
C28   C46   A    
C3    O2    A    
C17   C23   A    
C70   H16   S    
S6    O43   D    
C29   C47   A    
C34   C40   A    
C30   C48   A    
C61   H1    S    
C1    C56   S    
C100  O48   D    
C7    N7    A    
C18   C42   A    
C10   N16   A    
O68   H42   S    
S3    O34   D    
Cr3   O3    S    
C23   H11   S    
Cr5   O5    S    
Cr6   O26   S    
C5    O4    A    
C49   O19   A    
C33   C105  S    
C90   S6    S    
S7    O53   S    
Cr1   O19   S    
S8    O56   S    
Cr4   O16   S    
C59   C89   A    
C25   S7    S    
C16   C100  S    
C67   H13   S    
S2    O30   D    
C39   C93   S    
S3    O35   S    
C80   C86   A    
C11   C77   S    
C21   H9    S    
N3    N9    A    
C10   C76   S    
C38   C92   S    
C43   C53   S    
C48   C51   S    
C66   C72   A    
C63   C69   A    
C65   C71   A    
C106  H46   S    
S1    O28   D    
S6    O44   S    
C12   C78   S    
Cr4   O26   S    
N18   N24   A    
S9    O57   D    
C13   C97   S    
C108  O74   D    
C69   C75   A    
C67   C73   A    
C32   C38   A    
C63   H3    S    
O56   H38   S    
C13   C37   A    
C6    O5    A    
C17   C101  S    
C27   S9    S    
C96   N6    A    
C62   C68   A    
C66   H6    S    
C44   C52   S    
S12   O68   S    
C19   H7    S    
C28   C34   A    
Cr1   O7    S    
C74   C80   A    
S11   O63   D    
C58   C64   A    
S9    O58   D    
C52   O22   A    
C41   C95   S    
C84   C90   A    
C32   C104  S    
C83   H23   S    
C93   N3    A    
C92   N2    A    
C82   H22   S    
O53   H37   S    
C20   C44   A    
C19   C43   A    
C57   C63   A    
C59   C65   A    
C21   C45   A    
C99   O47   D    
C84   H24   S    
C83   C89   A    
C23   C47   A    
S6    O42   D    
C37   C91   S    
C26   C44   A    
C97   H31   S    
C24   C48   A    
S4    O38   S    
C14   C20   A    
C100  H34   S    
C47   C49   S    
Cr6   O12   S    
C60   C90   A    
C76   C82   A    
C101  H35   S    
C105  O71   D    
C14   C98   S    
C2    O8    A    
C75   C81   A    
C13   C19   A    
C87   S3    S    
C94   N22   A    
Cr1   O13   S    
S12   O66   D    
C99   H33   S    
C92   N20   A    
C62   H2    S    
C26   S8    S    
C57   C87   A    
C31   C37   A    
S2    O32   S    
C80   H20   S    
C55   C85   A    
S5    O41   S    
C104  O70   D    
C64   C70   A    
C49   O15   A    
N5    N11   A    
N2    N8    A    
C14   C38   A    
Cr4   O10   S    
C56   C86   A    
S5    O39   D    
C8    N8    A    
N17   N23   A    
S8    O55   D    
S1    O29   S    
C96   N24   A    
C72   H18   S    
S10   O61   D    
S7    O51   D    
Cr1   O1    S    
Cr3   O25   S    
C51   O14   A    
C50   O20   A    
C33   C39   A    
C1    O7    A    
S5    O40   D    
C30   S12   S    
N16   N22   A    
C15   C39   A    
C81   C87   A    
C35   C41   A    
C91   N1    A    
C16   C40   A    
C20   H8    S    
C9    N9    A    
C98   O46   D    
C85   S1    S    
C22   C46   A    
C68   H14   S    
C45   C54   S    
C98   H32   S    
S12   O67   D    
C22   H10   S    
C71   H17   S    
S11   O64   D    
C70   C76   A    
S9    O59   S    
C18   C24   A    
N14   N20   A    
C103  H43   S    
C94   N4    A    
Cr6   O6    S    
C40   C94   S    
C71   C77   A    
O65   H41   S    
C81   H21   S    
C97   O45   D    
N6    N12   A    
Cr4   O4    S    
C2    O1    A    
C88   S4    S    
C46   C50   S    
O59   H39   S    
C102  O50   D    
Cr6   O18   S    
C5    C60   S    
C4    O6    A    
C50   O13   A    
C108  H48   S    
C29   S11   S    
C6    O12   A    
N4    N10   A    
N1    N7    A    
N13   N19   A    
C10   N10   A    
C73   C79   A    
C58   C88   A    
C4    O10   A    
Cr2   O14   S    
C107  H47   S    
C64   H4    S    
C95   N23   A    
C30   C36   A    
Cr6   O24   S    
C89   S5    S    
C29   C35   A    
C3    C55   S    
C34   C106  S    
C8    N14   A    
S4    O36   D    
C54   O24   A    
Cr5   O11   S    
C104  H44   S    
C11   N11   A    
S8    O54   D    
C42   C96   S    
C52   O18   A    
C7    N13   A    
Cr2   O25   S    
C107  O73   D    
C27   C45   A    
O32   H26   S    
C105  H45   S    
C11   N17   A    
O41   H29   S    
C82   C88   A    
C55   C61   A    
C4    C59   S    
C69   H15   S    
S10   O60   D    
S7    O52   D    
C79   C85   A    
C12   N18   A    
C93   N21   A    
C56   C62   A    
C101  O49   D    
S10   O62   S    
C36   C108  S    
C61   C67   A    
C102  H36   S    
C18   C102  S    
C17   C41   A    
C78   C84   A    
C1    O3    A    
C9    N15   A    
N15   N21   A    
C3    O9    A    
C60   C66   A    
O38   H28   S    
Cr2   O20   S    
Cr2   O8    S    
C53   O16   A    
C15   C21   A    
Cr3   O21   S    
S2    O31   D    
C106  O72   D    
S1    O27   D    
S11   O65   S    
C72   C78   A    
C8    C74   S    
C86   S2    S    
C31   C103  S    
C77   C83   A    
C12   N12   A    
Cr5   O26   S    
S3    O33   D    
C9    C75   S    
C35   C107  S    
C68   C74   A    
C65   H5    S    
C28   S10   S    
O29   H25   S    
O62   H40   S    
Cr5   O17   S    
C5    O11   A    
Cr5   O23   S    
Cr3   O15   S    
S4    O37   D    
