data_mof_unit_pretest_390.cif
_audit_creation_date              2012-12-10T21:07:48-0500
_audit_creation_method            fapswitch 2.2
_symmetry_space_group_name_H-M    P1
_symmetry_Int_Tables_number       1
_space_group_crystal_system       triclinic
_cell_length_a                    8.570253
_cell_length_b                    17.45837
_cell_length_c                    16.760305
_cell_angle_alpha                 89.169203
_cell_angle_beta                  98.588189
_cell_angle_gamma                 89.913387
_cell_volume                      2479.32478519

loop_
_atom_site_label
_atom_site_type_symbol
_atom_type_description
_atom_site_fract_x
_atom_site_fract_y
_atom_site_fract_z
_atom_type_partial_charge
C1    C     C_R   0.496312 0.353244 0.500335 0.887613
C2    C     C_R   0.380623 0.464171 0.244528 -0.010300
C3    C     C_R   0.637554 0.527205 0.841611 0.034861
C4    C     C_R   0.374476 0.462750 0.159181 0.034546
C5    C     C_R   0.505246 0.500850 0.875873 0.113303
C6    C     C_R   0.497435 0.498615 0.124446 0.113473
C7    C     C_1   0.502811 0.500098 0.963726 -0.064301
C8    C     C_1   0.500617 0.499435 0.036645 -0.061762
C9    C     C_R   0.200641 0.500131 0.479022 0.964875
C10   C     C_R   0.799349 0.500128 0.520970 0.979746
C11   C     C_2   0.035813 0.500377 0.467511 -0.395350
C12   C     C_R   0.501728 0.647038 0.499301 0.915707
C13   C     C_2   0.964163 0.500284 0.532463 -0.398967
C14   C     C_R   0.366932 0.844695 0.537367 0.083727
C15   C     C_R   0.549569 0.151859 0.441290 0.085836
C16   C     C_R   0.402212 0.766959 0.547217 -0.299198
C17   C     C_R   0.571131 0.229981 0.452489 -0.277263
C18   C     C_R   0.489589 0.730127 0.494906 -0.132135
C19   C     C_R   0.478566 0.270813 0.499035 -0.149400
C20   C     C_R   0.546793 0.771211 0.432167 0.152453
C21   C     C_R   0.361316 0.233679 0.536336 0.131139
C22   C     C_R   0.508535 0.849190 0.420449 0.153245
C23   C     C_1   0.409840 0.966434 0.470218 -0.017962
C24   C     C_R   0.333619 0.155397 0.522276 0.193155
C25   C     C_R   0.421597 0.885413 0.473951 0.040332
C26   C     C_R   0.429017 0.115096 0.475748 0.023596
C27   C     C_3   0.268558 0.882359 0.593966 -0.397098
C28   C     C_3   0.099010 0.895960 0.551868 -0.325369
C29   C     C_3   0.996120 0.929724 0.609504 -0.885768
C30   C     C_3   0.654744 0.110062 0.391134 -0.407642
C31   C     C_3   0.572446 0.101530 0.304156 -0.309514
C32   C     C_3   0.684419 0.067706 0.251071 -0.899438
C33   C     C_3   0.803823 0.723539 0.413499 -0.803210
C34   C     C_1   0.412881 0.034455 0.470565 -0.015971
C35   C     C_3   0.314805 0.275761 0.667773 -0.775992
C36   C     C_3   0.439914 0.896666 0.284273 -0.826120
C37   C     C_3   0.062819 0.115077 0.494237 -0.815591
C38   C     C_3   0.782798 0.555338 0.897025 -0.428089
C39   C     C_3   0.921880 0.580952 0.854727 -0.374446
C40   C     C_3   0.061712 0.606800 0.915514 -0.865421
C41   C     C_3   0.240755 0.424107 0.104309 -0.429840
C42   C     C_3   0.105561 0.392723 0.146041 -0.370576
C43   C     C_3   0.973863 0.359821 0.084813 -0.864755
C44   C     C_R   0.373113 0.474620 0.823796 -0.298688
C45   C     C_R   0.618732 0.534717 0.175923 -0.302135
C46   C     C_R   0.372935 0.474428 0.739878 -0.020636
C47   C     C_R   0.617567 0.535077 0.259730 -0.000620
C48   C     C_R   0.629874 0.526322 0.756148 -0.010017
H1    H     H_    0.973917 0.500547 0.405880 0.172604
H2    H     H_    0.290754 0.436771 0.273503 0.126923
H3    H     H_    0.987566 0.889008 0.660197 0.259660
H4    H     H_    0.046504 0.984595 0.634094 0.269178
H5    H     H_    0.875550 0.940761 0.576684 0.247868
H6    H     H_    0.098666 0.935831 0.499566 0.231993
H7    H     H_    0.046960 0.840695 0.529247 0.218080
H8    H     H_    0.265311 0.845399 0.648329 0.194958
H9    H     H_    0.323289 0.937362 0.615751 0.207474
H10   H     H_    0.784752 0.107186 0.247484 0.258808
H11   H     H_    0.731179 0.011537 0.275939 0.268319
H12   H     H_    0.026020 0.500195 0.594086 0.169230
H13   H     H_    0.620317 0.059329 0.189211 0.246503
H14   H     H_    0.467881 0.063854 0.303059 0.235508
H15   H     H_    0.531389 0.158562 0.278872 0.219179
H16   H     H_    0.765835 0.142631 0.390309 0.199337
H17   H     H_    0.689595 0.053019 0.418456 0.209865
H18   H     H_    0.621781 0.751448 0.320965 0.228585
H19   H     H_    0.863122 0.688371 0.372121 0.235672
H20   H     H_    0.816355 0.693538 0.473049 0.241404
H21   H     H_    0.862697 0.780185 0.420345 0.221722
H22   H     H_    0.226029 0.328220 0.558018 0.230914
H23   H     H_    0.356157 0.734296 0.593991 0.172749
H24   H     H_    0.426160 0.308509 0.681663 0.262509
H25   H     H_    0.335367 0.216653 0.692403 0.227987
H26   H     H_    0.223332 0.303125 0.698402 0.227265
H27   H     H_    0.668787 0.878527 0.343169 0.224483
H28   H     H_    0.485734 0.930869 0.236598 0.246859
H29   H     H_    0.331298 0.924958 0.298403 0.250007
H30   H     H_    0.410125 0.838530 0.260620 0.235240
H31   H     H_    0.185458 0.134217 0.607945 0.245196
H32   H     H_    0.970922 0.082632 0.520445 0.243000
H33   H     H_    0.084139 0.086086 0.438260 0.244194
H34   H     H_    0.660169 0.259612 0.424164 0.161544
H35   H     H_    0.018519 0.174197 0.479196 0.241802
H36   H     H_    0.027143 0.655612 0.950976 0.259732
H37   H     H_    0.104833 0.558848 0.957118 0.254975
H38   H     H_    0.159405 0.625358 0.883064 0.254245
H39   H     H_    0.961368 0.532576 0.820095 0.217852
H40   H     H_    0.884620 0.629704 0.812755 0.221666
H41   H     H_    0.746739 0.604237 0.932041 0.210326
H42   H     H_    0.824646 0.508338 0.940446 0.206783
H43   H     H_    0.923129 0.405067 0.041275 0.256041
H44   H     H_    0.019829 0.312335 0.051427 0.259063
H45   H     H_    0.270176 0.454135 0.847978 0.151953
H46   H     H_    0.878596 0.337215 0.116704 0.251446
H47   H     H_    0.150849 0.346483 0.189748 0.219339
H48   H     H_    0.054975 0.439517 0.178653 0.221977
H49   H     H_    0.189768 0.466615 0.057723 0.207145
H50   H     H_    0.291368 0.376362 0.073076 0.209420
H51   H     H_    0.714098 0.562790 0.151349 0.148680
H52   H     H_    0.270426 0.453578 0.700853 0.134397
H53   H     H_    0.711420 0.563520 0.298479 0.138567
H54   H     H_    0.727103 0.546591 0.727679 0.129143
N1    N     N_R   0.500040 0.500030 0.707230 -0.099479
N2    N     N_R   0.499960 0.499970 0.292770 -0.100756
N3    N     N_2   0.639123 0.733260 0.380388 -0.289799
N4    N     N_2   0.261701 0.275076 0.581592 -0.306075
N5    N     N_2   0.557881 0.892002 0.355616 -0.309707
N6    N     N_2   0.206163 0.117295 0.551877 -0.299404
O1    O     O_R   0.500000 0.389130 0.566570 -0.613821
O2    O     O_R   0.500000 0.610870 0.433430 -0.584904
O3    O     O_R   0.499990 0.389100 0.433480 -0.620115
O4    O     O_R   0.500010 0.610900 0.566520 -0.627490
O5    O     O_R   0.271750 0.500010 0.550980 -0.624008
O6    O     O_R   0.728250 0.499990 0.449020 -0.616403
O7    O     O_R   0.271740 0.499980 0.417890 -0.637318
O8    O     O_R   0.728260 0.500020 0.582110 -0.639843
Zn1   Zn    Zn3+2 0.500010 0.500020 0.588860 0.925261
Zn2   Zn    Zn3+2 0.499990 0.499980 0.411140 0.940455

loop_
_geom_bond_atom_site_label_1
_geom_bond_atom_site_label_2
_ccdc_geom_bond_type
C35   H26   S    
H27   N5    S    
C47   H53   S    
C6    C45   A    
C30   H16   S    
C41   C42   S    
C40   H36   S    
C32   H10   S    
O2    Zn2   S    
C12   O2    A    
O1    Zn1   S    
C7    C8    T    
C13   H12   S    
C38   H41   S    
O3    Zn2   S    
C42   H48   S    
C28   C29   S    
C19   C21   A    
C24   C26   A    
C32   H13   S    
C36   H29   S    
C30   C31   S    
C4    C41   S    
C22   N5    S    
C3    C48   A    
C43   H46   S    
O8    Zn1   S    
C17   H34   S    
C40   H38   S    
C44   H45   S    
C2    H2    S    
C1    O1    A    
C26   C34   S    
C3    C38   S    
C22   C25   A    
C24   N6    S    
C39   H39   S    
C14   C27   S    
C36   H28   S    
C18   C20   A    
C21   N4    S    
C10   O6    A    
C33   H21   S    
O7    Zn2   S    
C36   N5    S    
C31   H14   S    
C37   H33   S    
N1    Zn1   S    
C16   H23   S    
C39   H40   S    
C28   H7    S    
C44   C46   A    
N2    Zn2   S    
C45   C47   A    
C37   H32   S    
C1    C19   S    
C42   H47   S    
C9    O7    A    
C31   H15   S    
C33   N3    S    
C37   N6    S    
C4    C6    A    
C27   H9    S    
C39   C40   S    
C5    C7    S    
C28   H6    S    
C27   H8    S    
C15   C26   A    
C6    C8    S    
C48   N1    A    
C43   H43   S    
C40   H37   S    
C2    C4    A    
C11   H1    S    
H22   N4    S    
C31   C32   S    
C2    N2    A    
C23   C34   T    
C48   H54   S    
C9    C11   S    
O6    Zn2   S    
O5    Zn1   S    
C5    C44   A    
C20   C22   A    
C35   H24   S    
C45   H51   S    
C14   C16   A    
C42   C43   S    
H18   N3    S    
C12   O4    A    
C10   O8    A    
C33   H19   S    
C15   C30   S    
C20   N3    S    
C29   H3    S    
C15   C17   A    
C46   H52   S    
C35   H25   S    
C47   N2    A    
C3    C5    A    
C10   C13   S    
C46   N1    A    
C38   H42   S    
C43   H44   S    
O4    Zn1   S    
C9    O5    A    
C35   N4    S    
C36   H30   S    
C1    O3    A    
C11   C13   D    
C38   C39   S    
C29   H5    S    
C17   C19   A    
H31   N6    S    
C41   H49   S    
C23   C25   S    
C14   C25   A    
C30   H17   S    
C16   C18   A    
C21   C24   A    
C12   C18   S    
C27   C28   S    
C41   H50   S    
C37   H35   S    
C32   H11   S    
C33   H20   S    
C29   H4    S    
