data_mof_unit_pretest_1954.cif
_audit_creation_date              2012-12-10T17:05:47-0500
_audit_creation_method            fapswitch 2.2
_symmetry_space_group_name_H-M    P1
_symmetry_Int_Tables_number       1
_space_group_crystal_system       triclinic
_cell_length_a                    21.746181
_cell_length_b                    21.89108
_cell_length_c                    38.860789
_cell_angle_alpha                 90.014687
_cell_angle_beta                  89.545781
_cell_angle_gamma                 90.003885
_cell_volume                      18498.9951305

loop_
_atom_site_label
_atom_site_type_symbol
_atom_type_description
_atom_site_fract_x
_atom_site_fract_y
_atom_site_fract_z
_atom_type_partial_charge
C1    C     C_R   0.499954 0.118361 0.500033 0.806095
C2    C     C_R   0.731152 0.483190 0.403546 -0.247452
C3    C     C_R   0.000191 0.500020 0.566147 0.883128
C4    C     C_R   0.000223 0.499957 0.933938 0.895713
C5    C     C_R   0.500039 0.999940 0.933862 0.860500
C6    C     C_R   0.999781 0.499962 0.065961 0.903115
C7    C     C_R   0.499912 0.999960 0.066279 0.815997
C8    C     C_R   0.494928 0.054314 0.377767 0.366643
C9    C     C_R   0.992922 0.555257 0.376671 0.391629
C10   C     C_R   0.504323 0.943268 0.378393 0.368646
C11   C     C_R   0.009165 0.444892 0.376511 0.389339
C12   C     C_R   0.500904 0.942980 0.621304 0.368349
C13   C     C_R   0.636324 0.719352 0.555365 -0.207619
C14   C     C_R   0.962788 0.540766 0.622938 0.358932
C15   C     C_R   0.500530 0.054189 0.622131 0.366939
C16   C     C_R   0.039865 0.459562 0.622129 0.360802
C17   C     C_R   0.031100 0.546795 0.877881 0.388046
C18   C     C_R   0.468328 0.953543 0.877685 0.356361
C19   C     C_R   0.971134 0.452634 0.877955 0.387917
C20   C     C_R   0.533241 0.044573 0.877219 0.356614
C21   C     C_R   0.023076 0.449346 0.121606 0.386485
C22   C     C_R   0.485867 0.945338 0.123120 0.390750
C23   C     C_R   0.974936 0.550227 0.121730 0.386506
C24   C     C_R   0.277332 0.450887 0.407903 -0.225022
C25   C     C_R   0.514144 0.053428 0.123380 0.390180
C26   C     C_R   0.498812 0.053921 0.341604 0.046837
C27   C     C_R   0.994147 0.555280 0.340385 0.028431
C28   C     C_R   0.500964 0.942510 0.342167 0.044867
C29   C     C_R   0.005689 0.444677 0.340302 0.029448
C30   C     C_R   0.505406 0.942287 0.657433 0.046570
C31   C     C_R   0.960811 0.537960 0.659216 0.037514
C32   C     C_R   0.496444 0.053457 0.658222 0.048785
C33   C     C_R   0.042739 0.461971 0.658396 0.032885
C34   C     C_R   0.033664 0.545345 0.841639 0.035582
C35   C     C_R   0.364900 0.719869 0.443761 -0.204707
C36   C     C_R   0.464941 0.956070 0.841528 0.039109
C37   C     C_R   0.969778 0.453761 0.841702 0.035601
C38   C     C_R   0.538505 0.040142 0.841147 0.039995
C39   C     C_R   0.024253 0.450132 0.157813 0.036796
C40   C     C_R   0.489423 0.944365 0.159289 0.025665
C41   C     C_R   0.972962 0.549290 0.157939 0.036773
C42   C     C_R   0.511069 0.053392 0.159616 0.026325
C43   C     C_R   0.500041 0.997943 0.323580 -0.082343
C44   C     C_R   0.999409 0.499937 0.321984 -0.081446
C45   C     C_R   0.501104 0.997530 0.676323 -0.086429
C46   C     C_R   0.722786 0.445294 0.591479 -0.240681
C47   C     C_R   0.001980 0.499854 0.677052 -0.072400
C48   C     C_R   0.002003 0.499491 0.823362 -0.079120
C49   C     C_R   0.502142 0.997674 0.822939 -0.074853
C50   C     C_R   0.998444 0.499694 0.175962 -0.075233
C51   C     C_R   0.500342 0.998617 0.177590 -0.077458
C52   C     C_R   0.500242 0.999207 0.396169 -0.266632
C53   C     C_R   0.000966 0.500053 0.395203 -0.301544
C54   C     C_R   0.499859 0.999021 0.603680 -0.264608
C55   C     C_R   0.000897 0.500082 0.604286 -0.287974
C56   C     C_R   0.000793 0.499812 0.896066 -0.278780
C57   C     C_R   0.617804 0.279134 0.432437 -0.235876
C58   C     C_R   0.500332 0.999535 0.895745 -0.287027
C59   C     C_R   0.999249 0.499844 0.103637 -0.275880
C60   C     C_R   0.499914 0.999638 0.104661 -0.307019
C61   C     C_R   0.500122 0.998152 0.215591 0.512247
C62   C     C_R   0.998411 0.499822 0.213835 0.518885
C63   C     C_R   0.502621 0.997191 0.784656 0.494830
C64   C     C_R   0.002349 0.499554 0.785177 0.514558
C65   C     C_R   0.002403 0.499735 0.715237 0.513104
C66   C     C_R   0.502035 0.997104 0.714633 0.492815
C67   C     C_R   0.998852 0.499938 0.283680 0.501563
C68   C     C_R   0.268745 0.484076 0.596377 -0.265443
C69   C     C_R   0.499741 0.997592 0.285427 0.506022
C70   C     C_R   0.433138 0.186929 0.551831 -0.109562
C71   C     C_R   0.817280 0.511288 0.437954 -0.167490
C72   C     C_R   0.578839 0.811543 0.545899 -0.107623
C73   C     C_R   0.188519 0.492433 0.436644 -0.177168
C74   C     C_R   0.422896 0.811739 0.453366 -0.105418
C75   C     C_R   0.812432 0.485804 0.563125 -0.135373
C76   C     C_R   0.564623 0.186711 0.447415 -0.106250
C77   C     C_R   0.183049 0.513514 0.561960 -0.114972
C78   C     C_R   0.891862 0.693462 0.022833 -0.142139
C79   C     C_R   0.832066 0.781929 0.008069 -0.179085
C80   C     C_R   0.316816 0.974842 0.938679 -0.122182
C81   C     C_R   0.108237 0.306405 0.021818 -0.142299
C82   C     C_R   0.685003 0.026287 0.939141 -0.123999
C83   C     C_R   0.890832 0.306285 0.979164 -0.152274
C84   C     C_R   0.315665 0.030603 0.060530 -0.164577
C85   C     C_R   0.109014 0.693505 0.978011 -0.151897
C86   C     C_R   0.682370 0.969351 0.060801 -0.165351
C87   C     C_R   0.395002 0.219402 0.574183 -0.219935
C88   C     C_R   0.790386 0.505395 0.406041 -0.217032
C89   C     C_R   0.624440 0.779967 0.563410 -0.225755
C90   C     C_R   0.227312 0.931742 0.912869 -0.278487
C91   C     C_R   0.218717 0.475696 0.406482 -0.226887
C92   C     C_R   0.377403 0.780349 0.435646 -0.226330
C93   C     C_R   0.782228 0.468013 0.593072 -0.200121
C94   C     C_R   0.602607 0.219024 0.424909 -0.220064
C95   C     C_R   0.209956 0.507506 0.593870 -0.174129
C96   C     C_R   0.835957 0.724449 0.022896 -0.256621
C97   C     C_R   0.287428 0.951813 0.910079 -0.174711
C98   C     C_R   0.164147 0.275433 0.021256 -0.257111
C99   C     C_R   0.715176 0.049911 0.910706 -0.177054
C100  C     C_R   0.835043 0.275113 0.979901 -0.257403
C101  C     C_R   0.167975 0.217996 0.006326 -0.178267
C102  C     C_R   0.285546 0.054045 0.089001 -0.207299
C103  C     C_R   0.164794 0.724701 0.978044 -0.257130
C104  C     C_R   0.711623 0.946176 0.089350 -0.206987
C105  C     C_3   0.429625 0.124800 0.400693 -0.340797
C106  C     C_3   0.925632 0.627124 0.397727 -0.302028
C107  C     C_3   0.565265 0.871014 0.402735 -0.335259
C108  C     C_3   0.080019 0.379538 0.398707 -0.285132
C109  C     C_3   0.444338 0.867370 0.596967 -0.345052
C110  C     C_3   0.948117 0.637156 0.602177 -0.252190
C111  C     C_3   0.561252 0.128521 0.599283 -0.351609
C112  C     C_R   0.881449 0.500031 0.500822 0.783070
C113  C     C_R   0.775158 0.070035 0.913648 -0.277454
C114  C     C_3   0.055977 0.363603 0.600790 -0.246431
C115  C     C_3   0.017617 0.639633 0.902857 -0.345313
C116  C     C_3   0.469139 0.855943 0.898133 -0.242969
C117  C     C_3   0.983650 0.360010 0.903198 -0.344317
C118  C     C_3   0.531061 0.142801 0.896438 -0.249001
C119  C     C_3   0.001471 0.358929 0.095644 -0.345828
C120  C     C_3   0.407800 0.889726 0.100316 -0.275925
C121  C     C_3   0.997164 0.640772 0.095898 -0.346199
C122  C     C_3   0.591731 0.110014 0.100121 -0.277294
C123  C     C_3   0.316498 0.329315 0.510982 -0.282070
C124  C     C_R   0.831646 0.217534 0.994637 -0.176534
C125  C     C_3   0.607297 0.446691 0.401782 -0.265915
C126  C     C_3   0.656393 0.644337 0.489536 -0.355091
C127  C     C_3   0.359438 0.355596 0.424362 -0.342255
C128  C     C_3   0.343375 0.644845 0.509528 -0.354683
C129  C     C_3   0.638132 0.353065 0.573784 -0.336270
C130  C     C_3   0.683655 0.328675 0.487580 -0.279106
C131  C     C_3   0.392087 0.445927 0.598160 -0.267091
C132  C     C_3   0.861593 0.860087 0.946756 -0.348080
C133  C     C_3   0.117545 0.870339 0.923359 -0.298395
C134  C     C_3   0.138007 0.139543 0.945377 -0.348820
C135  C     C_R   0.224884 0.072128 0.086410 -0.255503
C136  C     C_3   0.884275 0.131722 0.924517 -0.298427
C137  C     C_3   0.862658 0.138954 0.055264 -0.350226
C138  C     C_3   0.114606 0.131749 0.075889 -0.297884
C139  C     C_3   0.137965 0.860771 0.053669 -0.349708
C140  C     C_3   0.883827 0.870046 0.076793 -0.298269
C141  C     C_R   0.168295 0.782377 0.992643 -0.177144
C142  C     C_R   0.772513 0.928557 0.086920 -0.255591
C143  C     C_R   0.406861 0.308061 0.537604 0.558747
C144  C     C_R   0.695732 0.469947 0.433309 0.539233
C145  C     C_R   0.599821 0.688685 0.531454 0.515139
C146  C     C_R   0.307811 0.445007 0.439646 0.528389
C147  C     C_R   0.400755 0.689079 0.467929 0.513910
C148  C     C_R   0.500043 0.881276 0.500033 0.810827
C149  C     C_R   0.691774 0.442016 0.559780 0.527602
C150  C     C_R   0.592398 0.307545 0.461823 0.556521
C151  C     C_R   0.303973 0.470230 0.566603 0.541688
C152  C     C_R   0.885375 0.811392 0.996307 0.544865
C153  C     C_R   0.193709 0.938394 0.944171 0.531143
C154  C     C_R   0.114612 0.188544 0.995108 0.545029
C155  C     C_R   0.807822 0.063007 0.944945 0.532317
C156  C     C_R   0.885272 0.188181 0.005506 0.545922
C157  C     C_R   0.191822 0.063929 0.055328 0.528575
C158  C     C_R   0.114759 0.811766 0.004110 0.545549
C159  C     C_R   0.118542 0.500160 0.499181 0.784161
C160  C     C_R   0.806649 0.936954 0.055923 0.527420
C161  C     C_R   0.457874 0.280548 0.521119 -0.048876
C162  C     C_R   0.720787 0.482840 0.466723 -0.049481
C163  C     C_R   0.546910 0.717850 0.517563 -0.047412
C164  C     C_R   0.281092 0.472011 0.469814 -0.036449
C165  C     C_R   0.453544 0.718012 0.482112 -0.048308
C166  C     C_R   0.718792 0.470033 0.529986 -0.037305
C167  C     C_R   0.541505 0.280340 0.478562 -0.048122
C168  C     C_R   0.279058 0.483329 0.533207 -0.052286
C169  C     C_R   0.943696 0.783066 0.000756 -0.067465
C170  C     C_R   0.000041 0.619154 0.000039 0.786330
C171  C     C_R   0.220442 0.974195 0.971345 -0.026163
C172  C     C_R   0.056310 0.216893 0.000161 -0.067838
C173  C     C_R   0.780336 0.026782 0.971951 -0.027420
C174  C     C_R   0.943429 0.216743 0.000244 -0.068576
C175  C     C_R   0.219560 0.027844 0.028293 -0.025609
C176  C     C_R   0.056567 0.783211 0.999523 -0.068330
C177  C     C_R   0.779636 0.972806 0.028809 -0.024250
C178  C     C_R   0.464420 0.216867 0.524601 -0.014790
C179  C     C_R   0.784062 0.498447 0.468501 0.004424
C180  C     C_R   0.541543 0.781797 0.521311 0.001561
C181  C     C_R   0.381932 0.000072 0.999937 0.774400
C182  C     C_R   0.218243 0.488496 0.468740 0.010040
C183  C     C_R   0.459299 0.781906 0.478322 0.006358
C184  C     C_R   0.781964 0.485507 0.531146 -0.008330
C185  C     C_R   0.534506 0.216723 0.475032 -0.010601
C186  C     C_R   0.215915 0.499393 0.531469 -0.015375
C187  C     C_R   0.945371 0.720085 0.008080 0.009791
C188  C     C_R   0.284478 0.983819 0.969899 -0.014265
C189  C     C_R   0.054668 0.279861 0.007550 0.009715
C190  C     C_R   0.716405 0.016903 0.970354 -0.013546
C191  C     C_R   0.944813 0.279788 0.993003 0.010694
C192  C     C_R   0.999957 0.380830 0.000049 0.786326
C193  C     C_R   0.283742 0.018815 0.029714 0.008257
C194  C     C_R   0.055128 0.720130 0.992366 0.010917
C195  C     C_R   0.715322 0.981406 0.030076 0.008083
C196  C     C_R   0.499903 0.313327 0.499933 -0.182770
C197  C     C_R   0.686339 0.478405 0.498484 -0.144124
C198  C     C_R   0.500040 0.685632 0.499946 -0.199861
C199  C     C_R   0.313537 0.478919 0.501436 -0.144056
C200  C     C_R   0.000084 0.815278 0.000029 -0.203276
C201  C     C_R   0.186918 0.000725 0.999847 -0.152598
C202  C     C_R   0.999917 0.184689 0.000069 -0.204200
C203  C     C_R   0.618061 0.999938 0.000107 0.773883
C204  C     C_R   0.813068 0.000031 0.000403 -0.152998
C205  C     C_R   0.499711 0.184782 0.499932 -0.133457
C206  C     C_R   0.814132 0.499148 0.500483 -0.113600
C207  C     C_R   0.500247 0.814197 0.499929 -0.148673
C208  C     C_R   0.185826 0.500084 0.499537 -0.114241
C209  C     C_R   0.000196 0.686875 0.000147 -0.164112
C210  C     C_R   0.315543 0.000578 0.999910 -0.112683
C211  C     C_R   0.999798 0.313085 0.000182 -0.164697
C212  C     C_R   0.684443 0.999551 0.000220 -0.112819
C213  C     C_R   0.618584 0.491093 0.499626 0.983099
C214  C     C_R   0.380639 0.279725 0.566768 -0.238016
C215  C     C_R   0.499899 0.618700 0.499995 0.964591
C216  C     C_R   0.381377 0.491196 0.500362 0.981938
C217  C     C_R   0.500068 0.380918 0.499986 0.949911
C218  C     C_R   0.119182 0.000246 0.999918 1.052334
C219  C     C_R   1.000000 0.118392 0.000010 1.012539
C220  C     C_R   0.880812 0.999981 0.000136 1.052366
C221  C     C_R   0.999999 0.881597 0.000000 1.011608
C222  C     C_R   0.500138 0.999918 0.433968 0.914923
C223  C     C_R   0.000412 0.500006 0.433672 0.833009
C224  C     C_R   0.499872 0.999885 0.565980 0.914565
Cu1   Cu    Cu3+1 0.561710 0.000000 0.500000 0.928783
Cu2   Cu    Cu3+1 0.500000 0.500000 0.465670 1.016716
Cu3   Cu    Cu3+1 1.000000 0.000000 0.034330 1.000551
Cu4   Cu    Cu3+1 1.000000 0.000000 0.965670 0.998868
Cu5   Cu    Cu3+1 1.000000 0.561710 0.500000 0.953019
Cu6   Cu    Cu3+1 0.438290 0.000000 0.500000 0.928820
Cu7   Cu    Cu3+1 1.000000 0.438290 0.500000 0.961541
Cu8   Cu    Cu3+1 0.061710 0.500000 0.000000 0.963056
Cu9   Cu    Cu3+1 0.500000 0.061710 0.000000 0.966680
Cu10  Cu    Cu3+1 0.938290 0.500000 0.000000 0.963121
Cu11  Cu    Cu3+1 0.500000 0.938290 0.000000 0.965875
Cu12  Cu    Cu3+1 0.500000 0.500000 0.534330 1.015112
H1    H     H_    0.624390 0.195941 0.403402 0.169251
H2    H     H_    0.310483 0.061764 0.112621 0.162040
H3    H     H_    0.946029 0.631544 0.327809 0.226112
H4    H     H_    0.457942 0.861744 0.334105 0.247825
H5    H     H_    0.535326 0.859548 0.328773 0.236710
H6    H     H_    0.975120 0.358701 0.331291 0.254728
H7    H     H_    0.052226 0.367676 0.326662 0.228328
H8    H     H_    0.556462 0.865995 0.664577 0.245850
H9    H     H_    0.479736 0.855940 0.670060 0.238111
H10   H     H_    0.871845 0.561951 0.667780 0.244109
H11   H     H_    0.923813 0.618174 0.675513 0.232083
H12   H     H_    0.445691 0.129644 0.666859 0.240890
H13   H     H_    0.794067 0.296318 0.969717 0.166165
H14   H     H_    0.522478 0.139339 0.671585 0.239349
H15   H     H_    0.131852 0.437670 0.665382 0.240773
H16   H     H_    0.079878 0.381581 0.673877 0.231276
H17   H     H_    0.114869 0.587560 0.832200 0.246367
H18   H     H_    0.052355 0.633239 0.828844 0.237370
H19   H     H_    0.378010 0.924679 0.834671 0.230858
H20   H     H_    0.434083 0.872584 0.826377 0.234492
H21   H     H_    0.888853 0.411511 0.832262 0.246659
H22   H     H_    0.951452 0.365779 0.829074 0.236802
H23   H     H_    0.626012 0.070334 0.834306 0.230425
H24   H     H_    0.685875 0.938282 0.112902 0.162232
H25   H     H_    0.570958 0.122756 0.825224 0.235036
H26   H     H_    0.098503 0.397398 0.167654 0.248049
H27   H     H_    0.030175 0.360607 0.170699 0.235967
H28   H     H_    0.512117 0.856177 0.168470 0.254070
H29   H     H_    0.436130 0.871856 0.172800 0.230283
H30   H     H_    0.898542 0.602034 0.168034 0.247932
H31   H     H_    0.966829 0.638774 0.170968 0.236356
H32   H     H_    0.488396 0.141288 0.169866 0.254023
H33   H     H_    0.564443 0.125588 0.173089 0.229609
H34   H     H_    0.296299 0.357476 0.490563 0.192555
H35   H     H_    0.204873 0.296667 0.031736 0.166982
H36   H     H_    0.284069 0.330997 0.533200 0.169821
H37   H     H_    0.319428 0.282025 0.500390 0.135274
H38   H     H_    0.624452 0.421617 0.378794 0.134499
H39   H     H_    0.604372 0.496691 0.396708 0.133333
H40   H     H_    0.559860 0.430275 0.406936 0.195474
H41   H     H_    0.696497 0.674149 0.495352 0.168058
H42   H     H_    0.628350 0.664690 0.468616 0.159992
H43   H     H_    0.675022 0.600703 0.479723 0.180744
H44   H     H_    0.371335 0.362128 0.396772 0.162108
H45   H     H_    0.313870 0.332803 0.427228 0.137065
H46   H     H_    0.312466 0.946148 0.886126 0.177497
H47   H     H_    0.394331 0.324390 0.435398 0.202147
H48   H     H_    0.303645 0.675075 0.503609 0.169789
H49   H     H_    0.371272 0.664749 0.530651 0.159278
H50   H     H_    0.324174 0.601293 0.519099 0.180703
H51   H     H_    0.626427 0.358500 0.601475 0.160428
H52   H     H_    0.683163 0.329402 0.570525 0.139506
H53   H     H_    0.602529 0.323199 0.562289 0.200555
H54   H     H_    0.704282 0.356421 0.508054 0.191634
H55   H     H_    0.715434 0.331047 0.465093 0.171332
H56   H     H_    0.681251 0.281119 0.497814 0.135404
H57   H     H_    0.795270 0.703168 0.033747 0.167176
H58   H     H_    0.374486 0.420962 0.621075 0.134317
H59   H     H_    0.395617 0.495865 0.603316 0.133813
H60   H     H_    0.439340 0.428950 0.593056 0.194790
H61   H     H_    0.814852 0.839616 0.945303 0.157819
H62   H     H_    0.895412 0.831857 0.932093 0.156172
H63   H     H_    0.859467 0.905498 0.934177 0.198732
H64   H     H_    0.151165 0.833999 0.916432 0.157111
H65   H     H_    0.105349 0.899273 0.900919 0.144364
H66   H     H_    0.074955 0.846669 0.931721 0.190133
H67   H     H_    0.184681 0.160120 0.943340 0.157509
H68   H     H_    0.690829 0.055961 0.886776 0.178137
H69   H     H_    0.103991 0.167582 0.931050 0.155995
H70   H     H_    0.140133 0.094039 0.932870 0.198600
H71   H     H_    0.850574 0.168014 0.917939 0.157246
H72   H     H_    0.897206 0.103441 0.901824 0.144876
H73   H     H_    0.926510 0.155471 0.932981 0.189754
H74   H     H_    0.815907 0.159291 0.057514 0.154972
H75   H     H_    0.896722 0.167132 0.069482 0.155829
H76   H     H_    0.860917 0.093417 0.067735 0.198684
H77   H     H_    0.147893 0.168618 0.082128 0.158238
H78   H     H_    0.102423 0.103660 0.098775 0.144433
H79   H     H_    0.437681 0.138518 0.556125 0.205022
H80   H     H_    0.071929 0.154808 0.067533 0.190949
H81   H     H_    0.184800 0.840560 0.055269 0.155370
H82   H     H_    0.104173 0.832412 0.068267 0.155984
H83   H     H_    0.139745 0.906232 0.066221 0.198748
H84   H     H_    0.850820 0.832865 0.083187 0.158122
H85   H     H_    0.894946 0.898653 0.099551 0.143997
H86   H     H_    0.927035 0.847381 0.068559 0.191456
H87   H     H_    0.864923 0.525153 0.438344 0.134798
H88   H     H_    0.573240 0.859228 0.552142 0.204150
H89   H     H_    0.805992 0.469431 0.617441 0.165225
H90   H     H_    0.141776 0.508958 0.434595 0.131881
H91   H     H_    0.429286 0.859305 0.446973 0.198692
H92   H     H_    0.859851 0.500075 0.565266 0.167683
H93   H     H_    0.559112 0.138416 0.442905 0.200180
H94   H     H_    0.135867 0.529093 0.561511 0.146477
H95   H     H_    0.892430 0.649849 0.035705 0.202811
H96   H     H_    0.364988 0.986283 0.936007 0.157640
H97   H     H_    0.107726 0.349896 0.034833 0.202853
H98   H     H_    0.636929 0.014793 0.936340 0.158520
H99   H     H_    0.890771 0.349877 0.966301 0.202474
H100  H     H_    0.349743 0.803920 0.416796 0.165373
H101  H     H_    0.364337 0.021823 0.062988 0.129048
H102  H     H_    0.108980 0.649739 0.965317 0.202774
H103  H     H_    0.633553 0.977761 0.063139 0.129589
H104  H     H_    0.344571 0.302220 0.581357 0.168429
H105  H     H_    0.714514 0.473504 0.377990 0.139661
H106  H     H_    0.675339 0.696529 0.566786 0.161344
H107  H     H_    0.298532 0.435205 0.384231 0.140584
H108  H     H_    0.325990 0.697213 0.432117 0.162215
H109  H     H_    0.701462 0.428822 0.614942 0.142559
H110  H     H_    0.653727 0.301432 0.417646 0.167934
H111  H     H_    0.183686 0.517758 0.616949 0.162031
H112  H     H_    0.285278 0.474327 0.621943 0.139093
H113  H     H_    0.787923 0.804634 0.006588 0.156974
H114  H     H_    0.208593 0.909603 0.890424 0.136210
H115  H     H_    0.212102 0.195275 0.004393 0.156467
H116  H     H_    0.794520 0.092498 0.891314 0.136103
H117  H     H_    0.787617 0.194662 0.996731 0.155217
H118  H     H_    0.205405 0.094435 0.108767 0.135334
H119  H     H_    0.212345 0.805241 0.994230 0.155873
H120  H     H_    0.791319 0.906382 0.109323 0.135569
H121  H     H_    0.427633 0.170521 0.412982 0.188422
H122  H     H_    0.652710 0.803508 0.581995 0.164571
H123  H     H_    0.406840 0.092069 0.418475 0.187566
H124  H     H_    0.403448 0.127413 0.376277 0.155445
H125  H     H_    0.911745 0.621616 0.425064 0.192281
H126  H     H_    0.892935 0.601090 0.381292 0.120939
H127  H     H_    0.920621 0.676184 0.391185 0.175125
H128  H     H_    0.564602 0.826173 0.416034 0.191667
H129  H     H_    0.588866 0.903902 0.419894 0.185138
H130  H     H_    0.592229 0.865467 0.378514 0.155236
H131  H     H_    0.086708 0.330964 0.405863 0.180979
H132  H     H_    0.096764 0.407734 0.420382 0.178403
H133  H     H_    0.816975 0.514529 0.382938 0.153488
H134  H     H_    0.108733 0.388512 0.375405 0.127991
H135  H     H_    0.419191 0.898349 0.579379 0.184316
H136  H     H_    0.417539 0.861204 0.621218 0.157595
H137  H     H_    0.447539 0.822159 0.584171 0.193412
H138  H     H_    0.926699 0.659947 0.579772 0.184283
H139  H     H_    0.998775 0.636678 0.597446 0.152484
H140  H     H_    0.937593 0.665400 0.625136 0.142783
H141  H     H_    0.560495 0.174861 0.587738 0.190415
H142  H     H_    0.585379 0.097928 0.580829 0.187112
H143  H     H_    0.587725 0.131423 0.623609 0.157655
H144  H     H_    0.372409 0.196307 0.595420 0.169626
H145  H     H_    0.076111 0.342014 0.577458 0.183478
H146  H     H_    0.004999 0.362813 0.597814 0.150348
H147  H     H_    0.069211 0.335046 0.623065 0.140115
H148  H     H_    0.984191 0.624538 0.922890 0.159997
H149  H     H_    0.992606 0.655023 0.879519 0.154287
H150  H     H_    0.042515 0.679841 0.913084 0.187070
H151  H     H_    0.449259 0.827782 0.919179 0.182955
H152  H     H_    0.518314 0.864352 0.904505 0.155200
H153  H     H_    0.466457 0.828653 0.874186 0.137889
H154  H     H_    0.958387 0.320087 0.913712 0.186732
H155  H     H_    0.195508 0.479553 0.382033 0.157260
H156  H     H_    0.016705 0.375363 0.923072 0.159440
H157  H     H_    0.009107 0.344111 0.879895 0.153718
H158  H     H_    0.552002 0.173470 0.915817 0.182761
H159  H     H_    0.482606 0.134318 0.904663 0.158782
H160  H     H_    0.531343 0.167439 0.871532 0.137650
H161  H     H_    0.969436 0.378608 0.076469 0.164142
H162  H     H_    0.975300 0.343866 0.118858 0.155809
H163  H     H_    0.022613 0.317678 0.083947 0.187390
H164  H     H_    0.394581 0.922472 0.079903 0.161115
H165  H     H_    0.380317 0.898855 0.124053 0.131220
H166  H     H_    0.205701 0.703415 0.967458 0.166307
H167  H     H_    0.395526 0.843326 0.091189 0.183633
H168  H     H_    0.029476 0.621274 0.076519 0.164446
H169  H     H_    0.022988 0.655526 0.119071 0.156193
H170  H     H_    0.976277 0.682193 0.084450 0.187558
H171  H     H_    0.603774 0.156911 0.091634 0.183575
H172  H     H_    0.604832 0.078404 0.079003 0.163484
H173  H     H_    0.619512 0.099746 0.123355 0.130921
H174  H     H_    0.541567 0.134656 0.332622 0.242939
H175  H     H_    0.464257 0.136407 0.327624 0.238020
H176  H     H_    0.023264 0.641581 0.330508 0.255484
N1    N     N_R   0.532339 0.955236 0.267417 -0.216291
N2    N     N_R   0.518116 0.048041 0.766650 -0.214239
N3    N     N_R   0.996712 0.552645 0.767419 -0.217773
N4    N     N_R   0.487069 0.946178 0.766870 -0.213343
N5    N     N_R   0.022669 0.547521 0.231364 -0.221910
N6    N     N_R   0.532448 0.955440 0.233154 -0.215912
N7    N     N_R   0.974354 0.452182 0.231711 -0.222097
N8    N     N_R   0.467447 0.040426 0.233538 -0.216267
N9    N     N_3   0.503828 0.110509 0.323139 -0.548283
N10   N     N_3   0.988726 0.612001 0.322124 -0.545264
N11   N     N_3   0.495909 0.885448 0.324229 -0.547663
N12   N     N_R   0.023102 0.547411 0.265607 -0.208402
N13   N     N_3   0.009576 0.387804 0.322005 -0.544251
N14   N     N_3   0.516397 0.885516 0.674781 -0.544622
N15   N     N_3   0.915036 0.571555 0.678110 -0.556980
N16   N     N_3   0.485796 0.109655 0.676356 -0.545685
N17   N     N_3   0.088909 0.428152 0.676428 -0.559370
N18   N     N_3   0.069670 0.589791 0.823312 -0.552525
N19   N     N_3   0.421591 0.918312 0.823720 -0.551047
N20   N     N_3   0.934335 0.409192 0.823431 -0.552249
N21   N     N_3   0.582978 0.076793 0.823086 -0.551261
N22   N     N_3   0.053036 0.401326 0.176322 -0.555793
N23   N     N_R   0.467207 0.040079 0.267779 -0.216894
N24   N     N_3   0.480325 0.888186 0.177682 -0.549384
N25   N     N_3   0.943827 0.598049 0.176588 -0.556060
N26   N     N_3   0.520330 0.109073 0.178390 -0.550072
N27   N     N_R   0.974355 0.452402 0.265964 -0.209407
N28   N     N_R   0.518234 0.047851 0.732449 -0.211455
N29   N     N_R   0.008146 0.446640 0.732989 -0.221325
N30   N     N_R   0.486420 0.946244 0.732645 -0.210106
N31   N     N_R   0.996720 0.552732 0.733149 -0.221384
N32   N     N_R   0.008097 0.446552 0.767267 -0.218231
O1    O     O_R   0.552090 0.090090 0.500110 -0.597131
O2    O     O_R   0.409910 0.052090 0.000110 -0.588117
O3    O     O_R   0.947910 0.409910 0.000110 -0.595619
O4    O     O_R   0.590090 0.947910 0.000110 -0.587870
O5    O     O_R   0.052090 0.409910 0.999890 -0.593975
O6    O     O_R   0.409910 0.947910 0.999890 -0.582234
O7    O     O_R   0.947910 0.590090 0.999890 -0.593882
O8    O     O_R   0.590090 0.052090 0.999890 -0.582304
O9    O     O_R   0.552090 0.999930 0.450180 -0.600904
O10   O     O_R   0.000070 0.552090 0.450180 -0.545663
O11   O     O_R   0.447910 0.000070 0.450180 -0.597517
O12   O     O_R   0.909910 0.552090 0.500110 -0.591626
O13   O     O_R   0.999930 0.447910 0.450180 -0.541742
O14   O     O_R   0.552090 0.000070 0.549820 -0.596631
O15   O     O_R   0.000070 0.447910 0.549820 -0.576333
O16   O     O_R   0.447910 0.999930 0.549820 -0.600019
O17   O     O_R   0.999930 0.552090 0.549820 -0.581086
O18   O     O_R   0.052090 0.499930 0.950180 -0.568847
O19   O     O_R   0.500070 0.052090 0.950180 -0.570158
O20   O     O_R   0.947910 0.500070 0.950180 -0.568256
O21   O     O_R   0.499930 0.947910 0.950180 -0.570202
O22   O     O_R   0.052090 0.500070 0.049820 -0.574516
O23   O     O_R   0.447910 0.909910 0.500110 -0.597236
O24   O     O_R   0.500070 0.947910 0.049820 -0.540872
O25   O     O_R   0.947910 0.499930 0.049820 -0.574945
O26   O     O_R   0.499930 0.052090 0.049820 -0.541517
O27   O     O_R   0.590060 0.499930 0.529020 -0.532280
O28   O     O_R   0.500070 0.590060 0.529020 -0.585479
O29   O     O_R   0.409940 0.500070 0.529020 -0.579907
O30   O     O_R   0.499930 0.409940 0.529020 -0.575654
O31   O     O_R   0.590060 0.500070 0.470980 -0.579655
O32   O     O_R   0.500070 0.409940 0.470980 -0.574974
O33   O     O_R   0.409940 0.499930 0.470980 -0.532111
O34   O     O_R   0.090090 0.447910 0.500110 -0.581052
O35   O     O_R   0.499930 0.590060 0.470980 -0.584098
O36   O     O_R   0.090060 0.999930 0.029020 -0.566295
O37   O     O_R   0.000070 0.090060 0.029020 -0.578488
O38   O     O_R   0.909940 0.000070 0.029020 -0.564059
O39   O     O_R   0.999930 0.909940 0.029020 -0.579388
O40   O     O_R   0.090060 0.000070 0.970980 -0.565499
O41   O     O_R   0.000070 0.909940 0.970980 -0.580346
O42   O     O_R   0.909940 0.999930 0.970980 -0.567432
O43   O     O_R   0.999930 0.090060 0.970980 -0.579701
O44   O     O_3   0.491902 0.109451 0.395012 -0.602055
O45   O     O_R   0.552090 0.909910 0.499890 -0.596642
O46   O     O_3   0.988218 0.610668 0.393702 -0.547246
O47   O     O_3   0.504031 0.888748 0.396393 -0.596619
O48   O     O_3   0.016667 0.389619 0.393268 -0.549052
O49   O     O_3   0.504454 0.888669 0.603214 -0.597941
O50   O     O_3   0.922195 0.578230 0.605574 -0.584453
O51   O     O_3   0.500023 0.109466 0.605024 -0.602967
O52   O     O_3   0.080644 0.423068 0.603873 -0.573983
O53   O     O_3   0.060753 0.593187 0.895376 -0.569661
O54   O     O_3   0.434324 0.910261 0.895515 -0.584051
O55   O     O_3   0.940835 0.406447 0.895528 -0.569085
O56   O     O_R   0.909910 0.447910 0.499890 -0.581593
O57   O     O_3   0.566407 0.088699 0.894581 -0.583662
O58   O     O_3   0.048688 0.400539 0.103935 -0.573357
O59   O     O_3   0.471798 0.891569 0.106163 -0.549056
O60   O     O_3   0.949748 0.599127 0.104189 -0.573737
O61   O     O_3   0.527788 0.107648 0.106669 -0.549383
O62   O     O_3   0.374851 0.352967 0.520242 -0.557609
O63   O     O_3   0.643808 0.433046 0.430731 -0.542539
O64   O     O_3   0.620318 0.633005 0.519263 -0.591944
O65   O     O_3   0.362273 0.411801 0.442153 -0.560858
O66   O     O_3   0.379829 0.633451 0.479954 -0.591820
O67   O     O_R   0.447910 0.090090 0.499890 -0.596553
O68   O     O_3   0.636539 0.410187 0.556898 -0.560447
O69   O     O_3   0.624944 0.352292 0.479023 -0.557794
O70   O     O_3   0.355575 0.432879 0.569126 -0.541905
O71   O     O_3   0.880009 0.868118 0.981172 -0.586712
O72   O     O_3   0.139184 0.906414 0.950867 -0.561004
O73   O     O_3   0.119911 0.131723 0.980019 -0.587199
O74   O     O_3   0.862244 0.094789 0.951756 -0.561661
O75   O     O_3   0.880340 0.131298 0.020540 -0.586211
O76   O     O_3   0.136721 0.094668 0.048718 -0.562000
O77   O     O_3   0.119807 0.868581 0.019191 -0.585763
O78   O     O_R   0.090090 0.552090 0.499890 -0.593066
O79   O     O_3   0.862068 0.906388 0.049426 -0.561433
O80   O     O_R   0.052090 0.590090 0.000110 -0.595495

loop_
_geom_bond_atom_site_label_1
_geom_bond_atom_site_label_2
_ccdc_geom_bond_type
C123  H36   S    
C72   H88   S    
C52   C222  S    
C77   C186  A    
C132  H63   S    
C8    C26   A    
C133  H66   S    
C7    C60   S    
C30   C45   A    
C116  H152  S    
N4    N30   A    
Cu4   O40   S    
C220  O38   A    
C15   C32   A    
Cu12  O28   S    
C16   O52   S    
C126  H42   S    
C64   N32   A    
Cu10  O3    S    
C20   O57   S    
C144  O63   S    
C21   C59   A    
C134  H69   S    
C22   C60   A    
C122  H173  S    
C70   C87   A    
C118  H159  S    
C167  C185  A    
C82   C99   A    
C74   C92   A    
C11   O48   S    
C190  C212  A    
C19   C37   A    
C76   C94   A    
C9    O46   S    
C188  C210  A    
C18   C58   A    
C163  C198  A    
C219  O43   A    
H31   N25   S    
Cu5   O78   S    
C21   O58   S    
C25   C60   A    
C127  H44   S    
C5    O21   A    
C85   C103  A    
C174  C191  A    
Cu1   O45   S    
H8    N14   S    
C115  O53   S    
C69   N23   A    
C31   N15   S    
C70   H79   S    
C113  C155  A    
C138  H78   S    
C139  H83   S    
C140  H84   S    
C7    O26   A    
C102  H2    S    
C27   N10   S    
C165  C183  A    
C15   C54   A    
C166  C184  A    
C169  C187  A    
C120  H167  S    
Cu10  O25   S    
N29   N32   A    
C117  H156  S    
C1    O67   A    
C161  C196  A    
C100  C124  A    
C115  H150  S    
C67   N12   A    
C108  O48   S    
C141  H119  S    
H6    N13   S    
C69   N1    A    
Cu3   Cu4   S    
C112  O56   A    
Cu4   O42   S    
C177  C204  A    
C90   C153  A    
H25   N21   S    
C169  C200  A    
C123  H34   S    
C214  H104  S    
Cu2   O32   S    
C83   C100  A    
C29   C44   A    
C33   C47   A    
C34   C48   A    
C17   C34   A    
C105  H124  S    
C74   H91   S    
C75   C93   A    
C125  H39   S    
C108  H134  S    
C30   N14   S    
C177  C195  A    
C28   N11   S    
C192  O5    A    
Cu11  O6    S    
Cu3   O39   S    
C128  H49   S    
Cu9   O19   S    
C98   H35   S    
C53   C223  S    
C33   N17   S    
C71   H87   S    
Cu1   Cu6   S    
C23   C41   A    
C186  C208  A    
Cu1   O14   S    
C77   H94   S    
C139  O77   S    
C79   C96   A    
C68   C151  A    
C165  C198  A    
H19   N19   S    
C107  H129  S    
C41   N25   S    
C112  O12   A    
C90   H114  S    
C182  C208  A    
Cu7   O34   S    
Cu10  O20   S    
N5    N12   A    
C71   C88   A    
C216  O29   A    
C123  O62   S    
H33   N26   S    
C110  H140  S    
C14   O50   S    
H30   N25   S    
C106  H126  S    
N2    N28   A    
C143  C161  A    
C111  O51   S    
C108  H132  S    
C191  C211  A    
C139  H81   S    
C19   C56   A    
C95   H111  S    
Cu8   O5    S    
C142  H120  S    
C135  C157  A    
C168  C199  A    
C80   C97   A    
C156  O75   S    
C84   C102  A    
C35   H108  S    
C13   C145  A    
C14   C31   A    
C109  H137  S    
Cu12  O30   S    
H5    N11   S    
C196  C217  S    
C121  H168  S    
C26   N9    S    
Cu2   O31   S    
C23   C59   A    
C132  H62   S    
C5    C58   S    
C200  C221  S    
C137  O75   S    
C12   O49   S    
H15   N17   S    
C146  O65   S    
C115  H149  S    
C86   C195  A    
Cu5   O10   S    
Cu2   Cu12  S    
C86   H103  S    
C102  C135  A    
H12   N16   S    
C66   N28   A    
C137  H74   S    
C147  C165  A    
C148  C207  S    
H22   N20   S    
C3    C55   S    
C27   C44   A    
C117  H157  S    
C187  C209  A    
C215  O35   A    
C130  H55   S    
C218  O36   A    
C109  O49   S    
C159  O34   A    
C106  O46   S    
C8    C52   A    
C147  O66   S    
C164  C199  A    
C220  O42   A    
C14   C55   A    
C22   C40   A    
C43   C69   S    
C154  O73   S    
C37   N20   S    
C114  H147  S    
C8    O44   S    
C101  H115  S    
Cu3   O37   S    
Cu5   O17   S    
C75   C184  A    
C103  C141  A    
C213  O31   A    
C160  C177  A    
C168  C186  A    
C109  H135  S    
C154  C172  A    
C129  H51   S    
C192  O3    A    
C91   H155  S    
C100  H13   S    
C221  O41   A    
C46   H109  S    
C145  C163  A    
C153  O72   S    
C146  C164  A    
C103  H166  S    
C181  C210  S    
C217  O32   A    
C224  O14   A    
Cu11  O21   S    
C143  O62   S    
C89   H122  S    
C119  H163  S    
C136  H72   S    
C94   H1    S    
C120  H164  S    
C110  H138  S    
C203  O4    A    
C80   C188  A    
C149  O68   S    
C172  C202  A    
C17   C56   A    
C10   O47   S    
H29   N24   S    
C119  O58   S    
C79   H113  S    
C57   C94   A    
C22   O59   S    
Cu7   O15   S    
C134  H67   S    
C128  H48   S    
C20   C58   A    
C121  H170  S    
C223  O10   A    
C133  H65   S    
C6    C59   S    
C105  H121  S    
C13   H106  S    
C92   H100  S    
C120  O59   S    
C40   C51   A    
C126  H43   S    
C19   O55   S    
H7    N13   S    
H23   N21   S    
Cu5   O12   S    
C17   O53   S    
C195  C212  A    
C137  H76   S    
C122  H171  S    
C73   C182  A    
C193  C210  A    
C101  C154  A    
C118  H160  S    
C133  H64   S    
C175  C193  A    
C131  H60   S    
C213  O27   A    
C65   N29   A    
Cu3   O38   S    
C46   C149  A    
C2    C144  A    
Cu6   O67   S    
C114  H145  S    
C72   C180  A    
C44   C67   S    
C78   C187  A    
H9    N14   S    
C4    C56   S    
C76   C185  A    
C123  H37   S    
C79   C152  A    
C136  H73   S    
C215  O28   A    
H21   N20   S    
C34   N18   S    
C140  H85   S    
H18   N18   S    
C3    O15   A    
C10   C52   A    
Cu1   O1    S    
C140  O79   S    
C38   C49   A    
C219  O37   A    
C181  O6    A    
C156  C174  A    
C80   H96   S    
C171  C188  A    
C204  C220  S    
C117  O55   S    
C83   C191  A    
C201  C218  S    
C224  O16   A    
C134  O73   S    
C119  H161  S    
C85   C194  A    
C48   C64   S    
C81   C98   A    
Cu1   O9    S    
C173  C190  A    
C174  C202  A    
C184  C206  A    
C78   H95   S    
C104  H24   S    
N3    N31   A    
C107  O47   S    
H16   N17   S    
C76   H93   S    
H4    N11   S    
C78   C96   A    
C163  C180  A    
Cu7   O13   S    
H174  N9    S    
C4    O18   A    
C6    O22   A    
C180  C207  A    
C90   C97   A    
H14   N16   S    
C144  C162  A    
C35   C92   A    
C86   C104  A    
C31   C47   A    
C75   H92   S    
C122  O61   S    
C152  O71   S    
C116  H151  S    
C25   O61   S    
C176  C200  A    
C198  C215  S    
C105  H123  S    
C68   H112  S    
C125  H38   S    
C121  O60   S    
C24   H107  S    
N7    N27   A    
C68   C95   A    
C157  O76   S    
C160  O79   S    
Cu3   O36   S    
H20   N19   S    
Cu9   O26   S    
C63   N2    A    
C118  H158  S    
C151  O70   S    
C65   N31   A    
H28   N24   S    
C145  O64   S    
C54   C224  S    
H176  N10   S    
C7    O24   A    
Cu6   O11   S    
C159  O78   A    
N8    N23   A    
H10   N15   S    
C36   N19   S    
C150  O69   S    
C170  O7    A    
C104  C142  A    
C50   C62   S    
C9    C53   A    
C106  H127  S    
C15   O51   S    
C41   C50   A    
C138  H77   S    
C197  C213  S    
C9    C27   A    
C148  O45   A    
C10   C28   A    
C23   O60   S    
C119  H162  S    
C84   H101  S    
C12   C30   A    
C40   N24   S    
C155  O74   S    
C133  O72   S    
H11   N15   S    
C25   C42   A    
C99   C113  A    
Cu9   O8    S    
C128  O66   S    
C113  H116  S    
Cu8   O22   S    
C172  C189  A    
C98   C101  A    
C28   C43   A    
C126  H41   S    
C124  H117  S    
C32   N16   S    
C166  C197  A    
C112  C206  S    
Cu5   Cu7   S    
C24   C146  A    
C111  H142  S    
C152  C169  A    
C127  H45   S    
C134  H70   S    
H175  N9    S    
C150  C167  A    
C218  O40   A    
Cu4   O41   S    
C4    O20   A    
C132  O71   S    
C116  O54   S    
Cu6   O23   S    
C164  C182  A    
C57   H110  S    
C136  O74   S    
C61   N6    A    
C3    O17   A    
Cu2   O33   S    
C141  C158  A    
C125  O63   S    
C131  H58   S    
C81   H97   S    
C222  O11   A    
C130  H56   S    
C38   N21   S    
C83   H99   S    
C116  H153  S    
C176  C194  A    
C161  C178  A    
C18   C36   A    
N1    N6    A    
C12   C54   A    
C36   C49   A    
C125  H40   S    
Cu11  O4    S    
C49   C63   S    
Cu8   O18   S    
C5    O19   A    
C131  O70   S    
C167  C196  A    
C62   N7    A    
C51   C61   S    
C129  O68   S    
C203  O8    A    
C39   N22   S    
C159  C208  S    
C170  C209  S    
C162  C197  A    
C67   N27   A    
C173  C204  A    
H17   N18   S    
C63   N4    A    
C138  O76   S    
C66   N30   A    
C107  H130  S    
C111  H141  S    
C71   C179  A    
C151  C168  A    
C217  O30   A    
C178  C205  A    
C130  O69   S    
C114  O52   S    
C127  H47   S    
C62   N5    A    
Cu11  O24   S    
C96   H57   S    
C87   C214  A    
H32   N26   S    
C110  H139  S    
C110  O50   S    
C2    C88   A    
C106  H125  S    
C1    C205  S    
C221  O39   A    
C11   C53   A    
C108  H131  S    
C42   C51   A    
C139  H82   S    
C73   H90   S    
C155  C173  A    
Cu7   O56   S    
C179  C206  A    
C129  H53   S    
C127  O65   S    
H26   N22   S    
C6    O25   A    
Cu12  O29   S    
C64   N3    A    
Cu8   Cu10  S    
C121  H169  S    
C26   C43   A    
C118  O57   S    
C132  H61   S    
C81   C189  A    
C199  C216  S    
C185  C205  A    
C82   H98   S    
C73   C91   A    
C189  C211  A    
C70   C178  A    
C74   C183  A    
C170  O80   A    
C29   N13   S    
Cu9   O2    S    
C77   C95   A    
Cu4   O43   S    
H27   N22   S    
C1    O1    A    
C202  C219  S    
C171  C201  A    
C192  C211  S    
Cu10  O7    S    
C137  H75   S    
C16   C33   A    
C223  O13   A    
C61   N8    A    
C20   C38   A    
C21   C39   A    
C84   C193  A    
C222  O9    A    
C183  C207  A    
C57   C150  A    
C153  C171  A    
C131  H59   S    
C32   C45   A    
C35   C147  A    
C42   N26   S    
C37   C48   A    
Cu9   Cu11  S    
C162  C179  A    
Cu2   O35   S    
C157  C175  A    
C143  C214  A    
C158  C176  A    
C135  H118  S    
C124  C156  A    
C114  H146  S    
C203  C212  S    
Cu12  O27   S    
C24   C91   A    
C45   C66   S    
C2    H105  S    
C126  O64   S    
C175  C201  A    
C88   H133  S    
C216  O33   A    
C109  H136  S    
C13   C89   A    
C140  H86   S    
C129  H52   S    
C149  C166  A    
C142  C160  A    
C138  H80   S    
C107  H128  S    
C85   H102  S    
C18   O54   S    
C16   C55   A    
C128  H50   S    
C120  H165  S    
C158  O77   S    
C97   H46   S    
C194  C209  A    
C72   C89   A    
C136  H71   S    
C87   H144  S    
C46   C93   A    
C117  H154  S    
C181  O2    A    
C99   H68   S    
C111  H143  S    
C105  O44   S    
C39   C50   A    
C11   C29   A    
C148  O23   A    
C130  H54   S    
H3    N10   S    
Cu6   O16   S    
C93   H89   S    
C47   C65   S    
C82   C190  A    
C115  H148  S    
Cu8   O80   S    
C122  H172  S    
