data_mof_unit_pretest_780.cif
_audit_creation_date              2013-03-05T15:45:35-0500
_audit_creation_method            fapswitch 2.2
_symmetry_space_group_name_H-M    P1
_symmetry_Int_Tables_number       1
_space_group_crystal_system       triclinic
_cell_length_a                    27.691926
_cell_length_b                    10.620684
_cell_length_c                    10.100201
_cell_angle_alpha                 89.358113
_cell_angle_beta                  90.292653
_cell_angle_gamma                 90.434113
_cell_volume                      2970.23264343

loop_
_atom_site_label
_atom_site_type_symbol
_atom_site_description
_atom_site_fract_x
_atom_site_fract_y
_atom_site_fract_z
_atom_type_partial_charge
O1    O     O_R   0.499990 0.319060 0.613040 -0.640935
O2    O     O_R   0.500010 0.319100 0.386900 -0.646687
C1    C     C_R   0.496778 0.262747 0.500864 0.938190
O3    O     O_R   0.428750 0.500000 0.613050 -0.641084
O4    O     O_R   0.428760 0.500040 0.386920 -0.586685
C2    C     C_R   0.406515 0.503061 0.499611 0.873344
Zn1   Zn    Zn3+2 0.499990 0.499970 0.650990 0.976908
Zn2   Zn    Zn3+2 0.500010 0.500030 0.349010 1.037693
O5    O     O_R   0.499990 0.680900 0.613100 -0.607102
O6    O     O_R   0.500010 0.680940 0.386960 -0.558137
O7    O     O_R   0.571240 0.499960 0.613080 -0.606345
O8    O     O_R   0.571250 0.500000 0.386950 -0.549793
C3    C     C_R   0.498532 0.737273 0.499020 0.891428
C4    C     C_R   0.593975 0.500229 0.500372 0.904581
C5    C     C_R   0.178995 0.422231 0.578703 0.510261
O9    O     O_2   0.205138 0.328445 0.633617 -0.588056
N1    N     N_R   0.202333 0.524487 0.525640 -0.324494
C6    C     C_R   0.177802 0.629542 0.486099 0.534300
C7    C     C_R   0.281793 0.619458 0.568379 -0.107303
C8    C     C_R   0.332046 0.620575 0.555904 0.121551
C9    C     C_R   0.326488 0.415957 0.446029 0.482219
C10   C     C_R   0.276330 0.423159 0.448835 -0.197393
C11   C     C_R   0.253907 0.522475 0.513714 0.180660
C12   C     C_R   0.102645 0.528838 0.549059 -0.115837
C13   C     C_R   0.128252 0.416906 0.579499 -0.070778
C14   C     C_R   0.102308 0.305079 0.610982 0.241479
C15   C     C_R   0.127986 0.639069 0.509521 -0.113518
C16   C     C_R   0.354377 0.514389 0.499437 -0.215941
H1    H     H_    0.254800 0.349108 0.404399 0.171040
C17   C     C_R   0.647004 0.502531 0.503142 -0.185986
C18   C     C_R   0.975262 0.421964 0.604013 0.061477
C19   C     C_R   0.975636 0.633746 0.503199 0.059986
C20   C     C_R   0.950173 0.526366 0.550218 0.071057
C21   C     C_R   0.948327 0.321968 0.661401 -0.226238
C22   C     C_R   0.898233 0.320568 0.655908 -0.136659
C23   C     C_R   0.873397 0.418841 0.593467 -0.030917
C24   C     C_R   0.899237 0.522367 0.540985 -0.060495
C25   C     C_R   0.874175 0.621113 0.477655 -0.026018
C26   C     C_R   0.823783 0.615502 0.470072 0.500347
N2    N     N_R   0.799419 0.514736 0.523193 -0.334180
C27   C     C_R   0.823057 0.416512 0.582596 0.551815
C28   C     C_R   0.724855 0.499934 0.394670 -0.256176
C29   C     C_R   0.674569 0.493611 0.386323 0.509614
C30   C     C_R   0.670554 0.514504 0.626038 -0.366770
C31   C     C_R   0.720718 0.520866 0.633926 0.274467
C32   C     C_R   0.747888 0.512416 0.517366 0.225060
O10   O     O_2   0.797830 0.316742 0.630184 -0.562280
C33   C     C_R   0.026237 0.419740 0.595675 0.018666
C34   C     C_R   0.051689 0.530019 0.555848 0.028589
C35   C     C_R   0.026344 0.641150 0.521548 -0.037675
C36   C     C_R   0.052264 0.308500 0.619578 -0.237636
H2    H     H_    0.746187 0.494865 0.305300 0.171094
H3    H     H_    0.879072 0.241472 0.700111 0.188926
H4    H     H_    0.965043 0.244506 0.713705 0.138506
H5    H     H_    0.034269 0.219431 0.636801 0.152313
O11   O     O_2   0.201623 0.722541 0.421405 -0.577843
C37   C     C_R   0.103017 0.754607 0.496217 0.185040
H6    H     H_    0.263892 0.694132 0.620505 0.162986
C38   C     C_R   0.949856 0.727026 0.432240 -0.181301
C39   C     C_R   0.899908 0.721732 0.421432 -0.155347
O12   O     O_2   0.799185 0.710546 0.411794 -0.561633
C40   C     C_R   0.052480 0.756170 0.509235 0.155321
H7    H     H_    0.967889 0.802480 0.379204 0.167329
H8    H     H_    0.650069 0.521463 0.716753 0.195837
H9    H     H_    0.881614 0.796273 0.367505 0.191120
C41   C     C_2   0.470503 0.932119 0.401277 0.273748
C42   C     C_2   0.496079 0.870304 0.495084 -0.390352
H10   H     H_    0.519053 0.917718 0.566587 0.135150
C43   C     C_2   0.477050 0.067947 0.394401 -0.185281
C44   C     C_2   0.484642 0.132311 0.505135 -0.417214
H11   H     H_    0.478119 0.113307 0.298229 0.161340
H12   H     H_    0.480090 0.089262 0.602480 0.145304
C45   C     C_2   0.500373 0.601227 0.926437 0.292635
N3    N     N_2   0.500520 0.501330 0.852150 0.080869
C46   C     C_2   0.516365 0.592857 0.072849 0.672844
N4    N     N_2   0.500540 0.501360 0.147810 0.049187
O13   O     O_3   0.348314 0.313739 0.388298 -0.614217
C47   C     C_3   0.351071 0.215815 0.483462 -0.339048
H13   H     H_    0.314468 0.181843 0.512507 0.190998
H14   H     H_    0.372019 0.245279 0.572449 0.162820
H15   H     H_    0.370327 0.135513 0.439543 0.193905
N5    N     N_2   0.128293 0.871876 0.485771 -0.291036
H16   H     H_    0.158923 0.883132 0.543005 0.252768
C48   C     C_3   0.129254 0.931852 0.356148 -0.721488
H17   H     H_    0.166147 0.927497 0.314075 0.274182
H18   H     H_    0.119226 0.032260 0.365765 0.218935
H19   H     H_    0.103504 0.886390 0.286231 0.229258
N6    N     N_2   0.743797 0.534368 0.759290 -0.286272
H20   H     H_    0.724907 0.493537 0.836622 0.233369
C49   C     C_3   0.758961 0.661645 0.788777 -0.751540
H21   H     H_    0.778207 0.662615 0.885477 0.243557
H22   H     H_    0.727036 0.724128 0.794674 0.237151
H23   H     H_    0.784014 0.698390 0.711908 0.259694
N7    N     N_2   0.028713 0.873627 0.527423 -0.313109
H24   H     H_    0.042919 0.949746 0.476572 0.253785
C50   C     C_3   0.017762 0.901894 0.663698 -0.761974
H25   H     H_    0.997196 0.991095 0.667837 0.227724
H26   H     H_    0.051705 0.912880 0.721714 0.241483
H27   H     H_    0.995278 0.825749 0.708590 0.253374
N8    N     N_2   0.440281 0.866723 0.308033 -0.259889
H28   H     H_    0.420654 0.792417 0.347289 0.230907
C51   C     C_3   0.414424 0.938440 0.208061 -0.796072
H29   H     H_    0.392234 0.873711 0.146849 0.242679
H30   H     H_    0.440223 0.988023 0.141371 0.234471
H31   H     H_    0.389971 0.006885 0.255073 0.239133
N9    N     N_2   0.480818 0.715847 0.877088 -0.322494
H32   H     H_    0.495548 0.794585 0.920920 0.214232
C52   C     C_3   0.428672 0.718470 0.879595 -0.736614
H33   H     H_    0.415803 0.807396 0.833110 0.236903
H34   H     H_    0.415645 0.713595 0.983427 0.236428
H35   H     H_    0.413274 0.637876 0.824135 0.273976
O14   O     O_3   0.533022 0.417184 0.900097 -0.586036
C53   C     C_3   0.517051 0.293725 0.875497 -0.084093
H36   H     H_    0.540916 0.250414 0.801329 0.168050
H37   H     H_    0.478084 0.286356 0.848257 0.153051
H38   H     H_    0.523019 0.235706 0.965502 0.093770
O15   O     O_3   0.544570 0.686170 0.129746 -0.619589
C54   C     C_3   0.587124 0.703216 0.055386 -0.313949
H39   H     H_    0.579623 0.751408 0.959367 0.132951
H40   H     H_    0.605892 0.612328 0.038796 0.197428
H41   H     H_    0.612218 0.764382 0.112077 0.217903
O16   O     O_3   0.459499 0.450641 0.096592 -0.586768
C55   C     C_3   0.454058 0.326375 0.142270 -0.084285
H42   H     H_    0.431667 0.322871 0.232570 0.227380
H43   H     H_    0.489209 0.278690 0.156553 0.128948
H44   H     H_    0.433810 0.272570 0.066340 0.111470
N10   N     N_2   0.124504 0.184615 0.620058 -0.298423
H45   H     H_    0.153102 0.168469 0.557847 0.262218
C56   C     C_3   0.129481 0.133200 0.752567 -0.708549
H46   H     H_    0.144370 0.036601 0.747741 0.224355
H47   H     H_    0.093762 0.127635 0.801929 0.222225
H48   H     H_    0.154341 0.192764 0.812108 0.270751
O17   O     O_3   0.652690 0.487563 0.263193 -0.589914
C57   C     C_3   0.653279 0.361656 0.220535 -0.291582
H49   H     H_    0.634595 0.297719 0.292251 0.159002
H50   H     H_    0.690816 0.329256 0.203284 0.158471
H51   H     H_    0.633470 0.355961 0.124991 0.196103
N11   N     N_2   0.359602 0.726699 0.601226 -0.303283
H52   H     H_    0.396512 0.719836 0.593801 0.230066
C58   C     C_3   0.342878 0.850180 0.560176 -0.795261
H53   H     H_    0.369431 0.922974 0.591803 0.226093
H54   H     H_    0.307935 0.872383 0.607294 0.254128
H55   H     H_    0.339134 0.855318 0.450657 0.255194

loop_
_geom_bond_atom_site_label_1
_geom_bond_atom_site_label_2
_geom_bond_distance
_ccdc_geom_bond_type
C12   C13   1.418792 A    
C10   H1    1.083285 S    
C22   H3    1.083438 S    
C45   N3    1.306363 D    
C7    C8    1.397865 A    
C46   O15   1.385241 S    
C12   C15   1.415077 A    
C57   H51   1.109598 S    
C45   N9    1.420296 S    
C55   H42   1.105601 S    
O13   C47   1.410456 S    
C30   H8    1.083618 S    
Zn1   O7    2.011780 S    
N1    C11   1.434222 S    
C23   C24   1.407423 A    
C58   H54   1.108642 S    
C56   H46   1.110253 S    
N3    O14   1.356948 S    
O4    C2    1.297797 A    
C51   H30   1.110264 S    
O7    C4    1.303642 A    
C47   H14   1.113775 S    
C55   H43   1.108696 S    
C41   C43   1.453501 S    
N9    H32   1.030997 S    
C8    N11   1.434296 S    
C5    O9    1.348470 S    
C50   H27   1.110988 S    
Zn2   N4    2.032179 S    
C52   H33   1.110352 S    
C51   H31   1.109473 S    
C29   O17   1.382504 S    
C21   C22   1.387985 A    
C28   C32   1.398023 A    
C41   N8    1.437918 S    
C43   H11   1.079859 S    
O5    C3    1.293127 A    
C54   H39   1.110888 S    
C51   H29   1.109815 S    
C33   C36   1.406529 A    
C2    C16   1.449706 S    
C22   C23   1.397073 A    
C50   H26   1.111195 S    
C18   C20   1.414808 A    
C6    O11   1.348238 S    
C53   H38   1.104932 S    
C41   C42   1.347804 D    
C38   C39   1.387654 A    
C9    C10   1.392108 A    
C45   C46   1.543312 S    
C17   C30   1.405794 A    
C23   C27   1.397838 A    
C43   C44   1.332269 D    
C4    C17   1.468628 S    
O3    Zn1   2.007725 S    
O14   C53   1.405003 S    
Zn1   N3    2.031947 S    
C10   C11   1.398982 A    
C7    H6    1.081620 S    
C26   O12   1.349962 S    
C42   H10   1.085579 S    
C37   C40   1.406553 A    
C31   N6    1.423619 S    
C58   H53   1.111282 S    
O3    C2    1.298156 A    
C15   C37   1.417781 A    
C26   N2    1.366854 A    
C47   H13   1.113002 S    
C55   H44   1.108899 S    
C57   H50   1.112606 S    
C8    C16   1.417089 A    
C13   C14   1.417318 A    
C31   C32   1.404488 A    
N5    H16   1.030985 S    
C20   C24   1.413471 A    
O1    C1    1.289437 A    
C54   H41   1.109137 S    
C7    C11   1.399448 A    
C46   N4    1.300018 D    
N10   C56   1.446125 S    
C24   C25   1.407885 A    
C49   H22   1.111661 S    
Zn2   O8    2.007728 S    
C50   H25   1.110366 S    
C1    C44   1.423260 S    
N8    C51   1.447775 S    
N1    C6    1.365504 A    
C27   O10   1.350050 S    
C18   C21   1.413812 A    
C48   H17   1.109966 S    
C58   H55   1.111252 S    
N7    C50   1.446193 S    
C19   C35   1.417147 A    
N11   C58   1.449610 S    
C25   C39   1.396874 A    
N2    C27   1.367128 A    
C9    C16   1.405860 A    
N6    C49   1.446186 S    
C39   H9    1.083363 S    
C21   H4    1.078767 S    
N5    C48   1.449806 S    
C18   C33   1.414913 A    
C40   N7    1.428958 S    
O17   C57   1.409737 S    
C35   C40   1.419752 A    
C17   C29   1.413002 A    
C28   C29   1.395810 A    
N2    C32   1.427937 S    
N10   H45   1.030024 S    
C30   C31   1.392187 A    
C49   H23   1.109513 S    
C53   H36   1.107661 S    
C3    C42   1.415123 S    
C12   C34   1.413223 A    
C5    N1    1.365369 A    
C33   C34   1.417825 A    
O1    Zn1   1.963455 S    
O2    Zn2   1.955130 S    
C6    C15   1.405405 A    
C48   H18   1.109440 S    
O6    C3    1.287122 A    
O4    Zn2   2.011777 S    
C57   H49   1.113998 S    
C48   H19   1.112463 S    
C38   H7    1.079614 S    
C52   H35   1.109511 S    
N4    O16   1.356597 S    
C19   C20   1.415080 A    
C56   H48   1.110614 S    
O2    C1    1.294591 A    
O8    C4    1.304252 A    
O15   C54   1.410059 S    
C47   H15   1.107379 S    
C49   H21   1.110370 S    
C25   C26   1.398034 A    
N9    C52   1.444862 S    
N8    H28   1.031543 S    
C52   H34   1.111307 S    
C36   H5    1.078662 S    
C14   N10   1.425408 S    
N7    H24   1.029593 S    
C54   H40   1.114501 S    
C5    C13   1.405925 A    
N11   H52   1.028433 S    
Zn1   O5    1.955129 S    
N6    H20   1.031938 S    
Zn2   O6    1.963454 S    
C34   C35   1.416546 A    
C9    O13   1.382601 S    
C37   N5    1.427180 S    
C44   H12   1.087172 S    
C19   C38   1.412234 A    
C56   H47   1.110843 S    
O16   C55   1.400520 S    
C14   C36   1.389752 A    
C28   H2    1.083354 S    
C53   H37   1.114629 S    
