data_mof_unit_pretest_80.cif
_audit_creation_date              2012-12-10T19:42:56-0500
_audit_creation_method            fapswitch 2.2
_symmetry_space_group_name_H-M    P1
_symmetry_Int_Tables_number       1
_space_group_crystal_system       triclinic
_cell_length_a                    10.809581
_cell_length_b                    13.062475
_cell_length_c                    11.695387
_cell_angle_alpha                 99.775438
_cell_angle_beta                  94.191974
_cell_angle_gamma                 90.966375
_cell_volume                      1622.33638691

loop_
_atom_site_label
_atom_site_type_symbol
_atom_type_description
_atom_site_fract_x
_atom_site_fract_y
_atom_site_fract_z
_atom_type_partial_charge
C1    C     C_R   0.495655 0.299388 0.479037 0.876805
C2    C     C_R   0.504880 0.700710 0.520858 0.841360
C3    C     C_R   0.871570 0.496545 0.500136 -0.033684
C4    C     C_R   0.128423 0.503602 0.499912 -0.036954
C5    C     C_R   0.944028 0.451415 0.582777 0.053983
C6    C     C_R   0.055955 0.548715 0.417251 0.054208
C7    C     C_R   0.505208 0.813808 0.531778 -0.075133
C8    C     C_R   0.496241 0.186513 0.468091 -0.029721
C9    C     C_R   0.548278 0.022310 0.356706 -0.145576
C10   C     C_R   0.454706 0.978260 0.644692 -0.187297
C11   C     C_R   0.534463 0.128288 0.365860 -0.184881
C12   C     C_R   0.466991 0.871893 0.634251 -0.125528
C13   C     C_R   0.465477 0.137205 0.561021 0.090513
C14   C     C_R   0.537956 0.864454 0.439934 0.087290
C15   C     C_R   0.480566 0.029445 0.552504 0.070200
C16   C     C_R   0.523146 0.971840 0.449582 0.142614
C17   C     C_R   0.383251 0.402128 0.019397 -0.351299
C18   C     C_R   0.617042 0.597544 0.980558 -0.347886
C19   C     C_R   0.393614 0.410747 0.141168 0.469634
C20   C     C_R   0.606308 0.589293 0.858848 0.465048
C21   C     C_R   0.551216 0.541789 0.157629 -0.017017
C22   C     C_R   0.449430 0.457576 0.842232 -0.005297
C23   C     C_R   0.262328 0.502054 0.500072 0.839173
C24   C     C_R   0.737670 0.497994 0.499935 0.828816
C25   C     C_R   0.542709 0.535119 0.034893 0.017789
C26   C     C_R   0.457725 0.464403 0.965003 0.010301
C27   C     C_R   0.227716 0.753241 0.289818 -0.134141
C28   C     C_R   0.772689 0.245918 0.709064 -0.125392
C29   C     C_R   0.168635 0.704545 0.369686 0.263643
C30   C     C_R   0.831911 0.295022 0.629599 0.257968
C31   C     C_R   0.111672 0.605316 0.333261 0.055252
C32   C     C_R   0.888256 0.394447 0.666426 0.054424
C33   C     C_R   0.110984 0.558053 0.216053 -0.143853
C34   C     C_R   0.888177 0.441529 0.783642 -0.145633
C35   C     C_R   0.170084 0.607301 0.136925 -0.126078
C36   C     C_R   0.828916 0.391879 0.862362 -0.127510
C37   C     C_R   0.229305 0.704365 0.173992 -0.150984
C38   C     C_R   0.770312 0.294602 0.824884 -0.144852
C39   C     C_R   0.927737 0.543821 0.417662 -0.196084
C40   C     C_R   0.072244 0.456365 0.582422 -0.193725
Cu1   Cu    Cu3+1 0.509250 0.507730 0.615930 1.006295
Cu2   Cu    Cu3+1 0.490750 0.492270 0.384070 0.990805
H1    H     H_    0.275714 0.742079 0.112754 0.151911
H2    H     H_    0.723799 0.256567 0.885809 0.148269
H3    H     H_    0.383743 0.403166 0.788398 0.148928
H4    H     H_    0.617720 0.595472 0.211294 0.126912
H5    H     H_    0.316949 0.346691 0.967654 0.170936
H6    H     H_    0.683382 0.652935 0.032321 0.175129
H7    H     H_    0.272284 0.829137 0.317461 0.163407
H8    H     H_    0.728683 0.169833 0.681128 0.161815
H9    H     H_    0.066749 0.482208 0.186586 0.167775
H10   H     H_    0.931929 0.517532 0.813416 0.168034
H11   H     H_    0.170772 0.569822 0.047025 0.146106
H12   H     H_    0.827627 0.429204 0.952269 0.146438
H13   H     H_    0.871707 0.579810 0.355512 0.143213
H14   H     H_    0.128247 0.420351 0.644566 0.147964
H15   H     H_    0.442667 0.834497 0.705782 0.188730
H16   H     H_    0.557711 0.165315 0.293734 0.193458
H17   H     H_    0.579553 0.980516 0.276425 0.187159
H18   H     H_    0.423148 0.019167 0.725136 0.152571
N1    N     N_R   0.523180 0.519350 0.790130 -0.200013
N2    N     N_R   0.476820 0.480650 0.209870 -0.198210
O1    O     O_R   0.506570 0.354460 0.582000 -0.567455
O2    O     O_R   0.493430 0.645540 0.418000 -0.608120
O3    O     O_R   0.490940 0.341410 0.386200 -0.558360
O4    O     O_R   0.509060 0.658590 0.613800 -0.546930
O5    O     O_R   0.327460 0.506540 0.597900 -0.594052
O6    O     O_R   0.672540 0.493460 0.402100 -0.596950
O7    O     O_R   0.311830 0.493480 0.402100 -0.547498
O8    O     O_R   0.688170 0.506520 0.597900 -0.548979
Br1   Br    Br    0.713572 0.680899 0.796947 -0.509430
Br2   Br    Br    0.286102 0.319368 0.203120 -0.509952
Br3   Br    Br    0.164170 0.776779 0.526340 -0.536581
Br4   Br    Br    0.837397 0.223096 0.472918 -0.532170
N3    N     N_3   0.588647 0.809298 0.337645 -0.608839
H19   H     H_    0.518595 0.763634 0.285885 0.238518
H20   H     H_    0.661081 0.763471 0.361972 0.234050
N4    N     N_3   0.417400 0.197025 0.662052 -0.591376
H21   H     H_    0.477388 0.192305 0.735145 0.214446
H22   H     H_    0.329679 0.166795 0.672864 0.231548

loop_
_geom_bond_atom_site_label_1
_geom_bond_atom_site_label_2
_ccdc_geom_bond_type
C8    C13   A    
C35   H11   S    
C1    C8    S    
Cu1   Cu2   S    
C23   O7    A    
C2    C7    S    
Cu1   N1    S    
C3    C24   S    
C24   O8    A    
Cu1   O5    S    
C17   C26   A    
C35   C37   A    
C9    C16   A    
C10   C15   A    
C30   Br4   S    
N4    H22   S    
C29   Br3   S    
C19   N2    A    
C15   C16   A    
C27   C29   A    
C23   O5    A    
C20   N1    A    
C17   C19   A    
C28   H8    S    
C7    C14   A    
C39   H13   S    
C4    C40   A    
C40   H14   S    
Cu2   O3    S    
C1    O3    A    
C31   C33   A    
C20   Br1   S    
C11   H16   S    
Cu2   N2    S    
C34   C36   A    
C5    C32   S    
C6    C31   S    
C3    C39   A    
Cu2   O6    S    
C19   Br2   S    
C18   C25   A    
C1    O1    A    
C2    O2    A    
C7    C12   A    
C4    C6    A    
C4    C23   S    
N4    H21   S    
C3    C5    A    
C25   C26   A    
Cu2   O7    S    
C9    H17   S    
C32   C34   A    
C37   H1    S    
C10   H18   S    
N3    H19   S    
C38   H2    S    
C9    C11   A    
C28   C38   A    
N3    H20   S    
C21   N2    A    
C10   C12   A    
C12   H15   S    
C13   C15   A    
C14   C16   A    
Cu1   O1    S    
Cu2   O2    S    
C21   H4    S    
C21   C25   A    
C13   N4    S    
C17   H5    S    
C2    O4    A    
C18   H6    S    
Cu1   O4    S    
C33   H9    S    
C34   H10   S    
C14   N3    S    
C28   C30   A    
C29   C31   A    
C22   N1    A    
C30   C32   A    
C27   C37   A    
C8    C11   A    
C36   C38   A    
C33   C35   A    
C18   C20   A    
C36   H12   S    
C24   O6    A    
C22   H3    S    
C22   C26   A    
C5    C40   A    
C6    C39   A    
C27   H7    S    
Cu1   O8    S    
