data_mof_unit_pretest_1920.cif
_audit_creation_date              2012-12-10T19:42:52-0500
_audit_creation_method            fapswitch 2.2
_symmetry_space_group_name_H-M    P1
_symmetry_Int_Tables_number       1
_space_group_crystal_system       triclinic
_cell_length_a                    30.720203
_cell_length_b                    30.479975
_cell_length_c                    22.045364
_cell_angle_alpha                 90.000155
_cell_angle_beta                  46.679987
_cell_angle_gamma                 89.999989
_cell_volume                      15017.8843469

loop_
_atom_site_label
_atom_site_type_symbol
_atom_type_description
_atom_site_fract_x
_atom_site_fract_y
_atom_site_fract_z
_atom_type_partial_charge
C1    C     C_R   0.190493 0.189796 0.499229 0.876754
C2    C     C_R   0.842318 0.155983 0.499101 -0.083801
C3    C     C_R   0.940121 0.939868 0.499603 0.888753
C4    C     C_R   0.059965 0.060180 0.500520 0.880728
C5    C     C_R   0.940034 0.060180 0.499480 0.880744
C6    C     C_R   0.559966 0.560180 0.500520 0.880741
C7    C     C_R   0.440035 0.560180 0.499480 0.880718
C8    C     C_R   0.169581 0.249851 0.661122 0.905793
C9    C     C_R   0.830418 0.249852 0.338877 0.906039
C10   C     C_R   0.669582 0.749852 0.661123 0.906045
C11   C     C_R   0.330418 0.749851 0.338877 0.905777
C12   C     C_R   0.520055 0.210985 0.956498 -0.184031
C13   C     C_R   0.657683 0.655983 0.500898 -0.083804
C14   C     C_R   0.476376 0.210987 0.043372 -0.184032
C15   C     C_R   0.024364 0.711030 0.956654 -0.184031
C16   C     C_R   0.980686 0.711026 0.043528 -0.184032
C17   C     C_R   0.543595 0.250782 0.913266 0.169006
C18   C     C_R   0.456371 0.250788 0.086733 0.169205
C19   C     C_R   0.043637 0.750790 0.913267 0.169246
C20   C     C_R   0.956413 0.750782 0.086734 0.168966
C21   C     C_R   0.523592 0.290592 0.956615 -0.182572
C22   C     C_R   0.479904 0.290594 0.043513 -0.182698
C23   C     C_R   0.019373 0.790554 0.956461 -0.182726
C24   C     C_R   0.342320 0.655983 0.499097 -0.083675
C25   C     C_R   0.975686 0.790551 0.043359 -0.182545
C26   C     C_1   0.588175 0.250729 0.824354 -0.072557
C27   C     C_1   0.411810 0.250730 0.175645 -0.072518
C28   C     C_1   0.088193 0.750731 0.824355 -0.072512
C29   C     C_1   0.911829 0.750729 0.175646 -0.072565
C30   C     C_1   0.374505 0.250535 0.250311 -0.181153
C31   C     C_1   0.625491 0.250536 0.749689 -0.181180
C32   C     C_1   0.874510 0.750536 0.250311 -0.181183
C33   C     C_1   0.125497 0.750535 0.749689 -0.181151
C34   C     C_R   0.188165 0.120191 0.446381 -0.213150
C35   C     C_R   0.811828 0.120203 0.553652 -0.213109
C36   C     C_R   0.688173 0.620205 0.446341 -0.213093
C37   C     C_R   0.311836 0.620188 0.553612 -0.213165
C38   C     C_R   0.156014 0.088036 0.446367 -0.221447
C39   C     C_R   0.843980 0.088047 0.553664 -0.221415
C40   C     C_R   0.656021 0.588049 0.446329 -0.221409
C41   C     C_R   0.809507 0.189796 0.500772 0.876946
C42   C     C_R   0.343987 0.588033 0.553626 -0.221491
C43   C     C_R   0.093550 0.091297 0.502734 -0.094481
C44   C     C_R   0.906447 0.091295 0.497268 -0.094615
C45   C     C_R   0.593553 0.591294 0.502733 -0.094627
C46   C     C_R   0.406451 0.591297 0.497266 -0.094464
C47   C     C_R   0.063676 0.123509 0.564338 0.146801
C48   C     C_R   0.936319 0.123494 0.435639 0.146987
C49   C     C_R   0.563682 0.623490 0.564368 0.146988
C50   C     C_R   0.436324 0.623512 0.435667 0.146798
C51   C     C_3   0.016347 0.154830 0.589263 -0.503500
C52   C     C_R   0.690493 0.689796 0.499228 0.876960
C53   C     C_3   0.983671 0.154808 0.410659 -0.503424
C54   C     C_3   0.516323 0.654803 0.589364 -0.503409
C55   C     C_3   0.483651 0.654833 0.410751 -0.503507
C56   C     C_3   0.051672 0.190645 0.587264 -0.471438
C57   C     C_3   0.948346 0.190625 0.412660 -0.471527
C58   C     C_3   0.551649 0.690620 0.587361 -0.471534
C59   C     C_3   0.448324 0.690648 0.412753 -0.471434
C60   C     C_R   0.016932 0.252382 0.044804 -0.184169
C61   C     C_R   0.983140 0.245211 0.955196 -0.183982
C62   C     C_R   0.516840 0.745027 0.044804 -0.183978
C63   C     C_R   0.309507 0.689796 0.500772 0.876736
C64   C     C_R   0.483082 0.752567 0.955197 -0.184176
C65   C     C_R   0.956508 0.248834 0.086736 0.169619
C66   C     C_R   0.043558 0.248828 0.913265 0.170107
C67   C     C_R   0.456439 0.748829 0.086735 0.170122
C68   C     C_R   0.543490 0.748835 0.913264 0.169608
C69   C     C_R   0.330423 0.250151 0.338890 0.902408
C70   C     C_R   0.669577 0.250151 0.661110 0.902563
C71   C     C_R   0.830422 0.750151 0.338890 0.902586
C72   C     C_R   0.169577 0.750151 0.661110 0.902372
C73   C     C_R   0.939537 0.245215 0.042086 -0.183490
C74   C     C_R   0.095501 0.155904 0.562804 0.108468
C75   C     C_R   0.060534 0.252382 0.957916 -0.183920
C76   C     C_R   0.439480 0.752567 0.042084 -0.183936
C77   C     C_R   0.560444 0.745032 0.957914 -0.183481
C78   C     C_1   0.911897 0.249094 0.175643 -0.073722
C79   C     C_1   0.088132 0.249096 0.824357 -0.073622
C80   C     C_1   0.411866 0.749096 0.175643 -0.073625
C81   C     C_1   0.588101 0.749095 0.824357 -0.073727
C82   C     C_1   0.125461 0.249407 0.749695 -0.184276
C83   C     C_1   0.874548 0.249403 0.250305 -0.184334
C84   C     C_1   0.625452 0.749404 0.749695 -0.184337
C85   C     C_R   0.904495 0.155890 0.437174 0.108786
C86   C     C_1   0.374538 0.749407 0.250305 -0.184281
C87   C     C_R   0.316672 0.379898 0.546311 0.132051
C88   C     C_R   0.683321 0.379911 0.453725 0.132116
C89   C     C_R   0.816675 0.879904 0.546295 0.132108
C90   C     C_R   0.183348 0.879861 0.453580 0.131995
C91   C     C_R   0.344020 0.342816 0.497119 -0.098510
C92   C     C_R   0.655978 0.342816 0.502882 -0.098546
C93   C     C_R   0.844021 0.842816 0.497118 -0.098532
C94   C     C_R   0.155983 0.842815 0.502880 -0.098401
C95   C     C_R   0.406178 0.337816 0.445584 -0.213110
C96   C     C_R   0.595505 0.655887 0.562832 0.108784
C97   C     C_R   0.593826 0.337805 0.554381 -0.212983
C98   C     C_R   0.906177 0.837811 0.445597 -0.212965
C99   C     C_R   0.093809 0.837853 0.554526 -0.213180
C100  C     C_R   0.438664 0.370300 0.445121 -0.218967
C101  C     C_R   0.561340 0.370289 0.554844 -0.218892
C102  C     C_R   0.938662 0.870296 0.445134 -0.218859
C103  C     C_R   0.061323 0.870337 0.554989 -0.218929
C104  C     C_R   0.408458 0.406840 0.498173 -0.097912
C105  C     C_R   0.591542 0.406840 0.501826 -0.097869
C106  C     C_R   0.908458 0.906840 0.498173 -0.097894
C107  C     C_R   0.404499 0.655907 0.437202 0.108468
C108  C     C_R   0.091543 0.906838 0.501828 -0.098011
C109  C     C_R   0.347394 0.410152 0.548100 0.131983
C110  C     C_R   0.652600 0.410164 0.451935 0.131956
C111  C     C_R   0.847397 0.910157 0.548085 0.131972
C112  C     C_R   0.152623 0.910112 0.451794 0.132035
C113  C     C_3   0.293721 0.437629 0.611891 -0.497786
C114  C     C_3   0.706266 0.437657 0.388189 -0.497692
C115  C     C_3   0.793726 0.937641 0.611857 -0.497665
C116  C     C_3   0.206318 0.937538 0.387861 -0.497596
C117  C     C_R   0.310055 0.310053 0.499675 0.881463
C118  C     C_R   0.157680 0.155983 0.500903 -0.083677
C119  C     C_R   0.689944 0.310053 0.500326 0.881636
C120  C     C_R   0.810056 0.810053 0.499674 0.881650
C121  C     C_R   0.189946 0.810052 0.500323 0.881443
C122  C     C_3   0.258227 0.402569 0.610546 -0.482907
C123  C     C_3   0.741759 0.402597 0.389535 -0.482842
C124  C     C_3   0.758233 0.902581 0.610512 -0.482874
C125  C     C_3   0.241813 0.902478 0.389204 -0.483086
C126  C     C_R   0.559879 0.439868 0.500397 0.888742
C127  C     C_R   0.440121 0.439868 0.499603 0.888732
C128  C     C_R   0.059878 0.939866 0.500397 0.888735
H1    H     H_    0.458263 0.180098 0.076657 0.139338
H2    H     H_    0.570670 0.309325 0.594232 0.161543
H3    H     H_    0.929334 0.809337 0.405731 0.161535
H4    H     H_    0.070639 0.809411 0.594488 0.161446
H5    H     H_    0.486543 0.366565 0.405060 0.159183
H6    H     H_    0.513466 0.366545 0.594877 0.159155
H7    H     H_    0.986540 0.866557 0.405085 0.159167
H8    H     H_    0.013432 0.866631 0.595135 0.159232
H9    H     H_    0.282628 0.438869 0.671614 0.211768
H10   H     H_    0.717381 0.438912 0.328450 0.211914
H11   H     H_    0.782624 0.938887 0.671588 0.211908
H12   H     H_    0.535430 0.180095 0.923113 0.139526
H13   H     H_    0.217343 0.938730 0.328184 0.211765
H14   H     H_    0.295822 0.469913 0.586508 0.198370
H15   H     H_    0.704140 0.469935 0.413610 0.198351
H16   H     H_    0.795837 0.969923 0.586460 0.198346
H17   H     H_    0.204299 0.969842 0.413119 0.198348
H18   H     H_    0.226944 0.383377 0.669314 0.200107
H19   H     H_    0.773065 0.383420 0.330752 0.200350
H20   H     H_    0.726941 0.883395 0.669286 0.200352
H21   H     H_    0.273027 0.883240 0.330485 0.200101
H22   H     H_    0.239403 0.414661 0.584973 0.212821
H23   H     H_    0.965877 0.680168 0.076933 0.139569
H24   H     H_    0.760557 0.414684 0.415147 0.212725
H25   H     H_    0.739419 0.914672 0.584924 0.212726
H26   H     H_    0.260719 0.914591 0.414652 0.212835
H27   H     H_    0.541714 0.321475 0.923315 0.141736
H28   H     H_    0.464527 0.321478 0.076914 0.141601
H29   H     H_    0.034182 0.821406 0.923041 0.141569
H30   H     H_    0.956996 0.821402 0.076639 0.141761
H31   H     H_    0.236575 0.118422 0.401293 0.154758
H32   H     H_    0.763417 0.118444 0.598761 0.154798
H33   H     H_    0.736584 0.618448 0.401227 0.154808
H34   H     H_    0.043043 0.680173 0.923388 0.139300
H35   H     H_    0.263426 0.618417 0.598694 0.154757
H36   H     H_    0.179698 0.061552 0.401392 0.156022
H37   H     H_    0.820294 0.061573 0.598661 0.156102
H38   H     H_    0.679707 0.561576 0.401328 0.156116
H39   H     H_    0.320303 0.561547 0.598596 0.156022
H40   H     H_    0.014916 0.158692 0.540511 0.191743
H41   H     H_    0.985126 0.158681 0.459386 0.191696
H42   H     H_    0.514859 0.658677 0.540646 0.191696
H43   H     H_    0.485079 0.658692 0.459506 0.191744
H44   H     H_    0.972460 0.147996 0.652977 0.210176
H45   H     H_    0.030223 0.255205 0.079206 0.139435
H46   H     H_    0.027545 0.147960 0.346940 0.210316
H47   H     H_    0.472453 0.647951 0.653086 0.210312
H48   H     H_    0.527539 0.648001 0.347037 0.210178
H49   H     H_    0.070839 0.215280 0.537201 0.217345
H50   H     H_    0.929202 0.215271 0.462699 0.217277
H51   H     H_    0.570785 0.715268 0.537327 0.217276
H52   H     H_    0.429152 0.715280 0.462823 0.217345
H53   H     H_    0.028138 0.204528 0.649821 0.201168
H54   H     H_    0.971868 0.204495 0.350098 0.201372
H55   H     H_    0.528131 0.704487 0.649922 0.201377
H56   H     H_    0.969843 0.242471 0.920791 0.139131
H57   H     H_    0.471860 0.704535 0.350199 0.201166
H58   H     H_    0.107287 0.255210 0.925630 0.140071
H59   H     H_    0.892775 0.242480 0.074373 0.140611
H60   H     H_    0.607193 0.742154 0.925626 0.140624
H61   H     H_    0.392740 0.755538 0.074371 0.140052
H62   H     H_    0.530125 0.742145 0.079207 0.139125
H63   H     H_    0.469804 0.755533 0.920795 0.139443
H64   H     H_    0.429337 0.309345 0.405706 0.161511
O1    O     O_R   0.178350 0.230070 0.500010 -0.624329
O2    O     O_R   0.919740 0.045800 0.568860 -0.625813
O3    O     O_R   0.580260 0.545800 0.431140 -0.625806
O4    O     O_R   0.419740 0.545800 0.568860 -0.625825
O5    O     O_R   0.011410 0.045760 0.568860 -0.618964
O6    O     O_R   0.988590 0.045760 0.431140 -0.618900
O7    O     O_R   0.511410 0.545760 0.568860 -0.618908
O8    O     O_R   0.488590 0.545760 0.431140 -0.618964
O9    O     O_R   0.230030 0.178320 0.500020 -0.621869
O10   O     O_R   0.769970 0.178320 0.499980 -0.621877
O11   O     O_R   0.730030 0.678320 0.500020 -0.621879
O12   O     O_R   0.821650 0.230070 0.499990 -0.624343
O13   O     O_R   0.269970 0.678320 0.499980 -0.621868
O14   O     O_R   0.285150 0.275890 0.378020 -0.614740
O15   O     O_R   0.714850 0.275890 0.621980 -0.614827
O16   O     O_R   0.785150 0.775890 0.378020 -0.614845
O17   O     O_R   0.214850 0.775890 0.621980 -0.614720
O18   O     O_R   0.336840 0.224130 0.378040 -0.619909
O19   O     O_R   0.663160 0.224130 0.621960 -0.619997
O20   O     O_R   0.836840 0.724130 0.378040 -0.620016
O21   O     O_R   0.163160 0.724130 0.621960 -0.619891
O22   O     O_R   0.269970 0.321680 0.499990 -0.621510
O23   O     O_R   0.678350 0.730070 0.500010 -0.624342
O24   O     O_R   0.730030 0.321680 0.500010 -0.621532
O25   O     O_R   0.769970 0.821680 0.499990 -0.621528
O26   O     O_R   0.230030 0.821680 0.500010 -0.621502
O27   O     O_R   0.321650 0.269930 0.500010 -0.623596
O28   O     O_R   0.678350 0.269930 0.499990 -0.623610
O29   O     O_R   0.821650 0.769930 0.500010 -0.623608
O30   O     O_R   0.178350 0.769930 0.499990 -0.623578
O31   O     O_R   0.163160 0.275870 0.621980 -0.618899
O32   O     O_R   0.836840 0.275870 0.378020 -0.619082
O33   O     O_R   0.663160 0.775870 0.621980 -0.619086
O34   O     O_R   0.321650 0.730070 0.499990 -0.624330
O35   O     O_R   0.336840 0.775870 0.378020 -0.618893
O36   O     O_R   0.214850 0.224110 0.621990 -0.612939
O37   O     O_R   0.785150 0.224110 0.378010 -0.613118
O38   O     O_R   0.714850 0.724110 0.621990 -0.613122
O39   O     O_R   0.285150 0.724110 0.378010 -0.612939
O40   O     O_R   0.580260 0.454160 0.431100 -0.625877
O41   O     O_R   0.419740 0.454160 0.568900 -0.625920
O42   O     O_R   0.080260 0.954160 0.431100 -0.625921
O43   O     O_R   0.919740 0.954160 0.568900 -0.625883
O44   O     O_R   0.511410 0.454120 0.568820 -0.622700
O45   O     O_R   0.488590 0.454120 0.431180 -0.622733
O46   O     O_R   0.011410 0.954120 0.568820 -0.622756
O47   O     O_R   0.988590 0.954120 0.431180 -0.622695
O48   O     O_R   0.080260 0.045800 0.431140 -0.625821
Zn1   Zn    Zn3+2 0.215490 0.284560 0.500000 0.953132
Zn2   Zn    Zn3+2 0.954010 0.000000 0.591950 0.951137
Zn3   Zn    Zn3+2 0.545990 0.500000 0.408050 0.951176
Zn4   Zn    Zn3+2 0.454010 0.500000 0.591950 0.951192
Zn5   Zn    Zn3+2 0.784510 0.284560 0.500000 0.952852
Zn6   Zn    Zn3+2 0.715490 0.784560 0.500000 0.952837
Zn7   Zn    Zn3+2 0.284510 0.784560 0.500000 0.953163
Zn8   Zn    Zn3+2 0.284510 0.215440 0.500020 0.959534
Zn9   Zn    Zn3+2 0.715490 0.215440 0.499980 0.959260
Zn10  Zn    Zn3+2 0.784510 0.715440 0.500020 0.959243
Zn11  Zn    Zn3+2 0.215490 0.715440 0.499980 0.959561
Zn12  Zn    Zn3+2 0.045990 0.000000 0.408050 0.951207

loop_
_geom_bond_atom_site_label_1
_geom_bond_atom_site_label_2
_ccdc_geom_bond_type
C2    C35   A    
C34   C118  A    
C59   H57   S    
C99   C103  A    
C105  C110  A    
C120  O29   A    
C70   O19   A    
C6    C45   S    
C55   C59   S    
C81   C84   T    
O24   Zn5   S    
O40   Zn3   S    
C121  O26   A    
C54   H42   S    
C15   H34   S    
C126  O40   A    
C90   C112  A    
C1    O9    A    
C30   C69   S    
C8    O36   A    
O34   Zn7   S    
C62   H62   S    
C22   H28   S    
C101  H6    S    
C125  H26   S    
C15   C19   A    
C66   C79   S    
C124  H20   S    
C69   O14   A    
C105  C126  S    
O4    Zn4   S    
O22   Zn1   S    
C8    C82   S    
C17   C26   S    
C122  H22   S    
C59   H52   S    
C92   C119  S    
C97   H2    S    
C29   C32   T    
C87   C91   A    
C104  C109  A    
C56   H53   S    
C115  H16   S    
C2    C41   S    
C128  O46   A    
C49   C54   S    
C13   C52   S    
O15   Zn5   S    
C10   O38   A    
C65   C73   A    
C113  H14   S    
C2    C85   A    
C9    O37   A    
C51   C56   S    
C42   C46   A    
C7    O8    A    
C58   C96   S    
C102  H7    S    
C57   H54   S    
C80   C86   T    
C76   H61   S    
C62   C77   A    
C33   C72   S    
C3    O43   A    
C35   H32   S    
C61   C66   A    
C31   C70   S    
C113  C122  S    
C88   C92   A    
C120  O25   A    
C98   H3    S    
C92   C97   A    
C10   O33   A    
C66   C75   A    
C121  O30   A    
C91   C117  S    
O21   Zn11  S    
C58   H51   S    
C115  C124  S    
C93   C120  S    
O18   Zn8   S    
C63   O34   A    
C126  O44   A    
C110  C114  S    
C40   H38   S    
O12   Zn5   S    
C53   H41   S    
C56   H49   S    
O26   Zn7   S    
C88   C110  A    
O30   Zn11  S    
C38   H36   S    
C72   O21   A    
O39   Zn11  S    
C119  O24   A    
O9    Zn8   S    
C18   C22   A    
O28   Zn9   S    
C27   C30   T    
C128  O42   A    
C60   H45   S    
C67   C76   A    
C51   H40   S    
C40   C45   A    
C88   C123  S    
C78   C83   T    
C55   H43   S    
C6    O3    A    
C73   H59   S    
C53   H46   S    
C90   C94   A    
C32   C71   S    
O16   Zn6   S    
C20   C29   S    
C3    C106  S    
C21   H27   S    
C48   C53   S    
C74   C118  A    
O5    Zn2   S    
C127  O41   A    
C101  C105  A    
C56   C74   S    
C15   C16   A    
O45   Zn3   S    
C13   C96   A    
C7    C46   S    
C36   C40   A    
O25   Zn6   S    
C13   C36   A    
O42   Zn12  S    
C53   C57   S    
C95   C100  A    
C47   C51   S    
C100  C104  A    
C70   O15   A    
C98   C102  A    
C5    O6    A    
C91   C95   A    
C52   O23   A    
C59   C107  S    
C108  C112  A    
C58   H55   S    
C54   H47   S    
C39   H37   S    
C19   C23   A    
C103  H8    S    
O43   Zn2   S    
O33   Zn6   S    
O13   Zn11  S    
C79   C82   T    
O11   Zn10  S    
O32   Zn5   S    
O41   Zn4   S    
C72   O17   A    
C45   C49   A    
C16   C20   A    
C97   C101  A    
O10   Zn9   S    
C37   C42   A    
C12   H12   S    
C24   C37   A    
C64   C76   A    
C24   C107  A    
C108  C128  S    
C41   O12   A    
C19   C28   S    
O8    Zn3   S    
C103  C108  A    
C8    O31   A    
C125  H21   S    
C95   H64   S    
C9    C83   S    
O36   Zn8   S    
C114  C123  S    
C62   C67   A    
C114  H10   S    
C71   O16   A    
C89   C124  S    
C5    C44   S    
C115  H11   S    
C28   C33   T    
O48   Zn12  S    
C24   C63   S    
C116  C125  S    
C63   O13   A    
C119  O28   A    
C113  H9    S    
O14   Zn1   S    
C36   H33   S    
C68   C81   S    
O20   Zn10  S    
C106  C111  A    
C64   C68   A    
C112  C116  S    
C64   H63   S    
C100  H5    S    
C54   C58   S    
C68   C77   A    
C116  H17   S    
C123  H24   S    
C4    O5    A    
C61   H56   S    
C11   O39   A    
C65   C78   S    
O2    Zn2   S    
C51   H44   S    
O47   Zn12  S    
C34   C38   A    
C117  O27   A    
O1    Zn1   S    
C14   C18   A    
C48   C85   A    
C67   C80   S    
C47   C74   A    
C123  H19   S    
C99   H4    S    
C60   C65   A    
C87   C122  S    
O17   Zn7   S    
O27   Zn8   S    
C127  O45   A    
C39   C44   A    
C87   C109  A    
C4    C43   S    
C109  C113  S    
O7    Zn4   S    
C4    O48   A    
C46   C50   A    
C60   C75   A    
C50   C55   S    
C89   C111  A    
C37   H35   S    
C18   C27   S    
C52   O11   A    
C61   C73   A    
C114  H15   S    
O44   Zn4   S    
C124  H25   S    
C12   C14   A    
C38   C43   A    
O38   Zn10  S    
C6    O7    A    
C34   H31   S    
C12   C17   A    
C9    O32   A    
C57   H50   S    
C104  C127  S    
O3    Zn3   S    
C94   C99   A    
O31   Zn1   S    
C35   C39   A    
C23   H29   S    
C10   C84   S    
C90   C125  S    
C57   C85   S    
C102  C106  A    
C16   H23   S    
C1    C118  S    
C122  H18   S    
C49   C96   A    
C89   C93   A    
C117  O22   A    
C17   C21   A    
C55   H48   S    
C50   C107  A    
C41   O10   A    
O35   Zn7   S    
C116  H13   S    
C75   H58   S    
C94   C121  S    
O6    Zn12  S    
C42   H39   S    
C26   C31   T    
C23   C25   A    
O29   Zn10  S    
O19   Zn9   S    
O23   Zn6   S    
C11   O35   A    
C71   O20   A    
C20   C25   A    
C25   H30   S    
C77   H60   S    
C1    O1    A    
C111  C115  S    
C69   O18   A    
C11   C86   S    
C7    O4    A    
C21   C22   A    
O46   Zn2   S    
C43   C47   A    
C93   C98   A    
O37   Zn9   S    
C44   C48   A    
C3    O47   A    
C5    O2    A    
C14   H1    S    
