data_mof_unit_pretest_1375.cif
_audit_creation_date              2012-12-11T16:20:29-0500
_audit_creation_method            fapswitch 2.2
_symmetry_space_group_name_H-M    P1
_symmetry_Int_Tables_number       1
_space_group_crystal_system       triclinic
_cell_length_a                    6.968112
_cell_length_b                    34.430098
_cell_length_c                    38.091544
_cell_angle_alpha                 99.493832
_cell_angle_beta                  89.942967
_cell_angle_gamma                 90.238603
_cell_volume                      9013.40083858

loop_
_atom_site_label
_atom_site_type_symbol
_atom_type_description
_atom_site_fract_x
_atom_site_fract_y
_atom_site_fract_z
_atom_type_partial_charge
O1    O     O_R   0.494320 0.461440 0.460990 -0.530540
O2    O     O_R   0.821450 0.462560 0.532500 -0.542796
O3    O     O_R   0.994330 0.538560 0.539010 -0.526817
C1    C     C_R   0.652449 0.452725 0.542769 0.736419
O4    O     O_R   0.823870 0.456770 0.460860 -0.550663
O5    O     O_R   0.996760 0.532730 0.466860 -0.543420
C2    C     C_R   0.653845 0.445784 0.448458 0.704325
O6    O     O_R   0.491880 0.467270 0.533140 -0.537034
O7    O     O_3   0.661650 0.524930 0.502050 -0.365998
V1    V     V_3+5 0.935500 0.495380 0.499620 1.405932
O8    O     O_R   0.326630 0.537440 0.467500 -0.536845
C3    C     C_R   0.158654 0.545968 0.456201 0.706286
O9    O     O_R   0.324210 0.543230 0.539140 -0.539651
C4    C     C_R   0.155667 0.553830 0.552083 0.711469
V2    V     V_3+5 0.435810 0.504620 0.500380 1.426608
O10   O     O_3   0.159790 0.475070 0.497950 -0.369541
C5    C     C_R   0.898630 0.821015 0.798402 0.625732
N1    N     N_R   0.039921 0.824930 0.823846 -0.559947
C6    C     C_R   0.197969 0.801119 0.819998 0.593869
C7    C     C_R   0.219934 0.772150 0.789579 0.022181
C8    C     C_R   0.080072 0.768592 0.762447 -0.048212
C9    C     C_R   0.917087 0.793430 0.766404 -0.100704
C10   C     C_R   0.380150 0.747069 0.785494 -0.107871
C11   C     C_R   0.401031 0.718519 0.755131 -0.160559
C12   C     C_R   0.263264 0.714519 0.727872 0.002333
C13   C     C_R   0.103982 0.739988 0.731304 -0.001750
C14   C     C_R   0.968252 0.736645 0.703696 -0.084822
C15   C     C_R   0.808695 0.761595 0.707424 -0.160141
C16   C     C_R   0.781381 0.789605 0.738084 0.298430
C17   C     C_R   0.278576 0.685106 0.697486 0.577140
N2    N     N_R   0.144751 0.682159 0.670852 -0.547676
C18   C     C_R   0.993681 0.707847 0.673109 0.584102
O11   O     O_2   0.741670 0.843779 0.804351 -0.507439
O12   O     O_2   0.334462 0.805659 0.845464 -0.520688
H1    H     H_    0.490335 0.749414 0.805780 0.157431
H2    H     H_    0.526167 0.699754 0.753030 0.142079
O13   O     O_2   0.423477 0.659099 0.694940 -0.555494
O14   O     O_2   0.865362 0.704823 0.646280 -0.521069
H3    H     H_    0.702644 0.759313 0.686395 0.198172
C19   C     C_R   0.242542 0.653280 0.609694 -0.083484
H4    H     H_    0.312738 0.680744 0.606997 0.146860
C20   C     C_R   0.246757 0.621740 0.581247 -0.218054
H5    H     H_    0.322084 0.625411 0.557109 0.134019
C21   C     C_R   0.148936 0.586337 0.583194 -0.096721
C22   C     C_R   0.051235 0.582565 0.615133 -0.077291
C23   C     C_R   0.065205 0.613020 0.645129 -0.021990
C24   C     C_R   0.151534 0.649308 0.641726 0.335776
C25   C     C_R   0.959729 0.847807 0.887160 -0.087958
H6    H     H_    0.915493 0.818150 0.889459 0.128369
C26   C     C_R   0.948777 0.877610 0.917014 -0.213273
H7    H     H_    0.896331 0.870371 0.941938 0.122583
C27   C     C_R   0.007841 0.916247 0.915062 -0.092181
C28   C     C_R   0.075020 0.924952 0.882111 -0.077266
C29   C     C_R   0.082976 0.894833 0.851815 -0.014908
C30   C     C_R   0.026997 0.856035 0.854447 0.335050
C31   C     C_R   0.923921 0.857558 0.176749 0.601441
O15   O     O_2   0.782142 0.884302 0.178236 -0.547420
N3    N     N_R   0.056362 0.854547 0.149976 -0.551375
C32   C     C_R   0.201711 0.827546 0.147508 0.539727
C33   C     C_R   0.962212 0.865496 0.090194 -0.087941
C34   C     C_R   0.942739 0.889795 0.064362 -0.197617
C35   C     C_R   0.085222 0.943861 0.104751 -0.233667
C36   C     C_R   0.101118 0.920033 0.131236 0.041374
C37   C     C_R   0.041942 0.880162 0.123637 0.348465
C38   C     C_R   0.080583 0.804492 0.200500 -0.067516
C39   C     C_R   0.934727 0.833077 0.202721 -0.036024
C40   C     C_R   0.796701 0.835208 0.229766 -0.141799
C41   C     C_R   0.213915 0.800588 0.171942 -0.072937
C42   C     C_R   0.006711 0.928927 0.071344 -0.046876
H8    H     H_    0.133021 0.974275 0.110261 0.114475
H9    H     H_    0.676412 0.855193 0.230786 0.160949
C43   C     C_R   0.152547 0.572889 0.429639 -0.051110
C44   C     C_R   0.990905 0.762651 0.284243 -0.025396
C45   C     C_R   0.205853 0.718426 0.244654 0.009000
C46   C     C_R   0.103133 0.727783 0.277187 0.021135
C47   C     C_R   0.915918 0.773865 0.319290 0.247659
C48   C     C_R   0.928652 0.748296 0.344143 -0.132056
C49   C     C_R   0.023541 0.712190 0.336128 -0.086258
C50   C     C_R   0.113424 0.702170 0.302831 -0.049214
C51   C     C_R   0.213812 0.666469 0.295242 -0.021896
C52   C     C_R   0.223550 0.641579 0.321022 0.567740
N4    N     N_R   0.132523 0.651328 0.353205 -0.551197
C53   C     C_R   0.034665 0.686206 0.361127 0.582307
C54   C     C_R   0.225502 0.635976 0.411902 -0.088420
C55   C     C_R   0.233355 0.610644 0.437105 -0.209003
C56   C     C_R   0.070771 0.560365 0.396130 -0.248906
C57   C     C_R   0.055564 0.585759 0.370733 0.022684
C58   C     C_R   0.135758 0.624287 0.378726 0.310508
O16   O     O_2   0.945155 0.695446 0.392810 -0.521378
C59   C     C_R   0.963355 0.784868 0.256161 0.050271
C60   C     C_R   0.088671 0.779083 0.226429 0.060268
C61   C     C_R   0.219983 0.747692 0.222262 0.014467
C62   C     C_R   0.809277 0.811098 0.255657 -0.122814
H10   H     H_    0.301558 0.620609 0.462556 0.126910
H11   H     H_    0.289896 0.664962 0.418186 0.152117
H12   H     H_    0.869124 0.757566 0.370462 0.202991
H13   H     H_    0.691533 0.811931 0.274167 0.176266
O17   O     O_2   0.336420 0.827924 0.122169 -0.528050
C63   C     C_R   0.356355 0.770760 0.169884 -0.007682
H14   H     H_    0.881387 0.877880 0.038705 0.118028
H15   H     H_    0.914084 0.835166 0.084331 0.131627
C64   C     C_R   0.287425 0.679995 0.235841 -0.012914
C65   C     C_R   0.295276 0.655345 0.261554 -0.189299
O18   O     O_2   0.322005 0.607653 0.313708 -0.564203
C66   C     C_R   0.362917 0.746786 0.196167 -0.205434
H16   H     H_    0.021163 0.530354 0.389715 0.122818
H17   H     H_    0.358229 0.626388 0.254453 0.154890
H18   H     H_    0.482257 0.726869 0.195734 0.141676
C67   C     C_R   0.720360 0.303387 0.632005 0.550335
O19   O     O_2   0.767199 0.289065 0.597986 -0.538697
N5    N     N_R   0.671885 0.342387 0.641547 -0.541756
C68   C     C_R   0.629713 0.357205 0.676431 0.579208
C69   C     C_R   0.485035 0.388674 0.610130 0.008649
C70   C     C_R   0.481844 0.415822 0.586091 -0.263653
C71   C     C_R   0.811732 0.399934 0.569943 -0.252453
C72   C     C_R   0.816180 0.373054 0.593534 -0.130454
C73   C     C_R   0.656704 0.367733 0.614648 0.341813
C74   C     C_R   0.647925 0.291803 0.691830 -0.056210
C75   C     C_R   0.719331 0.277950 0.657553 -0.041898
C76   C     C_R   0.782968 0.238918 0.649454 -0.138479
C77   C     C_R   0.599186 0.331715 0.701152 -0.037657
C78   C     C_R   0.646721 0.422365 0.566437 -0.034018
H19   H     H_    0.940503 0.403780 0.554977 0.137007
H20   H     H_    0.946856 0.357017 0.595965 0.153600
H21   H     H_    0.839137 0.227405 0.623298 0.166745
C79   C     C_R   0.510875 0.074968 0.931249 -0.042988
C80   C     C_R   0.688304 0.202555 0.736030 0.037633
C81   C     C_R   0.473593 0.250517 0.770785 -0.007804
C82   C     C_R   0.568378 0.213762 0.765998 0.078116
C83   C     C_R   0.791795 0.167176 0.733700 -0.216930
C84   C     C_R   0.774632 0.142694 0.759539 0.007854
C85   C     C_R   0.646550 0.152803 0.788755 -0.029129
C86   C     C_R   0.539120 0.187831 0.790954 -0.085680
C87   C     C_R   0.391317 0.195358 0.816482 -0.102187
C88   C     C_R   0.357057 0.167091 0.838629 0.607460
N6    N     N_R   0.499636 0.141513 0.844596 -0.535940
C89   C     C_R   0.622011 0.129679 0.816255 0.575290
C90   C     C_R   0.675680 0.102590 0.884934 -0.135050
C91   C     C_R   0.675397 0.078370 0.910985 -0.267612
C92   C     C_R   0.358635 0.100740 0.928583 -0.242069
C93   C     C_R   0.366923 0.128263 0.904966 0.019395
C94   C     C_R   0.510707 0.123878 0.877631 0.277901
O20   O     O_2   0.708981 0.094487 0.813204 -0.554172
C95   C     C_R   0.698918 0.227043 0.709298 0.037483
C96   C     C_R   0.624231 0.265741 0.716762 0.068972
C97   C     C_R   0.522435 0.278431 0.748712 0.055584
C98   C     C_R   0.777896 0.214199 0.675132 -0.182099
H22   H     H_    0.802734 0.061561 0.914588 0.148555
H23   H     H_    0.809084 0.105033 0.871074 0.183005
H24   H     H_    0.893467 0.158575 0.712438 0.121592
H25   H     H_    0.827921 0.184462 0.666961 0.124718
O21   O     O_2   0.614714 0.396430 0.687064 -0.545677
C99   C     C_R   0.517295 0.345079 0.734536 -0.146111
H26   H     H_    0.352796 0.432622 0.583610 0.129228
H27   H     H_    0.478864 0.375735 0.742413 0.162651
C100  C     C_R   0.326527 0.257464 0.796365 -0.204305
C101  C     C_R   0.278756 0.229667 0.817765 0.312598
O22   O     O_2   0.177083 0.161884 0.849679 -0.502249
C102  C     C_R   0.473552 0.318640 0.757486 -0.179206
H28   H     H_    0.239019 0.283599 0.798737 0.153626
H29   H     H_    0.241443 0.101836 0.947375 0.135423
H30   H     H_    0.407776 0.330501 0.782652 0.129944
C103  C     C_R   0.641174 0.163809 0.210306 0.551314
N7    N     N_R   0.605925 0.172914 0.177010 -0.542937
C104  C     C_R   0.604334 0.211676 0.172252 0.589277
C105  C     C_R   0.600880 0.242186 0.201679 -0.030701
C106  C     C_R   0.640680 0.233297 0.235574 -0.029854
C107  C     C_R   0.671109 0.193975 0.239756 -0.033548
C108  C     C_R   0.560325 0.281254 0.197979 -0.175921
C109  C     C_R   0.554900 0.310874 0.227873 -0.156525
C110  C     C_R   0.602780 0.302519 0.261710 -0.013871
C111  C     C_R   0.653545 0.263906 0.265205 -0.018468
C112  C     C_R   0.717223 0.255865 0.298206 -0.028045
C113  C     C_R   0.757139 0.216686 0.301838 -0.172003
C114  C     C_R   0.728735 0.185952 0.273220 -0.150895
C115  C     C_R   0.597460 0.331636 0.292328 0.543416
N8    N     N_R   0.666172 0.324034 0.324440 -0.538674
C116  C     C_R   0.737270 0.287291 0.326796 0.564475
O23   O     O_2   0.644990 0.125916 0.215188 -0.536314
O24   O     O_2   0.608016 0.220761 0.139149 -0.541022
H31   H     H_    0.526879 0.288788 0.172169 0.160131
H32   H     H_    0.517143 0.340444 0.224274 0.161114
O25   O     O_2   0.519641 0.366879 0.289939 -0.556402
O26   O     O_2   0.825173 0.280996 0.356808 -0.548788
H33   H     H_    0.804439 0.209537 0.327080 0.156743
H34   H     H_    0.755504 0.156029 0.277211 0.164920
C117  C     C_R   0.569531 0.347108 0.388192 0.000039
C118  C     C_R   0.570843 0.377146 0.418709 -0.099856
C119  C     C_R   0.641575 0.415257 0.416155 -0.114951
C120  C     C_R   0.687211 0.424290 0.382103 -0.054374
C121  C     C_R   0.720205 0.392834 0.354223 -0.164230
H35   H     H_    0.778245 0.399142 0.329376 0.153223
C122  C     C_R   0.657238 0.354387 0.356127 0.302372
C123  C     C_R   0.403942 0.143967 0.124329 -0.004193
C124  C     C_R   0.385820 0.116487 0.092149 -0.078146
C125  C     C_R   0.512729 0.084090 0.085024 -0.107728
C126  C     C_R   0.660804 0.080885 0.109302 -0.245663
H36   H     H_    0.759173 0.056277 0.104643 0.133525
C127  C     C_R   0.691727 0.110075 0.138773 -0.109822
H37   H     H_    0.816554 0.107951 0.155238 0.148183
C128  C     C_R   0.565802 0.141937 0.146831 0.323950
O27   O     O_R   0.662230 0.032770 0.966890 -0.541903
O28   O     O_R   0.330090 0.043230 0.039150 -0.534114
O29   O     O_R   0.157350 0.967260 0.033130 -0.534431
C129  C     C_R   0.499167 0.053597 0.052329 0.707310
O30   O     O_R   0.332650 0.037450 0.967510 -0.535583
O31   O     O_R   0.159930 0.961430 0.960980 -0.531672
C130  C     C_R   0.501761 0.046646 0.956705 0.711681
O32   O     O_R   0.659640 0.038600 0.039040 -0.541871
O33   O     O_3   0.492510 0.975090 0.997960 -0.363751
V3    V     V_3+5 0.218600 0.004620 0.000380 1.438225
O34   O     O_R   0.830050 0.956730 0.960830 -0.540321
C131  C     C_R   0.998564 0.946937 0.947404 0.712144
O35   O     O_R   0.827490 0.962520 0.032470 -0.537793
C132  C     C_R   0.996140 0.954318 0.043867 0.700884
V4    V     V_3+5 0.718310 0.995320 0.999580 1.416953
O36   O     O_3   0.994270 0.024900 0.002040 -0.367281
C133  C     C_R   0.125789 0.965605 0.877635 0.105711
C134  C     C_R   0.982746 0.990074 0.867477 -0.158748
C135  C     C_R   0.033297 0.024280 0.854334 -0.137471
C136  C     C_R   0.226239 0.034524 0.851667 -0.051253
C137  C     C_R   0.369206 0.010603 0.862302 -0.126388
C138  C     C_R   0.319497 0.976383 0.875523 -0.126922
H38   H     H_    0.833184 0.981434 0.867777 0.100027
H39   H     H_    0.923096 0.042069 0.845050 0.163157
H40   H     H_    0.264888 0.060631 0.840837 0.145640
H41   H     H_    0.518688 0.018029 0.859421 0.127701
H42   H     H_    0.431738 0.957178 0.882196 0.102420
C139  C     C_R   0.145323 0.904298 0.817034 0.077401
C140  C     C_R   0.340207 0.902731 0.807730 -0.072876
C141  C     C_R   0.400082 0.914559 0.776057 -0.043998
C142  C     C_R   0.265602 0.927450 0.753369 -0.090483
C143  C     C_R   0.071170 0.929011 0.762522 -0.110327
C144  C     C_R   0.011158 0.917722 0.794385 -0.075749
H43   H     H_    0.445417 0.893193 0.825359 0.164573
H44   H     H_    0.550663 0.913726 0.769052 0.140320
H45   H     H_    0.312216 0.936452 0.728804 0.114774
H46   H     H_    0.967263 0.939331 0.745111 0.112072
H47   H     H_    0.861005 0.919959 0.801715 0.125065
C145  C     C_R   0.174275 0.937663 0.166808 0.080385
C146  C     C_R   0.335309 0.921925 0.181512 -0.105611
C147  C     C_R   0.401745 0.938613 0.215293 -0.092420
C148  C     C_R   0.308908 0.971269 0.234507 -0.090780
C149  C     C_R   0.149694 0.987346 0.219945 -0.101987
C150  C     C_R   0.082639 0.970698 0.186205 -0.098131
H48   H     H_    0.410402 0.897066 0.166727 0.182951
H49   H     H_    0.525555 0.926329 0.226557 0.152130
H50   H     H_    0.360620 0.984173 0.260636 0.126206
H51   H     H_    0.077995 0.012676 0.234826 0.126544
H52   H     H_    0.958246 0.983295 0.175345 0.121338
Br1   Br    Br    0.835216 0.826435 0.339024 -0.504744
C151  C     C_R   0.493600 0.760702 0.139872 0.169663
C152  C     C_R   0.690911 0.758657 0.146812 -0.132794
C153  C     C_R   0.820040 0.746173 0.119262 -0.128577
C154  C     C_R   0.753508 0.735247 0.084461 -0.109998
C155  C     C_R   0.557061 0.736143 0.077323 -0.115279
C156  C     C_R   0.427213 0.748269 0.104940 -0.040163
H53   H     H_    0.743687 0.765759 0.173750 0.114542
H54   H     H_    0.971125 0.744394 0.125066 0.108193
H55   H     H_    0.853807 0.725544 0.063134 0.105458
H56   H     H_    0.505132 0.727048 0.050445 0.106096
H57   H     H_    0.275392 0.747973 0.099059 0.089171
C157  C     C_R   0.341436 0.662108 0.198999 0.093901
C158  C     C_R   0.210365 0.661694 0.170874 -0.116077
C159  C     C_R   0.265228 0.646906 0.135936 -0.127796
C160  C     C_R   0.450142 0.632060 0.128846 -0.083625
C161  C     C_R   0.580126 0.631680 0.156715 -0.112920
C162  C     C_R   0.526004 0.646426 0.191714 -0.160531
H58   H     H_    0.067128 0.673421 0.175968 0.107670
H59   H     H_    0.164659 0.647154 0.114338 0.105128
H60   H     H_    0.492680 0.620823 0.101753 0.102844
H61   H     H_    0.723347 0.620214 0.151172 0.109501
H62   H     H_    0.629241 0.646595 0.212987 0.109402
C163  C     C_R   0.958221 0.571182 0.336159 0.129016
C164  C     C_R   0.994703 0.532968 0.317799 -0.087608
C165  C     C_R   0.909598 0.519671 0.284777 -0.110095
C166  C     C_R   0.786964 0.544271 0.269648 -0.105305
C167  C     C_R   0.746662 0.581943 0.287822 -0.078735
C168  C     C_R   0.828431 0.595098 0.321171 -0.121777
H63   H     H_    0.089920 0.513424 0.328823 0.101484
H64   H     H_    0.939465 0.490310 0.270850 0.113318
H65   H     H_    0.722179 0.534057 0.243957 0.109843
H66   H     H_    0.651466 0.600946 0.276108 0.132980
H67   H     H_    0.789449 0.623874 0.335219 0.127878
C169  C     C_R   0.896179 0.107100 0.754800 0.147753
C170  C     C_R   0.819321 0.070204 0.740169 -0.074612
C171  C     C_R   0.933878 0.036522 0.736893 -0.105823
C172  C     C_R   0.125827 0.039601 0.747727 -0.092027
C173  C     C_R   0.204037 0.076398 0.761517 -0.140666
C174  C     C_R   0.089915 0.110104 0.764847 -0.080032
H68   H     H_    0.670499 0.067525 0.731919 0.096681
H69   H     H_    0.873747 0.008041 0.726043 0.104035
H70   H     H_    0.214245 0.013537 0.745269 0.111375
H71   H     H_    0.352884 0.078774 0.769639 0.125644
H72   H     H_    0.151558 0.138497 0.775302 0.125114
C175  C     C_R   0.316211 0.385001 0.633087 0.095142
C176  C     C_R   0.250189 0.418373 0.656147 -0.096286
C177  C     C_R   0.127471 0.414211 0.684333 -0.076814
C178  C     C_R   0.071882 0.376745 0.689973 -0.064373
C179  C     C_R   0.129736 0.343497 0.666284 -0.121790
C180  C     C_R   0.247999 0.347574 0.637477 -0.155428
H73   H     H_    0.301754 0.447469 0.653585 0.093310
H74   H     H_    0.080950 0.439980 0.702521 0.117069
H75   H     H_    0.983970 0.373477 0.712736 0.119814
H76   H     H_    0.087359 0.314473 0.670788 0.123647
H77   H     H_    0.297325 0.321411 0.620109 0.129980
Br2   Br    Br    0.556355 0.821595 0.737369 -0.528479
Br3   Br    Br    0.064702 0.242689 0.849393 -0.526186
C181  C     C_R   0.262398 0.165677 0.916741 0.144759
C182  C     C_R   0.066450 0.165357 0.925647 -0.076883
C183  C     C_R   0.971499 0.200494 0.938534 -0.096952
C184  C     C_R   0.071343 0.236223 0.942969 -0.043312
C185  C     C_R   0.266129 0.236895 0.934312 -0.073265
C186  C     C_R   0.361446 0.201840 0.921220 -0.129236
H78   H     H_    0.988424 0.137871 0.923128 0.098562
H79   H     H_    0.821187 0.199933 0.945556 0.094576
H80   H     H_    0.997808 0.263391 0.953114 0.108924
H81   H     H_    0.343334 0.264602 0.937736 0.119419
H82   H     H_    0.512562 0.202850 0.914825 0.110301
C187  C     C_R   0.469676 0.308866 0.389065 0.108899
C188  C     C_R   0.531589 0.283592 0.412246 -0.032262
C189  C     C_R   0.449787 0.246213 0.410610 -0.119565
C190  C     C_R   0.309059 0.233271 0.385265 -0.105349
C191  C     C_R   0.248462 0.257866 0.361794 -0.057698
C192  C     C_R   0.324867 0.295817 0.364140 -0.124061
H83   H     H_    0.649299 0.291969 0.430406 0.120350
H84   H     H_    0.499283 0.226870 0.428374 0.120516
H85   H     H_    0.248953 0.203973 0.383466 0.116525
H86   H     H_    0.144369 0.247238 0.341405 0.143753
H87   H     H_    0.276545 0.314470 0.345652 0.129284
C193  C     C_R   0.473599 0.370559 0.451875 0.078575
C194  C     C_R   0.277006 0.378644 0.456444 -0.059574
C195  C     C_R   0.183484 0.372097 0.487427 -0.101018
C196  C     C_R   0.284534 0.356701 0.513643 -0.104404
C197  C     C_R   0.480133 0.348487 0.509158 -0.098296
C198  C     C_R   0.575539 0.356151 0.478710 -0.179678
H88   H     H_    0.196783 0.390122 0.436087 0.107407
H89   H     H_    0.032735 0.378881 0.491040 0.096764
H90   H     H_    0.211675 0.351276 0.537487 0.112350
H91   H     H_    0.558152 0.336484 0.529435 0.148953
H92   H     H_    0.727172 0.349938 0.475604 0.107999
C199  C     C_R   0.647180 0.464193 0.372425 0.080685
C200  C     C_R   0.684584 0.499707 0.395597 -0.145630
C201  C     C_R   0.616709 0.535609 0.388306 -0.127025
C202  C     C_R   0.518773 0.537122 0.356828 -0.073372
C203  C     C_R   0.488489 0.502806 0.332476 -0.119499
C204  C     C_R   0.548679 0.466604 0.340411 -0.136181
H93   H     H_    0.769700 0.500586 0.419063 0.132046
H94   H     H_    0.643901 0.562475 0.406813 0.133408
H95   H     H_    0.469336 0.565044 0.351252 0.177792
H96   H     H_    0.415353 0.504115 0.307655 0.129427
H97   H     H_    0.512326 0.440435 0.321787 0.166520
C205  C     C_R   0.256734 0.175008 0.135152 0.095308
C206  C     C_R   0.175490 0.178889 0.169365 -0.154045
C207  C     C_R   0.074055 0.212787 0.183386 -0.123390
C208  C     C_R   0.044239 0.242264 0.162845 -0.057670
C209  C     C_R   0.114277 0.237706 0.128092 -0.089161
C210  C     C_R   0.221692 0.204481 0.114360 -0.038915
H98   H     H_    0.201517 0.156826 0.186029 0.129568
H99   H     H_    0.022240 0.216548 0.210473 0.120773
H100  H     H_    0.967418 0.268715 0.173894 0.118791
H101  H     H_    0.091878 0.260672 0.112270 0.108273
H102  H     H_    0.288667 0.203393 0.088639 0.126269
C211  C     C_R   0.248790 0.124044 0.064576 0.091879
C212  C     C_R   0.313740 0.141545 0.035993 -0.160044
C213  C     C_R   0.182797 0.152263 0.011672 -0.143039
C214  C     C_R   0.987467 0.144110 0.014809 -0.115207
C215  C     C_R   0.922938 0.125897 0.042811 -0.066927
C216  C     C_R   0.053269 0.116127 0.067816 -0.071951
H103  H     H_    0.464337 0.148379 0.033420 0.101923
H104  H     H_    0.233573 0.167261 0.990708 0.124860
H105  H     H_    0.885917 0.152150 0.995800 0.102417
H106  H     H_    0.771952 0.119897 0.045323 0.101606
H107  H     H_    0.003945 0.102780 0.089879 0.098622
C217  C     C_R   0.930976 0.547759 0.618184 0.106746
C218  C     C_R   0.014893 0.510842 0.618182 -0.143428
C219  C     C_R   0.905715 0.480308 0.628050 -0.115909
C220  C     C_R   0.714266 0.486422 0.638187 -0.091771
C221  C     C_R   0.627237 0.522450 0.636497 -0.142254
C222  C     C_R   0.734846 0.553043 0.626386 -0.086090
H108  H     H_    0.165561 0.506186 0.611965 0.079929
H109  H     H_    0.969108 0.451897 0.628110 0.131959
H110  H     H_    0.633396 0.463057 0.647076 0.152404
H111  H     H_    0.477973 0.526955 0.643788 0.102689
H112  H     H_    0.667893 0.581420 0.626530 0.128999
C223  C     C_R   0.005002 0.605582 0.680828 0.083210
C224  C     C_R   0.105327 0.578057 0.697138 -0.067006
C225  C     C_R   0.048753 0.570433 0.730555 -0.113955
C226  C     C_R   0.891945 0.590250 0.747912 -0.111154
C227  C     C_R   0.791632 0.617687 0.731847 -0.097664
C228  C     C_R   0.847969 0.625323 0.698400 -0.118987
H113  H     H_    0.227200 0.562573 0.683961 0.104056
H114  H     H_    0.126416 0.549160 0.742978 0.110414
H115  H     H_    0.848048 0.584317 0.773777 0.110429
H116  H     H_    0.669883 0.632876 0.745283 0.135769
H117  H     H_    0.769174 0.646274 0.685963 0.182885

loop_
_geom_bond_atom_site_label_1
_geom_bond_atom_site_label_2
_ccdc_geom_bond_type
C107  C114  A    
C150  H52   S    
C158  H58   S    
C9    C16   A    
C6    C7    A    
C8    C13   A    
C96   C97   A    
C185  H81   S    
C195  C196  A    
O28   C129  A    
O29   C132  A    
C209  C210  A    
N8    C122  S    
C170  H68   S    
C199  C204  A    
C31   O15   S    
C35   H8    S    
C163  C164  A    
C16   Br2   S    
C45   C61   A    
C139  C144  A    
C126  C127  A    
C216  H107  S    
C23   C24   A    
O8    V2    S    
C152  H53   S    
C223  C228  A    
C191  C192  A    
C23   C223  S    
C26   C27   A    
C176  H73   S    
C214  H105  S    
O1    V2    S    
C57   C163  S    
C29   C139  S    
C69   C175  S    
C25   C26   A    
C226  H115  S    
O1    C2    A    
C8    C9    A    
C117  C122  A    
C44   C46   A    
C228  H117  S    
C20   C21   A    
C123  C205  S    
C215  C216  A    
C79   C91   A    
C71   H19   S    
C51   C65   A    
C190  C191  A    
C157  C158  A    
C92   C93   A    
C84   C169  S    
C199  C200  A    
C125  C126  A    
C85   C89   A    
C22   C23   A    
C123  C128  A    
C159  H59   S    
C139  C140  A    
C161  H61   S    
C207  C208  A    
C181  C186  A    
C38   C41   A    
C1    C78   S    
C119  C120  A    
C47   C48   A    
C227  C228  A    
C82   C86   A    
C175  C176  A    
C226  C227  A    
C177  C178  A    
C224  C225  A    
C179  C180  A    
C59   C62   A    
C38   C60   A    
C201  H94   S    
N7    C104  A    
C49   C50   A    
C54   C58   A    
C95   C96   A    
C217  C218  A    
C173  H71   S    
C33   C37   A    
C164  H63   S    
C191  H86   S    
C219  H109  S    
V1    O10   S    
C212  C213  A    
C114  H34   S    
C221  H111  S    
C17   N2    A    
C153  H54   S    
C31   C39   A    
C83   C84   A    
O7    V2    S    
C121  H35   S    
C81   C100  A    
C197  C198  A    
C7    C8    A    
C221  C222  A    
C188  C189  A    
C65   H17   S    
C220  C221  A    
C46   C50   A    
C213  H104  S    
C70   H26   S    
C188  H83   S    
C151  C152  A    
C179  H76   S    
C166  H65   S    
C120  C121  A    
O2    C1    A    
N5    C68   A    
C81   C82   A    
C43   C55   A    
C59   C60   A    
C133  C138  A    
C217  C222  A    
C149  C150  A    
C208  H100  S    
C11   H2    S    
C180  H77   S    
C44   C59   A    
C160  H60   S    
C67   N5    A    
C152  C153  A    
O35   V4    S    
C109  C110  A    
C71   C72   A    
C211  C212  A    
C146  C147  A    
C202  H95   S    
C113  C114  A    
C134  H38   S    
C158  C159  A    
C83   H24   S    
C10   C11   A    
C143  C144  A    
C19   C20   A    
C39   C40   A    
C112  C113  A    
C166  C167  A    
C109  H32   S    
O31   V3    S    
O28   V3    S    
C56   H16   S    
C95   C98   A    
C196  H90   S    
C135  C136  A    
C173  C174  A    
C90   H23   S    
N3    C37   S    
C53   O16   S    
C91   H22   S    
C149  H51   S    
C163  C168  A    
C100  H28   S    
C194  C195  A    
C60   C61   A    
C196  C197  A    
C12   C13   A    
C124  C125  A    
C54   H11   S    
C211  C216  A    
C98   H25   S    
C80   C82   A    
C136  C137  A    
N2    C18   A    
C7    C10   A    
C35   C36   A    
C5    N1    A    
O34   C131  A    
C141  H44   S    
N1    C30   S    
C69   C73   A    
N8    C116  A    
C93   C181  S    
C167  H66   S    
C103  O23   S    
C142  H45   S    
C34   H14   S    
C62   H13   S    
C27   C28   A    
C186  H82   S    
C134  C135  A    
C29   C30   A    
C19   H4    S    
C74   C96   A    
C193  C198  A    
N6    C89   A    
C194  H88   S    
C161  C162  A    
C87   C88   A    
C110  C115  A    
C48   H12   S    
N5    C73   S    
C103  C107  A    
C68   C77   A    
C81   C97   A    
C112  C116  A    
N4    C58   S    
C145  C146  A    
C31   N3    A    
C123  C124  A    
C177  H74   S    
C64   C65   A    
N7    C128  S    
C36   C37   A    
C127  H37   S    
C165  C166  A    
C206  C207  A    
C40   C62   A    
C32   O17   S    
C64   C157  S    
C154  C155  A    
C25   C30   A    
C57   C58   A    
C115  O25   S    
C120  C199  S    
C118  C193  S    
C164  C165  A    
C200  C201  A    
C205  C206  A    
C88   N6    A    
C48   C49   A    
C218  C219  A    
C13   C14   A    
C77   C99   A    
C15   C16   A    
C113  H33   S    
O5    C3    A    
C197  H91   S    
O30   C130  A    
C148  C149  A    
C209  H101  S    
N1    C6    A    
C176  C177  A    
C220  H110  S    
C213  C214  A    
N6    C94   S    
C154  H55   S    
C49   C53   A    
C103  N7    A    
C79   C130  S    
C68   O21   S    
C99   H27   S    
C167  C168  A    
C1    O6    A    
C45   C64   A    
C189  C190  A    
C3    C43   S    
N2    C24   S    
C155  H56   S    
C5    O11   S    
C151  C156  A    
C182  H78   S    
C157  C162  A    
V3    O36   S    
C124  C211  S    
C156  H57   S    
C203  H96   S    
C54   C55   A    
C90   C94   A    
C36   C145  S    
O4    C2    A    
C218  H108  S    
C15   H3    S    
C225  H114  S    
C28   C29   A    
C136  H40   S    
C146  H48   S    
C17   O13   S    
C33   C34   A    
C143  H46   S    
C121  C122  A    
C169  C170  A    
C171  C172  A    
C147  C148  A    
C102  H30   S    
C140  H43   S    
C172  H70   S    
C108  H31   S    
O3    C4    A    
C25   H6    S    
O6    V2    S    
C10   H1    S    
C86   C87   A    
C44   C47   A    
C20   H5    S    
C84   C85   A    
C106  C107  A    
C21   C22   A    
C67   C75   A    
C4    C21   S    
C69   C70   A    
C12   C17   A    
C182  C183  A    
C72   H20   S    
C14   C18   A    
C56   C57   A    
C63   C151  S    
O5    V1    S    
C43   C56   A    
C75   C76   A    
C106  C111  A    
C5    C9    A    
C223  C224  A    
N3    C32   A    
C117  C118  A    
C67   O19   S    
C172  C173  A    
C138  H42   S    
C185  C186  A    
C170  C171  A    
C195  H89   S    
O33   V4    S    
O29   V3    S    
C142  C143  A    
C76   H21   S    
O7    V1    S    
C40   H9    S    
C80   C95   A    
C140  C141  A    
C41   C63   A    
C90   C91   A    
C61   C66   A    
C35   C42   A    
C76   C98   A    
N4    C53   A    
C127  C128  A    
C2    C119  S    
C47   Br1   S    
V2    O10   S    
C19   C24   A    
C110  C111  A    
C104  C105  A    
C108  C109  A    
C214  C215  A    
C42   C132  S    
C193  C194  A    
C52   N4    A    
C133  C134  A    
C181  C182  A    
C184  C185  A    
C79   C92   A    
C153  C154  A    
C100  C101  A    
C215  H106  S    
C165  H64   S    
C206  H98   S    
C148  H50   S    
O31   C131  A    
C72   C73   A    
C190  H85   S    
C125  C129  S    
C74   C75   A    
C208  C209  A    
C137  H41   S    
O9    C4    A    
C71   C78   A    
O30   V3    S    
O34   V4    S    
C85   C86   A    
C101  Br3   S    
C162  H62   S    
C135  H39   S    
V4    O36   S    
C18   O14   S    
C159  C160  A    
C205  C210  A    
C207  H99   S    
C204  H97   S    
C88   O22   S    
O27   C130  A    
C183  H79   S    
C117  C187  S    
C126  H36   S    
C26   H7    S    
C175  C180  A    
C63   C66   A    
C66   H18   S    
O32   V4    S    
C45   C46   A    
C174  H72   S    
C192  H87   S    
C11   C12   A    
C224  H113  S    
C178  C179  A    
O35   C132  A    
C225  C226  A    
C97   C102  A    
C183  C184  A    
C92   H29   S    
C187  C192  A    
C169  C174  A    
C118  C119  A    
C74   C77   A    
C99   C102  A    
C198  H92   S    
C32   C41   A    
C55   H10   S    
C189  H84   S    
C129  O32   A    
C155  C156  A    
C168  H67   S    
C210  H102  S    
C201  C202  A    
C219  C220  A    
C212  H103  S    
C115  N8    A    
C38   C39   A    
O9    V2    S    
C105  C106  A    
C33   H15   S    
O2    V1    S    
C141  C142  A    
C111  C112  A    
C178  H75   S    
C34   C42   A    
C28   C133  S    
C171  H69   S    
C51   C52   A    
C6    O12   S    
O8    C3    A    
C147  H49   S    
C187  C188  A    
C22   C217  S    
C80   C83   A    
O4    V1    S    
O3    V1    S    
C93   C94   A    
C203  C204  A    
C145  C150  A    
C27   C131  S    
C222  H112  S    
C144  H47   S    
C89   O20   S    
C137  C138  A    
C160  C161  A    
C50   C51   A    
C70   C78   A    
C87   C101  A    
C105  C108  A    
O33   V3    S    
C14   C15   A    
C227  H116  S    
C104  O24   S    
C184  H80   S    
O27   V4    S    
C202  C203  A    
C200  H93   S    
C116  O26   S    
C52   O18   S    
