data_mof_unit_pretest_262.cif
_audit_creation_date              2012-12-10T16:35:10-0500
_audit_creation_method            fapswitch 2.2
_symmetry_space_group_name_H-M    P1
_symmetry_Int_Tables_number       1
_space_group_crystal_system       triclinic
_cell_length_a                    10.895797
_cell_length_b                    10.886944
_cell_length_c                    10.884842
_cell_angle_alpha                 80.514697
_cell_angle_beta                  98.024798
_cell_angle_gamma                 89.999782
_cell_volume                      1260.70711211

loop_
_atom_site_label
_atom_site_type_symbol
_atom_type_description
_atom_site_fract_x
_atom_site_fract_y
_atom_site_fract_z
_atom_type_partial_charge
C1    C     C_R   0.833754 0.471411 0.527458 0.878985
C2    C     C_2   0.461965 0.030734 0.524260 -0.255064
C3    C     C_2   0.535722 0.965855 0.465971 -0.214954
C4    C     C_2   0.030103 0.542395 0.470087 0.116870
C5    C     C_1   0.364585 0.970002 0.588943 0.311685
C6    C     C_1   0.640294 0.016118 0.406525 0.325019
C7    C     C_1   0.593216 0.343953 0.039880 0.205501
C8    C     C_2   0.964903 0.455003 0.537098 0.086919
C9    C     C_2   0.471513 0.541738 0.023113 0.187972
C10   C     C_2   0.530635 0.457556 0.971382 -0.271458
C11   C     C_R   0.163911 0.527620 0.473436 0.837588
C12   C     C_R   0.524041 0.470774 0.838039 0.911253
C13   C     C_R   0.476722 0.527946 0.159936 0.785852
C14   C     C_R   0.524171 0.834080 0.475362 0.853243
C15   C     C_R   0.475802 0.164323 0.522402 0.845440
H1    H     H_    0.000825 0.843552 0.252192 0.393741
H2    H     H_    0.872181 0.254176 0.730368 0.338002
H3    H     H_    0.232884 0.710162 0.017912 0.380205
N1    N     N_1   0.286889 0.921776 0.640242 -0.036930
N2    N     N_1   0.724060 0.055510 0.359264 -0.088580
N3    N     N_1   0.643236 0.253100 0.093889 -0.126724
O1    O     O_3   0.500000 0.500000 0.500000 -0.550812
O2    O     O_R   0.597340 0.765700 0.560080 -0.592707
O3    O     O_R   0.548200 0.222430 0.451790 -0.643157
O4    O     O_R   0.441590 0.789440 0.401000 -0.617613
O5    O     O_R   0.412860 0.222430 0.587130 -0.611206
O6    O     O_2   0.848509 0.645942 0.288762 -0.319408
O7    O     O_2   0.905354 0.756183 0.466341 -0.273035
O8    O     O_3   0.051635 0.769885 0.296669 -0.492262
O9    O     O_2   0.086921 0.239165 0.536519 -0.239106
O10   O     O_2   0.106893 0.318611 0.736480 -0.243337
O11   O     O_3   0.900542 0.217780 0.661258 -0.513289
O12   O     O_R   0.441590 0.410520 0.779910 -0.609066
O13   O     O_2   0.482165 0.757891 0.866507 -0.253373
O14   O     O_2   0.300945 0.631766 0.823733 -0.315396
O15   O     O_3   0.310368 0.756149 0.008335 -0.465999
O16   O     O_R   0.548210 0.443940 0.230290 -0.644550
O17   O     O_R   0.787780 0.544200 0.591150 -0.619453
O18   O     O_R   0.222430 0.601350 0.398650 -0.580311
O19   O     O_R   0.767360 0.410530 0.454140 -0.599506
O20   O     O_R   0.222430 0.443930 0.556060 -0.577183
O21   O     O_R   0.597340 0.544190 0.781580 -0.611073
O22   O     O_R   0.412870 0.601350 0.208220 -0.594156
S1    S     S_3+6 0.954815 0.681102 0.379079 0.041033
S2    S     S_3+6 0.020112 0.305263 0.619468 0.077882
S3    S     S_3+6 0.389908 0.673827 0.926296 0.062459
Zn1   Zn    Zn3+2 0.396020 0.396030 0.603970 1.096801
Zn2   Zn    Zn3+2 0.618560 0.587010 0.606350 1.090437
Zn3   Zn    Zn3+2 0.396030 0.620930 0.379070 1.089846
Zn4   Zn    Zn3+2 0.589390 0.396030 0.410610 1.042973

loop_
_geom_bond_atom_site_label_1
_geom_bond_atom_site_label_2
_ccdc_geom_bond_type
C14   O2    A    
C7    C10   S    
O1    Zn2   S    
O15   S3    S    
O13   S3    D    
C1    C8    S    
C6    N2    T    
O11   S2    S    
O9    S2    D    
O17   Zn2   S    
C4    C8    D    
O1    Zn4   S    
C3    C6    S    
C2    C3    D    
O20   Zn1   S    
C9    S3    S    
C14   O4    A    
O21   Zn2   S    
C4    C11   S    
C11   O18   A    
C2    C15   S    
H3    O15   S    
C3    C14   S    
C10   C12   S    
C1    O17   A    
C12   O12   A    
O1    Zn3   S    
O19   Zn4   S    
O5    Zn1   S    
O16   Zn4   S    
C15   O3    A    
O18   Zn3   S    
C5    N1    T    
O1    Zn1   S    
O8    S1    S    
O3    Zn4   S    
O12   Zn1   S    
O4    Zn3   S    
C2    C5    S    
O10   S2    D    
C13   O22   A    
C9    C10   D    
C11   O20   A    
H2    O11   S    
C9    C13   S    
C8    S2    S    
O22   Zn3   S    
C15   O5    A    
C12   O21   A    
O2    Zn2   S    
C4    S1    S    
C1    O19   A    
H1    O8    S    
C7    N3    T    
O14   S3    D    
C13   O16   A    
O6    S1    D    
O7    S1    D    
