data_mof_unit_pretest_242.cif
_audit_creation_date              2013-03-05T15:50:43-0500
_audit_creation_method            fapswitch 2.2
_symmetry_space_group_name_H-M    P1
_symmetry_Int_Tables_number       1
_space_group_crystal_system       triclinic
_cell_length_a                    22.842253
_cell_length_b                    7.254534
_cell_length_c                    20.837688
_cell_angle_alpha                 90.00424
_cell_angle_beta                  93.130933
_cell_angle_gamma                 89.99161
_cell_volume                      3447.85696045

loop_
_atom_site_label
_atom_site_type_symbol
_atom_site_description
_atom_site_fract_x
_atom_site_fract_y
_atom_site_fract_z
_atom_type_partial_charge
O1    O     O_R   0.438030 0.494310 0.439340 -0.584447
O2    O     O_R   0.561970 0.994310 0.560660 -0.584503
O3    O     O_R   0.556900 0.822900 0.435960 -0.553990
O4    O     O_R   0.443100 0.322900 0.564040 -0.553998
C1    C     C_R   0.575759 0.655899 0.421299 0.941418
C2    C     C_R   0.424233 0.155928 0.578694 0.941648
O5    O     O_R   0.438170 0.823950 0.431660 -0.565970
O6    O     O_R   0.561830 0.323950 0.568340 -0.566049
O7    O     O_R   0.442390 0.995390 0.556340 -0.587565
O8    O     O_R   0.557610 0.495390 0.443660 -0.587581
C3    C     C_R   0.419028 0.655358 0.415130 0.982405
C4    C     C_R   0.580961 0.155343 0.584880 0.982518
O9    O     O_3   0.501520 0.661170 0.540910 -0.257305
O10   O     O_3   0.498480 0.161170 0.459090 -0.257221
V1    V     V_3+5 0.499720 0.935580 0.492410 1.293496
V2    V     V_3+5 0.500280 0.435580 0.507590 1.293469
C5    C     C_R   0.825307 0.238380 0.872815 0.358956
C6    C     C_R   0.174658 0.738424 0.127216 0.359231
C7    C     C_R   0.865913 0.089824 0.869776 -0.333211
C8    C     C_R   0.134090 0.589797 0.130221 -0.333437
C9    C     C_R   0.857875 0.958003 0.821020 -0.253228
C10   C     C_R   0.142154 0.457931 0.178953 -0.252761
C11   C     C_R   0.811139 0.971616 0.774889 0.181773
C12   C     C_R   0.188869 0.471593 0.225104 0.181699
C13   C     C_R   0.770977 0.120030 0.776839 -0.041182
C14   C     C_R   0.228982 0.620113 0.223203 -0.041477
C15   C     C_R   0.777384 0.255359 0.826153 -0.159832
C16   C     C_R   0.222546 0.755504 0.173917 -0.160005
C17   C     C_R   0.803776 0.836542 0.726912 -0.214325
C18   C     C_R   0.196265 0.336458 0.273053 -0.214539
C19   C     C_R   0.757179 0.846824 0.680899 -0.187543
C20   C     C_R   0.242859 0.346742 0.319067 -0.187586
C21   C     C_R   0.716906 0.992344 0.681933 0.164175
C22   C     C_R   0.283089 0.492352 0.318075 0.164000
C23   C     C_R   0.723596 0.129463 0.729960 0.016762
C24   C     C_R   0.276348 0.629579 0.270097 0.016897
C25   C     C_R   0.682156 0.272776 0.731885 -0.040359
C26   C     C_R   0.317719 0.773061 0.268241 -0.040312
C27   C     C_R   0.687468 0.401990 0.781745 -0.357437
C28   C     C_R   0.312328 0.902518 0.218472 -0.357736
C29   C     C_R   0.734816 0.399567 0.828523 0.564669
C30   C     C_R   0.265034 0.899925 0.171628 0.564917
C31   C     C_R   0.669943 0.001668 0.635738 -0.198781
C32   C     C_R   0.330059 0.501659 0.364264 -0.198465
C33   C     C_R   0.628916 0.146078 0.636237 -0.315441
C34   C     C_R   0.371046 0.646150 0.363801 -0.315604
C35   C     C_R   0.634716 0.281480 0.685125 0.323325
C36   C     C_R   0.365173 0.781719 0.314982 0.323312
H1    H     H_    0.888571 0.844480 0.818644 0.171658
H2    H     H_    0.111489 0.344344 0.181299 0.171700
H3    H     H_    0.834017 0.721748 0.725171 0.137760
H4    H     H_    0.166060 0.221588 0.274758 0.137812
H5    H     H_    0.752483 0.740074 0.644580 0.141746
H6    H     H_    0.247591 0.239919 0.355353 0.141886
H7    H     H_    0.665834 0.897176 0.598540 0.162935
H8    H     H_    0.334209 0.397072 0.401421 0.163148
H9    H     H_    0.653233 0.503130 0.784786 0.183211
H10   H     H_    0.346465 0.003990 0.215569 0.183173
C37   C     C_3   0.229660 0.299374 0.790376 -0.601605
C38   C     C_3   0.770338 0.799422 0.209675 -0.601578
C39   C     C_3   0.259139 0.955973 0.805856 0.344369
C40   C     C_3   0.740894 0.456083 0.194078 0.343985
C41   C     C_3   0.314426 0.014218 0.769159 -0.095312
C42   C     C_3   0.685591 0.514157 0.230787 -0.095166
H11   H     H_    0.245700 0.335940 0.839610 0.201392
H12   H     H_    0.754337 0.836060 0.160435 0.201362
H13   H     H_    0.244489 0.823956 0.782894 0.157198
H14   H     H_    0.755556 0.323981 0.216976 0.156789
H15   H     H_    0.343871 0.099399 0.800805 0.139744
H16   H     H_    0.656108 0.599359 0.199192 0.140027
C43   C     C_1   0.378813 0.149673 0.624392 -0.170496
C44   C     C_1   0.621165 0.649561 0.375586 -0.170393
C45   C     C_3   0.207370 0.096597 0.791029 0.030725
C46   C     C_3   0.792646 0.596656 0.208978 0.030862
C47   C     C_3   0.277309 0.333405 0.738332 0.565475
C48   C     C_3   0.722653 0.833320 0.261700 0.565244
C49   C     C_3   0.293484 0.137398 0.709798 -0.240376
C50   C     C_3   0.706497 0.637255 0.290183 -0.240530
C51   C     C_3   0.236245 0.051022 0.675662 0.418033
C52   C     C_3   0.763731 0.550833 0.324316 0.418275
C53   C     C_3   0.184031 0.056756 0.721113 -0.583832
C54   C     C_3   0.815961 0.556653 0.278889 -0.583687
C55   C     C_1   0.340546 0.146045 0.662569 0.298884
C56   C     C_1   0.659425 0.645879 0.337401 0.298810
C57   C     C_1   0.159689 0.081864 0.837037 0.139613
C58   C     C_1   0.840337 0.581974 0.162983 0.139281
C59   C     C_1   0.121212 0.078489 0.875146 -0.262604
C60   C     C_1   0.878808 0.578578 0.124868 -0.262575
H17   H     H_    0.151688 0.164123 0.704839 0.243239
H18   H     H_    0.848295 0.663973 0.295210 0.243277
H19   H     H_    0.160379 0.922592 0.718607 0.179085
H20   H     H_    0.839619 0.422474 0.281363 0.178883
H21   H     H_    0.191226 0.391808 0.782964 0.233871
H22   H     H_    0.808760 0.891848 0.217140 0.233808
H23   H     H_    0.245686 0.903192 0.666442 0.128107
H24   H     H_    0.754295 0.402982 0.333492 0.127979
O11   O     O_R   0.942420 0.735670 0.056390 -0.590096
O12   O     O_R   0.057580 0.235670 0.943610 -0.590070
O13   O     O_R   0.061840 0.404850 0.068350 -0.576835
O14   O     O_R   0.938160 0.904850 0.931650 -0.576851
C61   C     C_R   0.082594 0.574267 0.083021 0.967603
C62   C     C_R   0.917410 0.074279 0.916975 0.967695
O15   O     O_R   0.943100 0.406010 0.064050 -0.569592
O16   O     O_R   0.056900 0.906010 0.935950 -0.569636
O17   O     O_R   0.938020 0.234710 0.939330 -0.558331
O18   O     O_R   0.061980 0.734710 0.060670 -0.558312
C63   C     C_R   0.924339 0.573808 0.078867 1.003047
C64   C     C_R   0.075668 0.073781 0.921137 1.003025
O19   O     O_3   0.998500 0.567790 0.959120 -0.277655
O20   O     O_3   0.001500 0.067790 0.040880 -0.277597
V3    V     V_3+5 0.000280 0.293330 0.007580 1.254706
V4    V     V_3+5 0.999720 0.793330 0.992420 1.254677
N1    N     N_R   0.831739 0.366637 0.925075 0.262244
O21   O     O_R   0.855461 0.527192 0.916352 -0.385261
O22   O     O_R   0.818388 0.317131 0.982476 -0.410569
N2    N     N_R   0.168230 0.866646 0.074949 0.262295
O23   O     O_R   0.181652 0.817148 0.017569 -0.410578
O24   O     O_R   0.144429 0.027127 0.083638 -0.385077
O25   O     O_3   0.268663 0.903331 0.871464 -0.607516
C65   C     C_3   0.298847 0.032001 0.911922 0.238962
H25   H     H_    0.270648 0.062002 0.952215 0.148807
H26   H     H_    0.308342 0.165509 0.889474 0.082432
C66   C     C_3   0.355880 0.944522 0.939188 -0.237228
H27   H     H_    0.345446 0.828579 0.971503 0.217891
H28   H     H_    0.380780 0.888127 0.899412 0.258741
C67   C     C_3   0.394530 0.083751 0.976353 -0.964424
H29   H     H_    0.406791 0.198260 0.944334 0.287942
H30   H     H_    0.435193 0.014842 0.995609 0.284421
H31   H     H_    0.371173 0.140535 0.017095 0.263747
O26   O     O_3   0.731375 0.403707 0.128444 -0.607618
C68   C     C_3   0.701303 0.532758 0.088036 0.239908
H32   H     H_    0.729724 0.563777 0.048031 0.147728
H33   H     H_    0.691530 0.665803 0.110666 0.083073
C69   C     C_3   0.644511 0.445074 0.060196 -0.237681
H34   H     H_    0.655281 0.331462 0.027029 0.217040
H35   H     H_    0.619819 0.385381 0.099597 0.259350
C70   C     C_3   0.605387 0.585267 0.024084 -0.962551
H36   H     H_    0.592475 0.696691 0.057083 0.288278
H37   H     H_    0.565101 0.515893 0.004014 0.283969
H38   H     H_    0.628656 0.646356 0.983990 0.263190
N3    N     N_R   0.349801 0.855048 0.751362 0.286506
O27   O     O_R   0.400930 0.829004 0.780616 -0.302465
O28   O     O_R   0.337408 0.765476 0.698436 -0.349487
N4    N     N_R   0.650253 0.354856 0.248487 0.286470
O29   O     O_R   0.599292 0.328261 0.218919 -0.301803
O30   O     O_R   0.662442 0.265709 0.301548 -0.349613
O31   O     O_3   0.220648 0.147328 0.617766 -0.606043
C71   C     C_3   0.202640 0.026592 0.567055 0.221777
H39   H     H_    0.172156 0.104266 0.533649 0.133516
H40   H     H_    0.177592 0.905432 0.583842 0.106365
C72   C     C_3   0.255603 0.965228 0.530160 -0.325019
H41   H     H_    0.279672 0.088859 0.514282 0.202640
H42   H     H_    0.285896 0.882109 0.562064 0.227167
C73   C     C_3   0.236883 0.849918 0.471323 -0.952278
H43   H     H_    0.213730 0.723453 0.486082 0.282928
H44   H     H_    0.276243 0.808634 0.445818 0.265623
H45   H     H_    0.207557 0.931087 0.437736 0.253833
O32   O     O_3   0.779299 0.647050 0.382241 -0.606053
C74   C     C_3   0.797307 0.526230 0.432926 0.221658
H46   H     H_    0.827775 0.603851 0.466359 0.133508
H47   H     H_    0.822369 0.405101 0.416116 0.106430
C75   C     C_3   0.744339 0.464797 0.469788 -0.324960
H48   H     H_    0.720260 0.588399 0.485697 0.202566
H49   H     H_    0.714058 0.381749 0.437852 0.227318
C76   C     C_3   0.763055 0.349362 0.528594 -0.952144
H50   H     H_    0.786216 0.222919 0.513803 0.282967
H51   H     H_    0.723691 0.308039 0.554077 0.265590
H52   H     H_    0.792372 0.430455 0.562211 0.253806
N5    N     N_R   0.254330 0.455897 0.685780 0.274817
O33   O     O_R   0.285029 0.484721 0.635915 -0.345957
O34   O     O_R   0.204111 0.539850 0.687960 -0.451480
N6    N     N_R   0.745584 0.955757 0.314292 0.274718
O35   O     O_R   0.714805 0.984734 0.364088 -0.346006
O36   O     O_R   0.795862 0.039388 0.312242 -0.451369
N7    N     N_R   0.591480 0.424312 0.688564 0.237379
O37   O     O_R   0.605193 0.594617 0.676769 -0.404611
O38   O     O_R   0.537772 0.383017 0.700731 -0.343908
N8    N     N_R   0.408368 0.924639 0.311571 0.237383
O39   O     O_R   0.394662 0.094800 0.323618 -0.404844
O40   O     O_R   0.462038 0.883537 0.299179 -0.343908
O41   O     O_3   0.738941 0.525318 0.879646 -0.622161
C77   C     C_3   0.706167 0.689365 0.869616 0.191811
H53   H     H_    0.659004 0.660673 0.875897 0.119400
H54   H     H_    0.712254 0.748008 0.821021 0.112806
C78   C     C_3   0.726842 0.833455 0.919328 -0.236376
H55   H     H_    0.728353 0.772915 0.968126 0.205289
H56   H     H_    0.771873 0.877955 0.909578 0.224809
C79   C     C_3   0.686115 0.000490 0.918066 -0.973451
H57   H     H_    0.678761 0.053655 0.868360 0.270665
H58   H     H_    0.705959 0.111345 0.948894 0.295193
H59   H     H_    0.643092 0.962347 0.936623 0.272450
O42   O     O_3   0.260866 0.025763 0.120536 -0.622064
C80   C     C_3   0.293671 0.189726 0.130529 0.191630
H60   H     H_    0.340854 0.160793 0.124504 0.118825
H61   H     H_    0.287426 0.248805 0.179022 0.113026
C81   C     C_3   0.273245 0.333395 0.080560 -0.236650
H62   H     H_    0.271913 0.272297 0.031852 0.205316
H63   H     H_    0.228189 0.378306 0.090026 0.224808
C82   C     C_3   0.314059 0.500164 0.081792 -0.972616
H64   H     H_    0.321051 0.554302 0.131397 0.270587
H65   H     H_    0.294516 0.610513 0.050533 0.295102
H66   H     H_    0.357212 0.461295 0.063745 0.272689
N9    N     N_R   0.329809 0.422694 0.769813 0.224749
O43   O     O_R   0.379573 0.423871 0.742230 -0.301904
O44   O     O_R   0.325906 0.520014 0.821921 -0.387522
N10   N     N_R   0.670135 0.922579 0.230227 0.224750
O45   O     O_R   0.620413 0.924091 0.257892 -0.301719
O46   O     O_R   0.673951 0.019264 0.177968 -0.387729

loop_
_geom_bond_atom_site_label_1
_geom_bond_atom_site_label_2
_geom_bond_distance
_ccdc_geom_bond_type
C18   C20   1.395081 A    
N9    O43   1.301511 A    
C67   H29   1.110970 S    
C39   O25   1.424685 S    
N5    O33   1.301841 A    
C40   O26   1.424638 S    
O31   C71   1.416167 S    
O1    C3    1.335626 A    
C71   C72   1.534347 S    
C68   C69   1.530379 S    
O2    C4    1.335582 A    
C69   C70   1.525003 S    
C36   N8    1.435794 S    
N8    O39   1.301269 A    
O12   C64   1.337975 A    
C66   H27   1.111471 S    
N7    O38   1.301210 A    
O18   V4    2.001231 S    
O41   C77   1.415320 S    
N6    O35   1.301840 A    
O5    C3    1.337659 A    
N9    O44   1.302246 A    
C76   H50   1.110834 S    
C79   H59   1.110631 S    
C11   C17   1.403390 A    
C79   H58   1.110444 S    
C23   C25   1.407978 A    
C71   H40   1.115501 S    
C75   H48   1.111834 S    
C1    C44   1.446765 S    
N3    O28   1.297886 A    
C74   H46   1.110817 S    
C41   C49   1.578854 S    
C7    C62   1.495767 S    
C58   C60   1.216495 T    
C66   H28   1.108727 S    
C49   C55   1.497900 S    
C27   H9    1.076635 S    
C54   H20   1.113110 S    
N2    O23   1.300974 A    
C62   O17   1.330153 A    
O15   V3    1.981472 S    
O6    V2    2.010065 S    
C72   C73   1.525925 S    
C38   C46   1.556989 S    
C48   N6    1.483776 S    
C15   C29   1.430834 A    
O20   V3    1.776913 S    
C40   C42   1.569641 S    
C68   H33   1.102329 S    
C5    C7    1.425440 A    
C77   H53   1.111967 S    
C59   C64   1.452858 S    
C41   H15   1.104850 S    
N6    O36   1.301705 A    
C80   H61   1.113901 S    
C47   N5    1.483755 S    
C82   H66   1.110384 S    
C72   H41   1.111841 S    
C74   H47   1.115499 S    
C42   H16   1.104781 S    
C52   H24   1.112686 S    
C37   C45   1.557049 S    
C73   H44   1.110208 S    
C26   C36   1.418532 A    
C65   C66   1.530254 S    
C10   H2    1.084414 S    
C53   H17   1.113549 S    
O5    V1    2.010157 S    
O17   V3    2.001278 S    
C38   H12   1.102754 S    
C82   H64   1.109116 S    
C76   H51   1.110206 S    
C28   C30   1.416000 A    
N5    O34   1.301657 A    
C29   O41   1.401731 S    
C2    O7    1.328994 A    
C81   C82   1.526832 S    
C20   H6    1.084000 S    
C32   C34   1.405931 A    
C43   C55   1.213908 T    
C49   C51   1.583233 S    
C2    C43   1.446790 S    
C70   H38   1.107042 S    
C34   C36   1.416082 A    
C28   H10   1.076513 S    
C19   C21   1.401096 A    
C57   C59   1.216536 T    
C5    N1    1.433734 S    
C5    C15   1.429209 A    
C35   N7    1.435829 S    
C6    C16   1.429193 A    
C71   H39   1.110819 S    
C73   H45   1.110874 S    
C27   C29   1.415986 A    
O19   V4    1.776826 S    
C6    N2    1.433745 S    
C51   C53   1.563526 S    
C60   C63   1.452787 S    
C47   N9    1.484001 S    
N10   O45   1.301513 A    
C81   H62   1.106379 S    
C78   C79   1.526913 S    
C69   H35   1.109250 S    
C8    C61   1.495771 S    
C42   N4    1.468331 S    
C67   H31   1.106544 S    
C39   C45   1.579349 S    
C21   C31   1.403268 A    
C38   C48   1.597172 S    
C19   H5    1.084004 S    
C79   H57   1.109406 S    
C77   C78   1.528167 S    
C20   C22   1.401093 A    
O4    V2    1.981435 S    
C51   H23   1.112634 S    
C30   O42   1.401763 S    
N4    O30   1.297951 A    
C70   H37   1.110443 S    
C39   H13   1.113860 S    
C52   O32   1.422535 S    
N7    O37   1.301350 A    
O6    C4    1.337665 A    
C80   C81   1.528107 S    
O13   V3    2.010233 S    
O3    C1    1.326965 A    
C39   C41   1.569646 S    
C41   N3    1.468411 S    
C74   C75   1.534334 S    
C22   C32   1.403288 A    
O1    V2    2.001249 S    
C46   C58   1.493552 S    
C53   H19   1.113107 S    
O2    V1    2.001293 S    
C31   C33   1.405924 A    
C45   C57   1.493609 S    
C73   H43   1.110827 S    
C44   C56   1.213902 T    
C45   C53   1.550928 S    
C51   O31   1.422535 S    
C9    H1    1.084418 S    
C14   C24   1.419394 A    
O13   C61   1.346485 A    
O14   C62   1.346470 A    
C8    C10   1.399961 A    
O14   V4    2.010143 S    
C76   H52   1.110880 S    
C9    C11   1.400468 A    
O32   C74   1.416155 S    
C10   C12   1.400452 A    
O9    V2    1.777321 S    
O4    C2    1.326949 A    
C25   C35   1.418569 A    
C68   H32   1.107343 S    
C37   C47   1.597098 S    
O16   C64   1.332312 A    
O3    V1    1.981207 S    
C65   H25   1.107357 S    
C65   H26   1.102331 S    
O16   V4    1.981698 S    
N1    O21   1.301646 A    
C17   H3    1.083779 S    
C31   H7    1.084537 S    
C61   O18   1.330164 A    
O11   V4    1.963610 S    
C18   H4    1.083773 S    
C67   H30   1.110328 S    
O12   V3    1.963484 S    
C77   H54   1.114072 S    
C7    C9    1.399972 A    
C75   C76   1.525916 S    
C42   C50   1.578856 S    
C13   C23   1.419409 A    
C12   C14   1.416429 A    
C48   C50   1.592414 S    
C4    C33   1.490502 S    
C66   C67   1.524727 S    
C6    C8    1.425432 A    
N8    O40   1.301141 A    
O25   C65   1.412105 S    
C69   H34   1.111719 S    
C13   C15   1.422911 A    
C70   H36   1.111396 S    
C14   C16   1.422917 A    
C54   H18   1.113547 S    
C40   H14   1.113888 S    
N4    O29   1.301379 A    
O42   C80   1.415235 S    
C24   C26   1.407933 A    
O26   C68   1.412108 S    
O7    V1    1.966754 S    
C1    O8    1.328975 A    
C25   C27   1.399625 A    
C75   H49   1.110880 S    
O8    V2    1.966880 S    
N3    O27   1.301336 A    
C37   H11   1.102753 S    
C26   C28   1.399587 A    
C32   H8    1.084525 S    
C48   N10   1.484051 S    
C78   H55   1.106463 S    
C16   C30   1.430828 A    
C21   C23   1.413361 A    
C52   C54   1.563519 S    
N2    O24   1.301644 A    
C50   C52   1.583155 S    
C72   H42   1.110883 S    
C12   C18   1.403404 A    
C81   H63   1.107396 S    
C78   H56   1.107470 S    
O11   C63   1.337959 A    
C50   C56   1.497868 S    
C11   C13   1.416433 A    
C33   C35   1.416106 A    
C22   C24   1.413363 A    
C17   C19   1.395076 A    
C80   H60   1.111818 S    
C47   C49   1.592378 S    
C82   H65   1.110227 S    
O10   V1    1.777408 S    
C40   C46   1.579243 S    
C3    C34   1.490536 S    
O15   C63   1.332299 A    
C37   H21   1.108729 S    
N10   O46   1.302256 A    
C46   C54   1.550914 S    
N1    O22   1.300984 A    
C38   H22   1.108725 S    
