data_mof_unit_pretest_1275.cif
_audit_creation_date              2012-12-10T19:24:08-0500
_audit_creation_method            fapswitch 2.2
_symmetry_space_group_name_H-M    P1
_symmetry_Int_Tables_number       1
_space_group_crystal_system       triclinic
_cell_length_a                    10.517442
_cell_length_b                    10.561085
_cell_length_c                    9.761901
_cell_angle_alpha                 89.646803
_cell_angle_beta                  90.014293
_cell_angle_gamma                 89.32659
_cell_volume                      1084.2134522

loop_
_atom_site_label
_atom_site_type_symbol
_atom_type_description
_atom_site_fract_x
_atom_site_fract_y
_atom_site_fract_z
_atom_type_partial_charge
C1    C     C_R   0.501451 0.258035 0.500418 1.010638
C2    C     C_3   0.586084 0.574585 0.048134 -0.091519
C3    C     C_R   0.257712 0.499418 0.499949 0.974321
C4    C     C_R   0.742288 0.500582 0.500051 0.974301
C5    C     C_3   0.040974 0.399262 0.570146 0.045934
C6    C     C_3   0.959026 0.600738 0.429854 0.045927
C7    C     C_3   0.957979 0.393391 0.440713 -0.239446
C8    C     C_3   0.042021 0.606609 0.559287 -0.239444
C9    C     C_3   0.877045 0.501461 0.499969 0.001592
C10   C     C_3   0.122955 0.498538 0.500031 0.001598
C11   C     C_3   0.958101 0.506072 0.630433 -0.207173
C12   C     C_R   0.498541 0.741965 0.499581 1.010702
C13   C     C_3   0.041899 0.493928 0.369567 -0.207151
C14   C     C_3   0.511902 0.039594 0.629437 -0.082495
C15   C     C_3   0.488080 0.960410 0.370559 -0.082468
C16   C     C_3   0.609031 0.955156 0.553629 -0.072025
C17   C     C_3   0.390952 0.044846 0.446369 -0.072098
C18   C     C_3   0.498549 0.876138 0.499079 -0.065130
C19   C     C_3   0.501433 0.123863 0.500917 -0.065297
C20   C     C_2   0.082581 0.284413 0.650086 0.382306
C21   C     C_2   0.917419 0.715587 0.349914 0.382289
C22   C     C_2   0.732530 0.909742 0.614722 0.437864
C23   C     C_3   0.401354 0.959863 0.574867 -0.117645
C24   C     C_2   0.267456 0.090258 0.385268 0.437505
C25   C     C_2   0.525182 0.082049 0.775205 0.438704
C26   C     C_2   0.474756 0.917997 0.224782 0.438489
C27   C     C_2   0.290148 0.920462 0.660657 0.319960
C28   C     C_2   0.709836 0.079536 0.339340 0.319953
C29   C     C_3   0.598628 0.040139 0.425129 -0.117722
C30   C     C_3   0.522739 0.387695 0.049272 -0.029517
C31   C     C_3   0.477261 0.612304 0.950728 -0.029313
C32   C     C_3   0.608740 0.462317 0.951584 -0.047810
C33   C     C_3   0.391260 0.537683 0.048416 -0.047579
C34   C     C_3   0.413915 0.425415 0.951866 -0.091802
H1    H     H_    0.922513 0.305707 0.393063 0.204728
H2    H     H_    0.658398 0.637529 0.093594 0.168160
H3    H     H_    0.011525 0.221263 0.691610 0.057399
H4    H     H_    0.988475 0.778737 0.308390 0.057396
H5    H     H_    0.804147 0.978109 0.642274 0.071826
H6    H     H_    0.195846 0.021889 0.357699 0.071783
H7    H     H_    0.447718 0.068762 0.846970 0.067462
H8    H     H_    0.551965 0.931840 0.152827 0.067560
H9    H     H_    0.223977 0.991776 0.697971 0.110435
H10   H     H_    0.775998 0.008219 0.302017 0.110480
H11   H     H_    0.077487 0.694293 0.606937 0.204726
H12   H     H_    0.921298 0.510678 0.736934 0.167190
H13   H     H_    0.078702 0.489322 0.263066 0.167186
H14   H     H_    0.700282 0.430416 0.906021 0.148021
H15   H     H_    0.299718 0.569583 0.093979 0.148048
H16   H     H_    0.541826 0.292974 0.095323 0.175512
H17   H     H_    0.458174 0.707025 0.904676 0.175527
H18   H     H_    0.341602 0.362470 0.906406 0.168131
N1    N     N_3   0.499910 0.500030 0.863290 -0.089205
N2    N     N_3   0.500090 0.499970 0.136710 -0.089168
O1    O     O_R   0.500010 0.313960 0.616610 -0.611685
O2    O     O_2   0.804912 0.738925 0.330984 -0.593982
O3    O     O_2   0.753204 0.797201 0.634138 -0.572142
O4    O     O_2   0.246777 0.202800 0.365862 -0.572113
O5    O     O_2   0.622122 0.133726 0.812991 -0.599374
O6    O     O_2   0.378023 0.865845 0.187162 -0.599268
O7    O     O_2   0.274035 0.809528 0.690200 -0.592514
O8    O     O_2   0.725960 0.190471 0.309809 -0.592508
O9    O     O_R   0.499990 0.686040 0.383390 -0.611377
O10   O     O_R   0.500060 0.313950 0.383350 -0.580025
O11   O     O_R   0.499940 0.686050 0.616650 -0.580058
O12   O     O_R   0.313930 0.499970 0.616610 -0.585402
O13   O     O_R   0.686070 0.500030 0.383390 -0.585407
O14   O     O_R   0.313980 0.499960 0.383350 -0.632978
O15   O     O_R   0.686020 0.500040 0.616650 -0.633000
O16   O     O_2   0.195088 0.261075 0.669017 -0.594026
Zn1   Zn    Zn3+2 0.499970 0.500010 0.655740 1.028046
Zn2   Zn    Zn3+2 0.500030 0.499990 0.344260 1.028168

loop_
_geom_bond_atom_site_label_1
_geom_bond_atom_site_label_2
_ccdc_geom_bond_type
C15   C18   S    
C3    O14   A    
C22   O3    D    
C5    C20   S    
C30   N2    S    
C17   C23   S    
C28   C29   S    
C5    C11   S    
C19   C29   S    
C33   H15   S    
C2    C32   S    
O13   Zn2   S    
O15   Zn1   S    
C8    H11   S    
C27   O7    D    
C17   C19   S    
C21   H4    S    
C31   C33   S    
C23   C27   S    
C30   H16   S    
C32   H14   S    
C20   O16   D    
C6    C9    S    
C4    O15   A    
C15   C29   S    
C7    C9    S    
C1    C19   S    
C17   C24   S    
C30   C34   S    
C18   C23   S    
C2    N2    S    
C25   H7    S    
C5    C7    S    
C12   O9    A    
C15   C26   S    
C6    C8    S    
C16   C29   S    
O11   Zn1   S    
C6    C21   S    
C28   H10   S    
C2    C31   S    
C14   C23   S    
C21   O2    D    
O12   Zn1   S    
O14   Zn2   S    
C33   C34   S    
C31   N1    S    
C9    C11   S    
C24   O4    D    
C14   C16   S    
C3    O12   A    
N1    Zn1   S    
C1    O10   A    
C32   N1    S    
C26   H8    S    
C13   H13   S    
C2    H2    S    
C33   N2    S    
C15   C17   S    
C16   C22   S    
C7    H1    S    
C14   C19   S    
C8    C10   S    
C31   H17   S    
C10   C13   S    
C4    O13   A    
C12   O11   A    
C34   H18   S    
C1    O1    A    
C5    C10   S    
C3    C10   S    
C6    C13   S    
C30   C32   S    
C20   H3    S    
C8    C11   S    
C22   H5    S    
C24   H6    S    
O10   Zn2   S    
C14   C25   S    
C27   H9    S    
C7    C13   S    
N2    Zn2   S    
O9    Zn2   S    
C34   N1    S    
C16   C18   S    
C12   C18   S    
C11   H12   S    
C25   O5    D    
C4    C9    S    
C26   O6    D    
O1    Zn1   S    
C28   O8    D    
