data_mof_unit_pretest_1088.cif
_audit_creation_date              2012-12-10T20:38:15-0500
_audit_creation_method            fapswitch 2.2
_symmetry_space_group_name_H-M    P1
_symmetry_Int_Tables_number       1
_space_group_crystal_system       triclinic
_cell_length_a                    9.86614
_cell_length_b                    10.689811
_cell_length_c                    16.745442
_cell_angle_alpha                 90.198777
_cell_angle_beta                  84.819903
_cell_angle_gamma                 89.432303
_cell_volume                      1758.77814387

loop_
_atom_site_label
_atom_site_type_symbol
_atom_type_description
_atom_site_fract_x
_atom_site_fract_y
_atom_site_fract_z
_atom_type_partial_charge
C1    C     C_R   0.500035 0.740206 0.497449 0.885268
C2    C     C_R   0.346929 0.460358 0.783985 -0.210633
C3    C     C_R   0.418369 0.438665 0.140446 -0.150933
C4    C     C_R   0.411387 0.473797 0.220288 -0.214349
C5    C     C_R   0.657009 0.454879 0.217783 -0.200922
C6    C     C_R   0.663945 0.418928 0.137709 -0.186510
C7    C     C_R   0.544521 0.407518 0.099250 0.210492
C8    C     C_2   0.451035 0.334282 0.976355 -0.245754
C9    C     C_2   0.555903 0.376963 0.013831 -0.231340
C10   C     C_R   0.530262 0.479575 0.259999 -0.033749
C11   C     C_R   0.382192 0.937903 0.476756 0.140202
C12   C     C_R   0.480996 0.493250 0.653010 0.869205
C13   C     C_R   0.502642 0.871637 0.483922 -0.108676
C14   C     C_R   0.627719 0.934068 0.474526 -0.224799
C15   C     C_R   0.628497 0.063416 0.474112 -0.233883
C16   C     C_R   0.504214 0.128839 0.483058 -0.102264
C17   C     C_R   0.383105 0.065659 0.476324 0.136091
C18   C     C_3   0.249868 0.076075 0.525949 -0.470220
C19   C     C_3   0.248940 0.934516 0.526704 -0.507977
C20   C     C_R   0.917991 0.531951 0.567510 0.108519
C21   C     C_R   0.938538 0.450237 0.437252 0.142327
C22   C     C_R   0.083009 0.452453 0.437083 -0.170968
C23   C     C_R   0.501101 0.260008 0.497005 0.875871
C24   C     C_R   0.060290 0.531091 0.567788 0.160187
C25   C     C_3   0.058326 0.651224 0.613318 -0.564645
C26   C     C_3   0.903842 0.652895 0.612006 0.022429
C27   C     C_R   0.519109 0.498503 0.346542 0.857700
C28   C     C_R   0.470454 0.451431 0.735821 -0.024045
C29   C     C_R   0.581415 0.387090 0.763712 -0.202431
C30   C     C_R   0.571163 0.337067 0.839982 -0.170971
C31   C     C_R   0.451166 0.354062 0.890283 0.207691
C32   C     C_R   0.337511 0.411910 0.861314 -0.171030
H1    H     H_    0.676072 0.374123 0.726369 0.154603
H2    H     H_    0.762424 0.399216 0.105866 0.123375
H3    H     H_    0.724059 0.884315 0.473540 0.166300
H4    H     H_    0.725098 0.110957 0.473041 0.162979
H5    H     H_    0.259045 0.118170 0.586046 0.207456
H6    H     H_    0.168968 0.117734 0.491948 0.201608
H7    H     H_    0.258107 0.894917 0.587335 0.203667
H8    H     H_    0.167102 0.894940 0.493067 0.200906
H9    H     H_    0.146849 0.415746 0.386304 0.146707
H10   H     H_    0.094502 0.639019 0.673821 0.197501
H11   H     H_    0.312376 0.494531 0.251113 0.151822
H12   H     H_    0.108422 0.726791 0.577328 0.198817
H13   H     H_    0.862804 0.729706 0.576116 0.159482
H14   H     H_    0.750270 0.460674 0.246746 0.171581
H15   H     H_    0.649662 0.404302 0.979527 0.149144
H16   H     H_    0.244328 0.425650 0.899922 0.121715
H17   H     H_    0.324936 0.438499 0.111320 0.121496
H18   H     H_    0.259116 0.506527 0.762455 0.142464
H19   H     H_    0.356194 0.307896 0.009591 0.144706
H20   H     H_    0.658817 0.289785 0.860920 0.128645
N1    N     N_R   0.857140 0.500860 0.500530 -0.123479
N2    N     N_R   0.142780 0.500820 0.500530 -0.104358
O1    O     O_R   0.385310 0.683210 0.499990 -0.609976
O2    O     O_R   0.614650 0.683240 0.500000 -0.621987
O3    O     O_R   0.371780 0.500000 0.615800 -0.616232
O4    O     O_R   0.601120 0.500040 0.615800 -0.600264
O5    O     O_R   0.385350 0.316760 0.500000 -0.614789
O6    O     O_R   0.614690 0.316790 0.500010 -0.632481
O7    O     O_R   0.398880 0.499960 0.384200 -0.627516
O8    O     O_R   0.628220 0.500000 0.384200 -0.596086
Zn1   Zn    Zn3+2 0.346870 0.499980 0.499990 0.943040
Zn2   Zn    Zn3+2 0.653130 0.500020 0.500010 0.952634
N3    N     N_3   0.877638 0.394123 0.371718 -0.422110
H21   H     H_    0.830701 0.312139 0.393103 0.195440
H22   H     H_    0.952309 0.367008 0.326510 0.136510
N4    N     N_2   0.831389 0.637655 0.690708 -0.263602
H23   H     H_    0.865259 0.564827 0.724319 0.225114
C33   C     C_3   0.805589 0.752228 0.735774 -0.781313
H24   H     H_    0.741618 0.732088 0.792169 0.237307
H25   H     H_    0.749967 0.820499 0.700559 0.244018
H26   H     H_    0.903057 0.793392 0.750949 0.235273

loop_
_geom_bond_atom_site_label_1
_geom_bond_atom_site_label_2
_ccdc_geom_bond_type
C10   C27   S    
C25   H10   S    
O8    Zn2   S    
O2    Zn2   S    
O3    Zn1   S    
C29   C30   A    
O4    Zn2   S    
C4    H11   S    
C11   C13   A    
C5    H14   S    
O5    Zn1   S    
C31   C32   A    
C30   C31   A    
O6    Zn2   S    
C26   N4    S    
C23   O5    A    
C33   H26   S    
O7    Zn1   S    
C17   C18   S    
C3    H17   S    
C12   O4    A    
C5    C10   A    
C22   N2    A    
N4    H23   S    
C21   C22   A    
C21   N1    A    
C32   H16   S    
C8    H19   S    
C11   C19   S    
C6    C7    A    
O1    Zn1   S    
C20   C26   S    
C12   C28   S    
C5    C6    A    
C19   H7    S    
C25   H12   S    
C2    C32   A    
C28   C29   A    
C27   O8    A    
C1    O2    A    
C9    H15   S    
C16   C23   S    
C3    C7    A    
C18   H6    S    
C23   O6    A    
C20   C24   A    
N1    Zn2   S    
C1    O1    A    
C22   H9    S    
C1    C13   S    
N2    Zn1   S    
C12   O3    A    
C24   N2    A    
C3    C4    A    
C29   H1    S    
C15   H4    S    
C33   H24   S    
C18   C19   S    
C24   C25   S    
N4    C33   S    
N3    H21   S    
C19   H8    S    
C14   H3    S    
C7    C9    S    
C30   H20   S    
C14   C15   A    
C20   N1    A    
C2    C28   A    
C2    H18   S    
C26   H13   S    
C21   N3    S    
C25   C26   S    
C13   C14   A    
C8    C31   S    
C4    C10   A    
C33   H25   S    
C15   C16   A    
C11   C17   A    
C6    H2    S    
C16   C17   A    
C18   H5    S    
C8    C9    D    
N3    H22   S    
C27   O7    A    
