data_mof_unit_pretest_1927.cif
_audit_creation_date              2012-12-10T17:49:53-0500
_audit_creation_method            fapswitch 2.2
_symmetry_space_group_name_H-M    P1
_symmetry_Int_Tables_number       1
_space_group_crystal_system       triclinic
_cell_length_a                    27.785888
_cell_length_b                    36.259315
_cell_length_c                    27.786876
_cell_angle_alpha                 90.007728
_cell_angle_beta                  90.000426
_cell_angle_gamma                 89.998673
_cell_volume                      27995.2013252

loop_
_atom_site_label
_atom_site_type_symbol
_atom_type_description
_atom_site_fract_x
_atom_site_fract_y
_atom_site_fract_z
_atom_type_partial_charge
C1    C     C_R   0.499972 0.650380 0.250027 0.824968
C2    C     C_R   0.499981 0.650383 0.749959 0.826456
C3    C     C_R   0.499972 0.349616 0.749968 0.825476
C4    C     C_R   0.499982 0.349620 0.250033 0.826361
C5    C     C_R   0.499971 0.150380 0.750032 0.826855
C6    C     C_R   0.499982 0.150384 0.249961 0.826059
C7    C     C_R   0.499973 0.849616 0.249970 0.825360
C8    C     C_R   0.499974 0.849620 0.750034 0.825446
C9    C     C_R   0.999973 0.650374 0.750027 0.826963
C10   C     C_R   0.999977 0.650380 0.249953 0.824757
C11   C     C_R   0.999968 0.349620 0.249963 0.826251
C12   C     C_R   0.999975 0.349626 0.750027 0.821709
C13   C     C_R   0.999978 0.150387 0.250016 0.825504
C14   C     C_R   0.999982 0.150384 0.749962 0.825724
C15   C     C_R   0.999973 0.849616 0.749971 0.825051
C16   C     C_R   0.999989 0.849614 0.250033 0.828991
C17   C     C_3   0.502057 0.977827 0.308287 -0.021043
C18   C     C_3   0.498230 0.977828 0.691571 -0.027914
C19   C     C_3   0.491757 0.022515 0.692112 -0.022481
C20   C     C_3   0.493597 0.022332 0.307319 -0.031771
C21   C     C_3   0.506221 0.477829 0.808049 -0.019494
C22   C     C_3   0.477773 0.477677 0.197038 -0.016449
C23   C     C_3   0.484743 0.522159 0.193846 -0.016131
C24   C     C_3   0.497712 0.522334 0.807688 -0.030768
C25   C     C_3   0.998295 0.977826 0.808225 -0.020428
C26   C     C_3   0.973989 0.977549 0.199710 -0.022033
C27   C     C_3   0.977604 0.022287 0.196529 -0.020522
C28   C     C_3   0.989916 0.022330 0.806715 -0.031128
C29   C     C_3   0.012771 0.477801 0.307251 -0.020252
C30   C     C_3   0.000552 0.477859 0.691146 -0.035720
C31   C     C_3   0.994645 0.522675 0.691217 -0.019417
C32   C     C_3   0.004156 0.522287 0.307960 -0.046323
C33   C     C_1   0.000584 0.610915 0.250568 -0.116600
C34   C     C_1   0.000384 0.610900 0.749353 -0.123904
C35   C     C_1   0.000219 0.389103 0.749488 -0.108929
C36   C     C_1   0.000517 0.389082 0.250653 -0.119368
C37   C     C_1   0.000407 0.110925 0.750458 -0.130033
C38   C     C_1   0.000192 0.110932 0.249507 -0.119648
C39   C     C_1   0.000306 0.889069 0.249657 -0.137438
C40   C     C_1   0.000398 0.889075 0.750593 -0.117542
C41   C     C_1   0.500447 0.610925 0.750470 -0.130176
C42   C     C_1   0.500340 0.610916 0.249405 -0.120171
C43   C     C_1   0.500394 0.389086 0.249496 -0.123358
C44   C     C_1   0.500462 0.389075 0.750621 -0.117662
C45   C     C_1   0.500431 0.110925 0.250469 -0.129498
C46   C     C_1   0.500420 0.110915 0.749378 -0.124104
C47   C     C_1   0.500383 0.889083 0.749428 -0.122219
C48   C     C_1   0.500434 0.889075 0.250612 -0.117297
C49   C     C_3   0.501391 0.963137 0.253240 0.101938
C50   C     C_3   0.501039 0.963192 0.746486 0.108350
C51   C     C_3   0.501050 0.036799 0.746183 0.066685
C52   C     C_3   0.501639 0.036842 0.252717 0.077365
C53   C     C_3   0.501595 0.463136 0.753193 0.101700
C54   C     C_3   0.501032 0.463187 0.246870 0.096875
C55   C     C_3   0.500708 0.536865 0.246325 0.079091
C56   C     C_3   0.501803 0.536842 0.752649 0.077293
C57   C     C_3   0.001186 0.963137 0.753249 0.101798
C58   C     C_3   0.000880 0.963234 0.247639 0.083850
C59   C     C_3   0.999921 0.036853 0.246664 0.075749
C60   C     C_3   0.001470 0.036842 0.752748 0.077384
C61   C     C_3   0.001966 0.463154 0.253232 0.116544
C62   C     C_3   0.999925 0.463163 0.746349 0.097448
C63   C     C_3   0.000589 0.536781 0.745851 0.072923
C64   C     C_3   0.002512 0.536814 0.252864 0.095424
C65   C     C_3   0.955778 0.521459 0.227261 -0.125005
C66   C     C_3   0.956190 0.521682 0.776280 -0.131595
C67   C     C_3   0.954072 0.478560 0.773742 -0.139461
C68   C     C_3   0.951779 0.478551 0.234682 -0.186166
C69   C     C_3   0.962763 0.021080 0.716021 -0.128762
C70   C     C_3   0.968760 0.021816 0.290177 -0.115247
C71   C     C_3   0.974386 0.978764 0.293973 -0.112684
C72   C     C_3   0.957084 0.978384 0.722890 -0.144690
C73   C     C_3   0.458454 0.521077 0.721541 -0.129224
C74   C     C_3   0.464589 0.521558 0.285871 -0.118090
C75   C     C_3   0.471778 0.478913 0.291345 -0.147568
C76   C     C_3   0.453767 0.478381 0.729126 -0.144868
C77   C     C_3   0.460641 0.021078 0.218568 -0.128712
C78   C     C_3   0.459296 0.021697 0.779754 -0.134062
C79   C     C_3   0.458192 0.978607 0.778157 -0.133255
C80   C     C_3   0.455420 0.978382 0.225793 -0.144434
C81   C     C_1   0.001342 0.577711 0.251447 -0.001487
C82   C     C_1   0.000535 0.577688 0.748079 -0.071260
C83   C     C_1   0.000093 0.422314 0.748310 -0.000936
C84   C     C_1   0.001059 0.422294 0.251746 -0.018319
C85   C     C_1   0.000819 0.077717 0.751275 -0.054014
C86   C     C_1   0.000074 0.077726 0.248445 -0.055948
C87   C     C_1   0.000568 0.922281 0.248996 -0.088974
C88   C     C_1   0.000681 0.922284 0.751676 -0.017313
C89   C     C_1   0.500957 0.577717 0.751263 -0.053933
C90   C     C_1   0.500469 0.577708 0.248229 -0.055023
C91   C     C_1   0.500693 0.422296 0.248566 -0.020154
C92   C     C_1   0.500884 0.422283 0.751698 -0.017325
C93   C     C_1   0.500892 0.077717 0.251280 -0.054226
C94   C     C_1   0.500714 0.077707 0.748213 -0.075673
C95   C     C_1   0.500610 0.922295 0.748303 -0.039975
C96   C     C_1   0.500786 0.922284 0.251699 -0.017390
C97   C     C_1   0.499978 0.750011 0.431105 -0.140608
C98   C     C_1   0.499984 0.750006 0.568895 -0.140797
C99   C     C_1   0.499977 0.249990 0.568895 -0.138845
C100  C     C_1   0.499983 0.249995 0.431105 -0.138319
C101  C     C_1   0.499977 0.250010 0.931105 -0.140652
C102  C     C_1   0.499983 0.250005 0.068895 -0.139710
C103  C     C_1   0.499977 0.749990 0.068895 -0.141557
C104  C     C_1   0.499984 0.749995 0.931105 -0.139389
C105  C     C_1   0.999977 0.750010 0.931105 -0.140638
C106  C     C_1   0.999983 0.750005 0.068895 -0.139731
C107  C     C_1   0.999977 0.249990 0.068895 -0.141968
C108  C     C_1   0.999983 0.249995 0.931105 -0.139762
C109  C     C_1   0.999978 0.250011 0.431105 -0.140779
C110  C     C_1   0.999984 0.250007 0.568895 -0.140693
C111  C     C_1   0.999977 0.749990 0.568895 -0.138738
C112  C     C_1   0.999984 0.749995 0.431105 -0.138137
C113  C     C_1   0.499976 0.750014 0.474548 0.006779
C114  C     C_1   0.499979 0.750012 0.525452 0.006574
C115  C     C_1   0.499976 0.249987 0.525452 0.007630
C116  C     C_1   0.499979 0.249990 0.474548 0.007818
C117  C     C_1   0.499976 0.250013 0.974548 0.006499
C118  C     C_1   0.499979 0.250011 0.025451 0.006694
C119  C     C_1   0.499976 0.749987 0.025452 0.005894
C120  C     C_1   0.499979 0.749989 0.974548 0.006772
C121  C     C_1   0.999976 0.750013 0.974548 0.006481
C122  C     C_1   0.999979 0.750010 0.025451 0.006722
C123  C     C_1   0.999976 0.249988 0.025452 0.005265
C124  C     C_1   0.999979 0.249990 0.974548 0.006042
C125  C     C_1   0.999977 0.250015 0.474548 0.006817
C126  C     C_1   0.999980 0.250013 0.525452 0.006725
C127  C     C_1   0.999976 0.749987 0.525452 0.007738
C128  C     C_1   0.999979 0.749989 0.474548 0.007927
C129  C     C_R   0.499985 0.750000 0.120636 0.819847
C130  C     C_R   0.499988 0.750002 0.879363 0.821030
C131  C     C_R   0.499986 0.250000 0.879364 0.821992
C132  C     C_R   0.499988 0.249998 0.120636 0.820675
C133  C     C_R   0.499986 0.250000 0.620636 0.820445
C134  C     C_R   0.499988 0.250002 0.379363 0.820739
C135  C     C_R   0.499986 0.750000 0.379364 0.822658
C136  C     C_R   0.499988 0.749998 0.620636 0.821631
C137  C     C_R   0.999985 0.750000 0.620636 0.820833
C138  C     C_R   0.999988 0.750002 0.379363 0.821152
C139  C     C_R   0.999986 0.250000 0.379364 0.823144
C140  C     C_R   0.999988 0.249998 0.620636 0.822185
C141  C     C_R   0.999985 0.250000 0.120636 0.819365
C142  C     C_R   0.999988 0.250002 0.879363 0.819540
C143  C     C_R   0.999986 0.750000 0.879364 0.821604
C144  C     C_R   0.999988 0.749998 0.120636 0.820421
C145  C     C_R   0.370631 0.750000 0.250000 0.819224
C146  C     C_R   0.370633 0.750000 0.750000 0.818760
C147  C     C_R   0.370631 0.250000 0.750000 0.817449
C148  C     C_R   0.370633 0.250000 0.250000 0.818625
C149  C     C_R   0.870631 0.750000 0.750000 0.817324
C150  C     C_R   0.870633 0.750001 0.250000 0.819085
C151  C     C_R   0.870631 0.249999 0.250001 0.819006
C152  C     C_R   0.870633 0.250000 0.750000 0.818749
C153  C     C_R   0.629360 0.750000 0.250000 0.823084
C154  C     C_R   0.629362 0.750000 0.750000 0.822341
C155  C     C_R   0.629360 0.250000 0.750000 0.823725
C156  C     C_R   0.629362 0.250000 0.250000 0.822457
C157  C     C_R   0.129360 0.750000 0.750000 0.823640
C158  C     C_R   0.129362 0.750000 0.250000 0.821726
C159  C     C_R   0.129360 0.250000 0.250000 0.823661
C160  C     C_R   0.129362 0.250000 0.750000 0.822409
C161  C     C_1   0.681101 0.750000 0.250001 -0.142606
C162  C     C_1   0.681102 0.750000 0.750000 -0.144898
C163  C     C_1   0.681101 0.249999 0.750000 -0.142907
C164  C     C_1   0.681102 0.249998 0.250001 -0.144272
C165  C     C_1   0.181101 0.749999 0.750000 -0.143312
C166  C     C_1   0.181102 0.749999 0.250000 -0.144974
C167  C     C_1   0.181101 0.250000 0.250001 -0.142171
C168  C     C_1   0.181102 0.249999 0.750000 -0.143804
C169  C     C_1   0.724545 0.750001 0.250001 0.006064
C170  C     C_1   0.724545 0.750000 0.750000 0.003520
C171  C     C_1   0.724545 0.250000 0.750000 0.005403
C172  C     C_1   0.724545 0.249997 0.250001 0.003515
C173  C     C_1   0.224545 0.750000 0.750000 0.005074
C174  C     C_1   0.224546 0.749999 0.250000 0.003189
C175  C     C_1   0.224545 0.250000 0.250001 0.006404
C176  C     C_1   0.224545 0.249999 0.750001 0.004099
C177  C     C_1   0.775448 0.750001 0.250000 0.007692
C178  C     C_1   0.775448 0.750000 0.750000 0.004537
C179  C     C_1   0.775448 0.250000 0.749999 0.006184
C180  C     C_1   0.775448 0.249997 0.250002 0.004080
C181  C     C_1   0.275448 0.750000 0.749999 0.005858
C182  C     C_1   0.275448 0.749999 0.250001 0.004158
C183  C     C_1   0.275448 0.250001 0.250000 0.007754
C184  C     C_1   0.275448 0.249999 0.750001 0.004866
C185  C     C_1   0.818892 0.750001 0.250000 -0.136189
C186  C     C_1   0.818891 0.750000 0.750000 -0.140096
C187  C     C_1   0.818892 0.250000 0.749999 -0.138864
C188  C     C_1   0.818891 0.249998 0.250002 -0.141536
C189  C     C_1   0.318892 0.750001 0.749999 -0.139282
C190  C     C_1   0.318891 0.750000 0.250001 -0.141276
C191  C     C_1   0.318892 0.250001 0.249999 -0.136325
C192  C     C_1   0.318891 0.250000 0.750001 -0.139882
C193  C     C_3   0.547848 0.977676 0.223834 0.177038
C194  C     C_3   0.549581 0.977658 0.771868 0.179065
C195  C     C_3   0.551712 0.021884 0.766871 0.215011
C196  C     C_3   0.551106 0.022000 0.229527 0.169601
C197  C     C_3   0.545814 0.477675 0.720519 0.177739
C198  C     C_3   0.555264 0.477756 0.254026 0.183986
C199  C     C_3   0.554070 0.522170 0.260499 0.187249
C200  C     C_3   0.549473 0.521999 0.725960 0.170713
C201  C     C_3   0.049446 0.977676 0.726906 0.177934
C202  C     C_3   0.055238 0.977598 0.251161 0.173155
C203  C     C_3   0.054486 0.022066 0.254449 0.211348
C204  C     C_3   0.052331 0.022001 0.732800 0.170572
C205  C     C_3   0.042294 0.477665 0.215831 0.181155
C206  C     C_3   0.045578 0.477786 0.777048 0.194654
C207  C     C_3   0.049770 0.521707 0.769988 0.192481
C208  C     C_3   0.046763 0.521944 0.220946 0.155481
H1    H     H_    0.453832 0.965549 0.189415 0.123028
H2    H     H_    0.464007 0.969378 0.815863 0.176092
H3    H     H_    0.466811 0.029770 0.817449 0.129826
H4    H     H_    0.473255 0.024739 0.181043 0.177271
H5    H     H_    0.449565 0.465546 0.692956 0.123509
H6    H     H_    0.494643 0.475204 0.323623 0.174271
H7    H     H_    0.473319 0.534474 0.321174 0.121385
H8    H     H_    0.468333 0.524737 0.683205 0.177326
H9    H     H_    0.957851 0.965552 0.686484 0.123138
H10   H     H_    0.997869 0.973410 0.325663 0.146546
H11   H     H_    0.982638 0.033887 0.324240 0.105176
H12   H     H_    0.977774 0.024743 0.679389 0.177217
H13   H     H_    0.943855 0.466100 0.198930 0.124093
H14   H     H_    0.955145 0.468857 0.811627 0.176838
H15   H     H_    0.961385 0.529009 0.814609 0.132421
H16   H     H_    0.961076 0.525678 0.188052 0.169042
O1    O     O_3   0.499990 0.750000 0.250000 -0.484561
O2    O     O_3   0.499990 0.750000 0.750000 -0.485288
O3    O     O_3   0.499990 0.250000 0.750000 -0.485855
O4    O     O_3   0.499990 0.250000 0.250000 -0.487062
O5    O     O_3   0.999990 0.750000 0.750000 -0.485812
O6    O     O_3   0.999990 0.750000 0.250000 -0.486883
O7    O     O_3   0.999990 0.250000 0.250000 -0.484496
O8    O     O_3   0.999990 0.250000 0.750000 -0.485895
O9    O     O_R   0.527870 0.668020 0.277880 -0.646559
O10   O     O_R   0.527870 0.668020 0.722120 -0.647022
O11   O     O_R   0.527870 0.331980 0.722120 -0.647477
O12   O     O_R   0.527870 0.331980 0.277880 -0.644567
O13   O     O_R   0.527870 0.168020 0.777880 -0.647058
O14   O     O_R   0.527870 0.168020 0.222120 -0.646772
O15   O     O_R   0.527870 0.831980 0.222120 -0.647199
O16   O     O_R   0.527870 0.831980 0.777880 -0.647794
O17   O     O_R   0.027870 0.668020 0.777880 -0.647685
O18   O     O_R   0.027870 0.668020 0.222120 -0.649118
O19   O     O_R   0.027870 0.331980 0.222120 -0.646504
O20   O     O_R   0.027870 0.331980 0.777880 -0.641920
O21   O     O_R   0.027870 0.168020 0.277880 -0.646433
O22   O     O_R   0.027870 0.168020 0.722120 -0.646801
O23   O     O_R   0.027870 0.831980 0.722120 -0.648041
O24   O     O_R   0.027870 0.831980 0.277880 -0.645369
O25   O     O_R   0.472130 0.728510 0.143730 -0.630697
O26   O     O_R   0.472130 0.728510 0.856270 -0.626608
O27   O     O_R   0.472130 0.271490 0.856270 -0.629533
O28   O     O_R   0.472130 0.271490 0.143730 -0.628386
O29   O     O_R   0.472130 0.228510 0.643730 -0.626212
O30   O     O_R   0.472130 0.228510 0.356270 -0.626567
O31   O     O_R   0.472130 0.771490 0.356270 -0.629349
O32   O     O_R   0.472130 0.771490 0.643730 -0.630020
O33   O     O_R   0.972130 0.728510 0.643730 -0.625799
O34   O     O_R   0.972130 0.728510 0.356270 -0.626181
O35   O     O_R   0.972130 0.271490 0.356270 -0.629245
O36   O     O_R   0.972130 0.271490 0.643730 -0.629805
O37   O     O_R   0.972130 0.228510 0.143730 -0.630914
O38   O     O_R   0.972130 0.228510 0.856270 -0.627477
O39   O     O_R   0.972130 0.771490 0.856270 -0.629315
O40   O     O_R   0.972130 0.771490 0.143730 -0.627956
O41   O     O_R   0.393720 0.728520 0.222140 -0.631775
O42   O     O_R   0.393720 0.728520 0.777860 -0.630741
O43   O     O_R   0.393720 0.271480 0.777860 -0.633840
O44   O     O_R   0.393720 0.271480 0.222140 -0.629561
O45   O     O_R   0.393720 0.228520 0.722140 -0.630566
O46   O     O_R   0.393720 0.228520 0.277860 -0.630983
O47   O     O_R   0.393720 0.771480 0.277860 -0.633347
O48   O     O_R   0.393720 0.771480 0.722140 -0.632898
O49   O     O_R   0.893720 0.728520 0.722140 -0.631253
O50   O     O_R   0.893720 0.728520 0.277860 -0.631300
O51   O     O_R   0.893720 0.271480 0.277860 -0.634164
O52   O     O_R   0.893720 0.271480 0.722140 -0.633551
O53   O     O_R   0.893720 0.228520 0.222140 -0.631170
O54   O     O_R   0.893720 0.228520 0.777860 -0.629560
O55   O     O_R   0.893720 0.771480 0.777860 -0.633286
O56   O     O_R   0.893720 0.771480 0.222140 -0.628930
O57   O     O_R   0.606280 0.728500 0.277860 -0.633031
O58   O     O_R   0.606280 0.728500 0.722140 -0.633729
O59   O     O_R   0.606280 0.271500 0.722140 -0.633054
O60   O     O_R   0.606280 0.271500 0.277860 -0.633170
O61   O     O_R   0.606280 0.228500 0.777860 -0.632280
O62   O     O_R   0.606280 0.228500 0.222140 -0.633729
O63   O     O_R   0.606280 0.771500 0.222140 -0.632252
O64   O     O_R   0.606280 0.771500 0.777860 -0.633437
O65   O     O_R   0.106280 0.728500 0.777860 -0.632607
O66   O     O_R   0.106280 0.728500 0.222140 -0.633860
O67   O     O_R   0.106280 0.271500 0.222140 -0.632354
O68   O     O_R   0.106280 0.271500 0.777860 -0.632051
O69   O     O_R   0.106280 0.228500 0.277860 -0.632660
O70   O     O_R   0.106280 0.228500 0.722140 -0.634025
O71   O     O_R   0.106280 0.771500 0.722140 -0.632957
O72   O     O_R   0.106280 0.771500 0.277860 -0.633831
O73   O     O_R   0.527850 0.771500 0.143710 -0.635129
O74   O     O_R   0.527850 0.771500 0.856290 -0.635971
O75   O     O_R   0.527850 0.228500 0.856290 -0.634903
O76   O     O_R   0.527850 0.228500 0.143710 -0.635196
O77   O     O_R   0.527850 0.271500 0.643710 -0.636460
O78   O     O_R   0.527850 0.271500 0.356290 -0.635953
O79   O     O_R   0.527850 0.728500 0.356290 -0.634656
O80   O     O_R   0.527850 0.728500 0.643710 -0.634915
O81   O     O_R   0.027850 0.771500 0.643710 -0.636498
O82   O     O_R   0.027850 0.771500 0.356290 -0.636106
O83   O     O_R   0.027850 0.228500 0.356290 -0.634572
O84   O     O_R   0.027850 0.228500 0.643710 -0.634607
O85   O     O_R   0.027850 0.271500 0.143710 -0.635444
O86   O     O_R   0.027850 0.271500 0.856290 -0.635945
O87   O     O_R   0.027850 0.728500 0.856290 -0.635309
O88   O     O_R   0.027850 0.728500 0.143710 -0.635529
O89   O     O_R   0.472140 0.668020 0.222150 -0.618552
O90   O     O_R   0.472140 0.668020 0.777850 -0.614353
O91   O     O_R   0.472140 0.331980 0.777850 -0.617387
O92   O     O_R   0.472140 0.331980 0.222150 -0.615016
O93   O     O_R   0.472140 0.168020 0.722150 -0.613123
O94   O     O_R   0.472140 0.168020 0.277850 -0.614130
O95   O     O_R   0.472140 0.831980 0.277850 -0.617090
O96   O     O_R   0.472140 0.831980 0.722150 -0.617150
O97   O     O_R   0.972140 0.668020 0.722150 -0.612490
O98   O     O_R   0.972140 0.668020 0.277850 -0.611064
O99   O     O_R   0.972140 0.331980 0.277850 -0.618642
O100  O     O_R   0.972140 0.331980 0.722150 -0.619453
O101  O     O_R   0.972140 0.168020 0.222150 -0.618799
O102  O     O_R   0.972140 0.168020 0.777850 -0.614055
O103  O     O_R   0.972140 0.831980 0.777850 -0.616484
O104  O     O_R   0.972140 0.831980 0.222150 -0.616858
Zn1   Zn    Zn3+2 0.539790 0.780710 0.210180 0.979768
Zn2   Zn    Zn3+2 0.539790 0.780710 0.789820 0.977667
Zn3   Zn    Zn3+2 0.539790 0.219290 0.789820 0.980331
Zn4   Zn    Zn3+2 0.539790 0.219290 0.210180 0.978109
Zn5   Zn    Zn3+2 0.539790 0.280710 0.710180 0.979096
Zn6   Zn    Zn3+2 0.539790 0.280710 0.289820 0.980165
Zn7   Zn    Zn3+2 0.539790 0.719290 0.289820 0.980200
Zn8   Zn    Zn3+2 0.539790 0.719290 0.710180 0.978019
Zn9   Zn    Zn3+2 0.039790 0.780710 0.710180 0.978856
Zn10  Zn    Zn3+2 0.039790 0.780710 0.289820 0.977718
Zn11  Zn    Zn3+2 0.039790 0.219290 0.289820 0.980990
Zn12  Zn    Zn3+2 0.039790 0.219290 0.710180 0.978504
Zn13  Zn    Zn3+2 0.039790 0.280710 0.210180 0.979809
Zn14  Zn    Zn3+2 0.039790 0.280710 0.789820 0.981597
Zn15  Zn    Zn3+2 0.039790 0.719290 0.789820 0.979380
Zn16  Zn    Zn3+2 0.039790 0.719290 0.210180 0.977460
Zn17  Zn    Zn3+2 0.460190 0.719300 0.210200 0.992484
Zn18  Zn    Zn3+2 0.460190 0.719300 0.789800 1.001246
Zn19  Zn    Zn3+2 0.460190 0.280700 0.789800 0.993690
Zn20  Zn    Zn3+2 0.460190 0.280700 0.210200 1.001890
Zn21  Zn    Zn3+2 0.460190 0.219300 0.710200 1.001567
Zn22  Zn    Zn3+2 0.460190 0.219300 0.289800 1.001749
Zn23  Zn    Zn3+2 0.460190 0.780700 0.289800 0.994896
Zn24  Zn    Zn3+2 0.460190 0.780700 0.710200 0.993849
Zn25  Zn    Zn3+2 0.960190 0.719300 0.710200 1.001742
Zn26  Zn    Zn3+2 0.960190 0.719300 0.289800 1.004455
Zn27  Zn    Zn3+2 0.960190 0.280700 0.289800 0.993975
Zn28  Zn    Zn3+2 0.960190 0.280700 0.710200 0.993529
Zn29  Zn    Zn3+2 0.960190 0.219300 0.210200 0.992527
Zn30  Zn    Zn3+2 0.960190 0.219300 0.789800 1.001068
Zn31  Zn    Zn3+2 0.960190 0.780700 0.789800 0.994259
Zn32  Zn    Zn3+2 0.960190 0.780700 0.210200 1.001279
N1    N     N_3   0.092941 0.532555 0.243179 -0.486087
H17   H     H_    0.093867 0.561111 0.248374 0.177663
H18   H     H_    0.121445 0.527042 0.219713 0.191977
N2    N     N_3   0.092471 0.531225 0.740799 -0.451490
H19   H     H_    0.095333 0.516856 0.708678 0.228341
H20   H     H_    0.092904 0.559414 0.732895 0.192944
N3    N     N_3   0.090736 0.457975 0.764871 -0.456489
H21   H     H_    0.103365 0.461191 0.730111 0.205523
H22   H     H_    0.118531 0.467479 0.787039 0.203361
N4    N     N_3   0.089346 0.460076 0.225016 -0.444946
H23   H     H_    0.113417 0.467715 0.197833 0.196949
H24   H     H_    0.086625 0.431423 0.222142 0.198930
N5    N     N_3   0.091589 0.032733 0.765681 -0.485544
H25   H     H_    0.091164 0.061299 0.770838 0.179249
H26   H     H_    0.125007 0.027222 0.749983 0.188388
N6    N     N_3   0.088880 0.038401 0.219726 -0.441167
H27   H     H_    0.087991 0.027547 0.185092 0.224056
H28   H     H_    0.085467 0.067046 0.217757 0.186515
N7    N     N_3   0.083510 0.964771 0.209438 -0.488508
H29   H     H_    0.119804 0.971520 0.214291 0.198366
H30   H     H_    0.082532 0.936001 0.207195 0.180900
N8    N     N_3   0.092838 0.960234 0.747489 -0.446429
H31   H     H_    0.122839 0.967825 0.727005 0.195974
H32   H     H_    0.090959 0.931562 0.744275 0.196924
N9    N     N_3   0.592844 0.532734 0.753185 -0.485434
H33   H     H_    0.593124 0.561301 0.758349 0.180276
H34   H     H_    0.623812 0.527223 0.733081 0.188676
N10   N     N_3   0.593231 0.540270 0.232982 -0.448181
H35   H     H_    0.597725 0.533292 0.197120 0.195223
H36   H     H_    0.591200 0.568978 0.235478 0.192280
N11   N     N_3   0.585977 0.465402 0.213629 -0.456697
H37   H     H_    0.578799 0.478822 0.181484 0.229313
H38   H     H_    0.622140 0.470696 0.221514 0.187600
N12   N     N_3   0.591608 0.460234 0.735000 -0.446214
H39   H     H_    0.618537 0.467825 0.710619 0.195969
H40   H     H_    0.589310 0.431562 0.732075 0.198032
N13   N     N_3   0.592406 0.032734 0.259804 -0.484832
H41   H     H_    0.592314 0.061300 0.264976 0.180312
H42   H     H_    0.624741 0.027223 0.241981 0.190431
N14   N     N_3   0.592259 0.032989 0.735566 -0.438461
H43   H     H_    0.594904 0.017921 0.703820 0.249884
H44   H     H_    0.590685 0.061076 0.727261 0.188554
N15   N     N_3   0.592601 0.960526 0.749805 -0.447499
H45   H     H_    0.623614 0.970591 0.766657 0.205512
H46   H     H_    0.592702 0.932076 0.755883 0.181865
N16   N     N_3   0.592480 0.960234 0.241573 -0.445445
H47   H     H_    0.621095 0.967825 0.219194 0.197857
H48   H     H_    0.590397 0.931562 0.238489 0.198127
C209  C     C_2   0.465850 0.958102 0.341818 1.049596
O105  O     O_2   0.462477 0.968373 0.383698 -0.600972
O106  O     O_R   0.438835 0.927593 0.327167 -0.800685
H49   H     H_    0.417447 0.917515 0.353640 0.353620
C210  C     C_2   0.460105 0.958406 0.660108 0.941875
O107  O     O_2   0.455276 0.968109 0.618166 -0.601291
O108  O     O_R   0.433459 0.928249 0.676638 -0.819556
H50   H     H_    0.410728 0.918045 0.651393 0.359108
C211  C     C_2   0.442347 0.037549 0.674372 0.975709
O109  O     O_2   0.438904 0.070242 0.663859 -0.618367
O110  O     O_R   0.401118 0.015671 0.670861 -0.804171
H51   H     H_    0.371911 0.029852 0.659193 0.356425
C212  C     C_2   0.442776 0.034976 0.324096 0.963717
O111  O     O_2   0.435928 0.067712 0.332595 -0.623390
O112  O     O_R   0.403646 0.010951 0.328786 -0.789046
H52   H     H_    0.373165 0.023781 0.339857 0.349244
C213  C     C_2   0.472521 0.458104 0.844098 1.048263
O113  O     O_2   0.472168 0.468377 0.886111 -0.606316
O114  O     O_R   0.444528 0.427592 0.831430 -0.800364
H53   H     H_    0.425100 0.417515 0.859374 0.353540
C214  C     C_2   0.424924 0.464017 0.193642 0.906014
O115  O     O_2   0.417219 0.431527 0.184383 -0.626575
O116  O     O_R   0.385386 0.487070 0.201912 -0.782197
H54   H     H_    0.353419 0.473839 0.198505 0.348910
C215  C     C_2   0.440378 0.541652 0.171885 1.012236
O117  O     O_2   0.425440 0.531357 0.132643 -0.618329
O118  O     O_R   0.418669 0.572210 0.193509 -0.797998
H55   H     H_    0.390648 0.582255 0.174163 0.353533
C216  C     C_2   0.448231 0.534980 0.828078 0.962823
O119  O     O_2   0.442011 0.567716 0.837042 -0.624301
O120  O     O_R   0.409542 0.510954 0.835578 -0.788395
H56   H     H_    0.379937 0.523785 0.848814 0.349649
C217  C     C_2   0.959996 0.958100 0.839346 1.049844
O121  O     O_2   0.953928 0.968369 0.880922 -0.603601
O122  O     O_R   0.933979 0.927595 0.822978 -0.800483
H57   H     H_    0.910926 0.917517 0.848015 0.353684
C218  C     C_2   0.921419 0.963073 0.200829 1.025435
O123  O     O_2   0.911442 0.933887 0.180998 -0.607525
O124  O     O_R   0.884678 0.982131 0.224638 -0.771335
H58   H     H_    0.852396 0.969202 0.222467 0.348333
C219  C     C_2   0.929137 0.040263 0.182018 0.997224
O125  O     O_2   0.907581 0.028331 0.146858 -0.610469
O126  O     O_R   0.911737 0.072137 0.204298 -0.802731
H59   H     H_    0.880445 0.081219 0.189745 0.351527
C220  C     C_2   0.938117 0.034974 0.820175 0.962833
O127  O     O_2   0.930735 0.067709 0.828217 -0.623998
O128  O     O_R   0.898765 0.010948 0.822324 -0.789074
H60   H     H_    0.867632 0.023778 0.831403 0.349103
C221  C     C_2   0.983487 0.457986 0.346875 1.049419
O129  O     O_2   0.988012 0.468165 0.388686 -0.601225
O130  O     O_R   0.954156 0.427535 0.337419 -0.801207
H61   H     H_    0.938092 0.417397 0.367389 0.354129
C222  C     C_2   0.964109 0.458611 0.657534 0.947816
O131  O     O_2   0.961258 0.468682 0.615554 -0.595527
O132  O     O_R   0.937704 0.427709 0.671970 -0.826281
H62   H     H_    0.916432 0.417564 0.645445 0.358567
C223  C     C_2   0.946767 0.538389 0.670349 0.976133
O133  O     O_2   0.944427 0.571333 0.660911 -0.618678
O134  O     O_R   0.905805 0.516922 0.662431 -0.804039
H63   H     H_    0.877758 0.531606 0.649093 0.357008
C224  C     C_2   0.956898 0.534877 0.333267 0.983306
O135  O     O_2   0.950996 0.567734 0.341649 -0.618003
O136  O     O_R   0.919925 0.510615 0.346184 -0.789846
H64   H     H_    0.891734 0.523437 0.362227 0.349477
N17   N     N_3   0.548884 0.967718 0.330366 -0.468639
H65   H     H_    0.577877 0.982588 0.317426 0.234107
H66   H     H_    0.549113 0.972956 0.367423 0.213112
N18   N     N_3   0.544424 0.968064 0.668185 -0.446779
H67   H     H_    0.544554 0.974822 0.631597 0.212326
H68   H     H_    0.549457 0.939459 0.669122 0.190256
N19   N     N_3   0.527555 0.038912 0.658928 -0.482225
H69   H     H_    0.528730 0.067639 0.661755 0.214494
H70   H     H_    0.517933 0.033236 0.623252 0.211153
N20   N     N_3   0.526112 0.040794 0.342404 -0.448341
H71   H     H_    0.562577 0.036097 0.338114 0.195822
H72   H     H_    0.522518 0.069479 0.341346 0.221630
N21   N     N_3   0.554516 0.467720 0.826701 -0.469679
H73   H     H_    0.582502 0.482590 0.811706 0.233827
H74   H     H_    0.557411 0.472960 0.863644 0.211260
N22   N     N_3   0.502531 0.460479 0.155502 -0.464585
H75   H     H_    0.483774 0.466344 0.123725 0.214272
H76   H     H_    0.503576 0.431748 0.158197 0.226835
N23   N     N_3   0.523736 0.531231 0.159761 -0.498610
H77   H     H_    0.529092 0.559815 0.158990 0.175801
H78   H     H_    0.515034 0.524030 0.124366 0.218450
N24   N     N_3   0.532668 0.540798 0.840341 -0.450415
H79   H     H_    0.568730 0.536099 0.833439 0.195213
H80   H     H_    0.529008 0.569483 0.839540 0.220643
N25   N     N_3   0.043598 0.967715 0.833282 -0.469166
H81   H     H_    0.073367 0.982587 0.822242 0.233706
H82   H     H_    0.041433 0.972951 0.870276 0.212204
N26   N     N_3   0.995120 0.960753 0.155672 -0.436385
H83   H     H_    0.029064 0.970536 0.146521 0.226609
H84   H     H_    0.998062 0.932101 0.158446 0.218880
N27   N     N_3   0.010192 0.033526 0.157242 -0.500914
H85   H     H_    0.013557 0.062273 0.156393 0.182670
H86   H     H_    0.996262 0.026094 0.123582 0.225491
N28   N     N_3   0.020097 0.040790 0.843830 -0.449495
H87   H     H_    0.056763 0.036096 0.841900 0.195226
H88   H     H_    0.016576 0.069475 0.842549 0.221612
N29   N     N_3   0.062925 0.467795 0.320237 -0.469101
H89   H     H_    0.088928 0.482841 0.302276 0.234992
H90   H     H_    0.069991 0.472928 0.356639 0.212902
N30   N     N_3   0.047477 0.467643 0.670058 -0.488488
H91   H     H_    0.049760 0.474685 0.633628 0.218518
H92   H     H_    0.051770 0.438955 0.670905 0.183702
N31   N     N_3   0.032658 0.538836 0.660394 -0.483080
H93   H     H_    0.034272 0.567526 0.663634 0.214011
H94   H     H_    0.025136 0.533459 0.624138 0.211364
N32   N     N_3   0.042265 0.540740 0.336828 -0.452947
H95   H     H_    0.077317 0.536452 0.325596 0.196846
H96   H     H_    0.038108 0.569393 0.336904 0.215785
N33   N     N_3   0.410036 0.968080 0.249133 -0.354713
H97   H     H_    0.381405 0.977920 0.228383 0.204824
H98   H     H_    0.406343 0.939449 0.246695 0.222952
N34   N     N_3   0.410435 0.963721 0.766395 -0.440927
H99   H     H_    0.410499 0.934956 0.768593 0.224267
H100  H     H_    0.399237 0.971630 0.732379 0.294150
N35   N     N_3   0.411878 0.037906 0.769197 -0.405087
H101  H     H_    0.387206 0.028279 0.794718 0.207498
H102  H     H_    0.413245 0.066380 0.774836 0.194956
N36   N     N_3   0.414442 0.041090 0.217869 -0.459351
H103  H     H_    0.419625 0.068422 0.207114 0.199036
H104  H     H_    0.396162 0.041037 0.250361 0.241154
N37   N     N_3   0.410182 0.468079 0.755673 -0.354050
H105  H     H_    0.380131 0.477917 0.737036 0.205759
H106  H     H_    0.406324 0.439448 0.753509 0.223983
N38   N     N_3   0.427715 0.458873 0.305130 -0.457110
H107  H     H_    0.436428 0.432261 0.316718 0.192127
H108  H     H_    0.402627 0.456552 0.277755 0.242280
N39   N     N_3   0.414349 0.531580 0.276286 -0.348570
H109  H     H_    0.392752 0.521475 0.304118 0.206911
H110  H     H_    0.411207 0.560179 0.279886 0.221569
N40   N     N_3   0.412323 0.541089 0.724168 -0.458464
H111  H     H_    0.416718 0.568421 0.713072 0.199539
H112  H     H_    0.396427 0.541032 0.757891 0.241508
N41   N     N_3   0.910288 0.968081 0.743248 -0.354549
H113  H     H_    0.883057 0.977922 0.720692 0.205328
H114  H     H_    0.906759 0.939450 0.740574 0.222807
N42   N     N_3   0.928716 0.959974 0.305093 -0.389898
H115  H     H_    0.917556 0.968298 0.339355 0.173404
H116  H     H_    0.934635 0.931716 0.309170 0.189086
N43   N     N_3   0.918290 0.033811 0.287788 -0.331224
H117  H     H_    0.900271 0.025260 0.318807 0.188870
H118  H     H_    0.917503 0.062527 0.290990 0.216224
N44   N     N_3   0.916706 0.041094 0.712341 -0.459245
H119  H     H_    0.922574 0.068426 0.701948 0.198873
H120  H     H_    0.896364 0.041037 0.743583 0.241160
N45   N     N_3   0.911234 0.467668 0.265343 -0.362521
H121  H     H_    0.879313 0.476341 0.248953 0.175982
H122  H     H_    0.908301 0.438949 0.264156 0.233076
N46   N     N_3   0.907477 0.464326 0.757091 -0.443603
H123  H     H_    0.907120 0.435524 0.758224 0.227030
H124  H     H_    0.899050 0.473183 0.722728 0.291540
N47   N     N_3   0.909949 0.538665 0.762986 -0.407674
H125  H     H_    0.883345 0.528764 0.786291 0.207442
H126  H     H_    0.911441 0.566981 0.769828 0.194814
N48   N     N_3   0.911629 0.542751 0.237252 -0.431986
H127  H     H_    0.894437 0.534994 0.268823 0.240416
H128  H     H_    0.886891 0.537886 0.209570 0.174055
N49   N     N_3   0.544642 0.967043 0.172283 -0.477615
H129  H     H_    0.537580 0.938883 0.168494 0.183637
H130  H     H_    0.519080 0.981585 0.152554 0.184772
N50   N     N_3   0.549404 0.966951 0.823373 -0.499885
H131  H     H_    0.582531 0.973533 0.839095 0.208539
H132  H     H_    0.546160 0.938354 0.826824 0.181726
N51   N     N_3   0.562849 0.038602 0.814258 -0.447788
H133  H     H_    0.567189 0.067160 0.811479 0.197962
H134  H     H_    0.537224 0.033436 0.840722 0.180745
N52   N     N_3   0.558457 0.039077 0.181616 -0.483895
H135  H     H_    0.589895 0.028534 0.166095 0.204023
H136  H     H_    0.564335 0.067433 0.185010 0.192537
N53   N     N_3   0.538906 0.467041 0.669333 -0.478830
H137  H     H_    0.531593 0.438881 0.666062 0.182903
H138  H     H_    0.511989 0.481581 0.651494 0.184775
N54   N     N_3   0.575794 0.460715 0.297931 -0.477954
H139  H     H_    0.610256 0.471377 0.304071 0.211532
H140  H     H_    0.580881 0.432421 0.292696 0.203368
N55   N     N_3   0.565136 0.532214 0.311111 -0.445036
H141  H     H_    0.559792 0.560371 0.317170 0.189392
H142  H     H_    0.546211 0.517635 0.337195 0.177226
N56   N     N_3   0.553356 0.539074 0.677643 -0.484582
H143  H     H_    0.583594 0.528529 0.659900 0.202403
H144  H     H_    0.559465 0.567430 0.680602 0.191982
N57   N     N_3   0.049575 0.967045 0.675255 -0.478527
H145  H     H_    0.042768 0.938886 0.671017 0.183606
H146  H     H_    0.025343 0.981589 0.653916 0.184518
N58   N     N_3   0.078309 0.961900 0.294730 -0.484311
H147  H     H_    0.113779 0.971423 0.297206 0.210786
H148  H     H_    0.081048 0.933226 0.291995 0.191500
N59   N     N_3   0.072761 0.033970 0.302122 -0.445715
H149  H     H_    0.069380 0.062457 0.306709 0.190898
H150  H     H_    0.056351 0.020839 0.331181 0.179887
N60   N     N_3   0.062760 0.039079 0.685465 -0.484140
H151  H     H_    0.095135 0.028538 0.672006 0.202720
H152  H     H_    0.068404 0.067436 0.689233 0.192172
N61   N     N_3   0.029594 0.467202 0.165709 -0.479018
H153  H     H_    0.021511 0.439120 0.163198 0.181326
H154  H     H_    0.001088 0.482074 0.151053 0.184342
N62   N     N_3   0.037032 0.469454 0.828611 -0.491434
H155  H     H_    0.067210 0.476372 0.849256 0.209627
H156  H     H_    0.032907 0.441002 0.833252 0.192720
N63   N     N_3   0.058607 0.539599 0.817184 -0.447220
H157  H     H_    0.066810 0.567562 0.812990 0.199040
H158  H     H_    0.029821 0.537890 0.841008 0.177845
N64   N     N_3   0.045262 0.539127 0.172560 -0.483979
H159  H     H_    0.073257 0.528540 0.151489 0.203375
H160  H     H_    0.051836 0.567457 0.174903 0.189305

loop_
_geom_bond_atom_site_label_1
_geom_bond_atom_site_label_2
_ccdc_geom_bond_type
C211  O110  S    
O130  H61   S    
N51   H134  S    
C213  O113  D    
C52   C196  S    
O79   Zn7   S    
N59   H149  S    
C50   C79   S    
C4    O92   A    
C150  C185  S    
N18   H68   S    
C79   N34   S    
C5    O93   A    
C216  O119  D    
O7    Zn27  S    
C32   N32   S    
C6    O14   A    
C7    O95   A    
N8    H31   S    
C170  C178  S    
N45   H121  S    
C195  N14   S    
O6    Zn16  S    
N15   H46   S    
C102  C132  S    
C207  N2    S    
N9    H33   S    
C27   N27   S    
C69   N44   S    
O2    Zn18  S    
O10   Zn8   S    
N40   H111  S    
O93   Zn21  S    
O63   Zn1   S    
C2    C41   S    
N63   H157  S    
C22   C214  S    
N50   H132  S    
N36   H103  S    
C221  O129  D    
N55   H141  S    
C3    O11   A    
C55   C74   S    
C76   H5    S    
C55   C199  S    
C1    O9    A    
C219  O126  S    
C198  N54   S    
C2    O90   A    
N53   H138  S    
C39   C87   T    
C155  O61   A    
C48   C96   T    
C44   C92   T    
O99   Zn27  S    
O53   Zn29  S    
C148  C191  S    
C222  O132  S    
C149  C186  S    
C210  O108  S    
O95   Zn23  S    
N23   H78   S    
C13   O101  A    
C108  C124  T    
C152  C187  S    
C21   C213  S    
C203  N59   S    
O8    Zn28  S    
O37   Zn29  S    
C16   O24   A    
C198  N11   S    
C129  O25   A    
C166  C174  T    
C51   C78   S    
C202  C203  S    
N47   H125  S    
C112  C138  S    
O13   Zn3   S    
N58   H147  S    
O71   Zn9   S    
N55   H142  S    
C152  O52   A    
O41   Zn17  S    
N29   H90   S    
O4    Zn6   S    
C206  C207  S    
N28   H87   S    
C224  O135  D    
O1    Zn23  S    
C153  C161  S    
O114  H53   S    
O7    Zn29  S    
C23   C215  S    
C206  N3    S    
C157  O65   A    
N60   H152  S    
N26   H84   S    
C60   C85   S    
C65   C68   S    
N30   H91   S    
O30   Zn22  S    
C202  N7    S    
O5    Zn31  S    
O66   Zn16  S    
C199  N55   S    
O90   Zn18  S    
C49   C193  S    
C25   C217  S    
O3    Zn5   S    
C27   C219  S    
C147  O43   A    
N46   H123  S    
N63   H158  S    
C9    O17   A    
O29   Zn21  S    
N37   H106  S    
C9    C34   S    
N16   H48   S    
C154  O58   A    
C158  O66   A    
C157  C165  S    
C52   C77   S    
O112  H52   S    
O19   Zn13  S    
C175  C183  S    
C176  C184  S    
C56   C73   S    
C140  O36   A    
C78   C79   S    
C141  O37   A    
C159  O69   A    
N58   H148  S    
N54   H139  S    
C131  O27   A    
C61   C84   S    
O2    Zn24  S    
C196  N52   S    
O102  Zn30  S    
C23   C55   S    
N32   H95   S    
O61   Zn3   S    
C4    C43   S    
C137  O33   A    
C24   C56   S    
C5    C46   S    
O54   Zn30  S    
C49   C80   S    
C53   C197  S    
C7    C48   S    
O80   Zn8   S    
N13   H42   S    
C8    C47   S    
O97   Zn25  S    
C51   C195  S    
O64   Zn2   S    
C14   O102  A    
C40   C88   T    
C30   C31   S    
N42   H116  S    
C111  C137  S    
C59   C86   S    
C129  O73   A    
N22   H75   S    
C11   O99   A    
C30   N30   S    
C160  C168  S    
C155  O59   A    
N53   H137  S    
O23   Zn9   S    
C98   C114  T    
N12   H39   S    
C178  C186  T    
C54   C91   S    
O42   Zn18  S    
C21   C24   S    
C22   C23   S    
C182  C190  T    
O88   Zn16  S    
C42   C90   T    
C199  N10   S    
C62   C206  S    
C65   H16   S    
C206  N62   S    
C56   C200  S    
C79   H2    S    
N52   H136  S    
C138  O34   A    
N61   H153  S    
C145  C190  S    
C69   H12   S    
C11   O19   A    
O110  H51   S    
C18   C50   S    
C21   N21   S    
C174  C182  S    
O28   Zn20  S    
N4    H23   S    
C123  C124  S    
C22   C54   S    
C214  O115  D    
C71   H10   S    
C130  O74   A    
O22   Zn12  S    
N38   H108  S    
C55   C90   S    
N56   H144  S    
C115  C116  S    
C24   N24   S    
N26   H83   S    
O14   Zn4   S    
O27   Zn19  S    
O3    Zn3   S    
C60   C204  S    
O55   Zn31  S    
O134  H63   S    
C159  C167  S    
N10   H35   S    
C12   O20   A    
O52   Zn28  S    
C153  O63   A    
C216  O120  S    
C73   H8    S    
C154  O64   A    
C107  C141  S    
C15   O103  A    
C161  C169  T    
C6    O94   A    
C66   C67   S    
C196  N13   S    
O87   Zn15  S    
C4    O12   A    
C171  C179  S    
C194  N15   S    
C218  O123  D    
C25   C57   S    
C160  O68   A    
C169  C177  S    
N57   H146  S    
C100  C134  S    
N41   H113  S    
C150  O56   A    
C8    O16   A    
N24   H80   S    
C3    C44   S    
C63   C82   S    
N10   H36   S    
C31   C63   S    
C29   C221  S    
C32   C64   S    
C17   C49   S    
C31   N31   S    
C59   C70   S    
C155  C163  S    
C139  O35   A    
N25   H82   S    
C62   C83   S    
C3    O91   A    
C69   C72   S    
C68   N45   S    
O3    Zn21  S    
N21   H73   S    
O43   Zn19  S    
O62   Zn4   S    
O116  H54   S    
C46   C94   T    
C193  C196  S    
C17   C209  S    
N62   H155  S    
C106  C122  T    
C52   C93   S    
C12   C35   S    
N64   H160  S    
N33   H98   S    
C58   C202  S    
C13   C38   S    
C76   N37   S    
C110  C126  T    
C205  N61   S    
C56   C89   S    
C140  O84   A    
N34   H100  S    
C141  O85   A    
C65   N48   S    
C164  C172  T    
O8    Zn12  S    
N31   H93   S    
C137  O81   A    
C167  C175  T    
C168  C176  T    
N48   H127  S    
C132  O76   A    
O57   Zn7   S    
O25   Zn17  S    
C73   N40   S    
C154  C162  S    
O1    Zn1   S    
C66   H15   S    
O59   Zn5   S    
C143  O87   A    
N27   H85   S    
C144  O88   A    
N17   H66   S    
O7    Zn13  S    
C220  O128  S    
C70   H11   S    
O31   Zn23  S    
C101  C117  T    
C209  O105  D    
C117  C118  S    
N40   H112  S    
C60   C69   S    
O5    Zn15  S    
C223  O134  S    
C10   C33   S    
N36   H104  S    
C149  O55   A    
C64   C81   S    
N51   H133  S    
C138  O82   A    
O34   Zn26  S    
C219  O125  D    
C77   N36   S    
C57   C201  S    
C193  N16   S    
C97   C135  S    
O69   Zn11  S    
C63   C207  S    
C34   C82   T    
C217  O122  S    
N9    H34   S    
C151  O51   A    
C203  N6    S    
C61   C205  S    
C13   O21   A    
C72   N41   S    
C210  O107  D    
C6    C45   S    
C194  N50   S    
C74   H7    S    
C213  O114  S    
C41   C89   T    
N19   H69   S    
C100  C116  T    
C107  C123  T    
N21   H74   S    
N7    H29   S    
N43   H118  S    
C25   C28   S    
N1    H18   S    
C26   C27   S    
C212  O111  D    
C5    O13   A    
C78   N35   S    
C32   C224  S    
C103  C119  T    
O3    Zn19  S    
C29   C32   S    
N5    H26   S    
N48   H128  S    
C99   C115  T    
N29   H89   S    
C58   C71   S    
N49   H130  S    
C179  C187  T    
C71   N42   S    
N28   H88   S    
C148  O44   A    
C17   C20   S    
C177  C185  T    
N11   H38   S    
C18   C19   S    
O84   Zn12  S    
C180  C188  T    
C77   H4    S    
C181  C189  T    
C2    O10   A    
N15   H45   S    
C208  N64   S    
C215  O118  S    
N30   H92   S    
C184  C192  T    
C146  C189  S    
C70   C71   S    
C201  N8    S    
C163  C171  T    
C28   C220  S    
C67   N46   S    
C172  C180  S    
N46   H124  S    
C194  C195  S    
C151  O53   A    
C63   C66   S    
C173  C181  S    
O128  H60   S    
C18   C210  S    
C104  C130  S    
N37   H105  S    
C221  O130  S    
C131  O75   A    
C151  C188  S    
C133  O77   A    
N18   H67   S    
N57   H145  S    
C224  O136  S    
O75   Zn3   S    
C9    O97   A    
O11   Zn5   S    
O74   Zn2   S    
O124  H58   S    
O72   Zn10  S    
C26   N26   S    
C22   N22   S    
O96   Zn24  S    
N54   H140  S    
C204  N60   S    
O86   Zn14  S    
O51   Zn27  S    
N14   H43   S    
N32   H96   S    
O5    Zn9   S    
C222  O131  D    
O58   Zn8   S    
O132  H62   S    
C202  N58   S    
N50   H131  S    
O39   Zn31  S    
C149  O49   A    
C197  C200  S    
O136  H64   S    
O18   Zn16  S    
O8    Zn30  S    
C162  C170  T    
C18   N18   S    
O32   Zn24  S    
N22   H76   S    
O16   Zn2   S    
C146  O48   A    
N3    H22   S    
O12   Zn6   S    
O91   Zn19  S    
C26   C58   S    
C121  C122  S    
N12   H40   S    
C101  C131  S    
O126  H59   S    
C38   C86   T    
C30   C62   S    
C125  C126  S    
C73   C76   S    
O1    Zn17  S    
C53   C76   S    
C143  O39   A    
N44   H119  S    
C133  O29   A    
C127  C128  S    
C144  O40   A    
O83   Zn11  S    
O118  H55   S    
C158  C166  S    
C156  O60   A    
C113  C114  S    
C77   C80   S    
C201  N57   S    
O33   Zn25  S    
N35   H102  S    
O103  Zn31  S    
N42   H115  S    
C35   C83   T    
O70   Zn12  S    
C208  N1    S    
O44   Zn20  S    
N31   H94   S    
C135  O79   A    
N4    H24   S    
C119  C120  S    
C136  O80   A    
N44   H120  S    
O101  Zn29  S    
O77   Zn5   S    
C145  O47   A    
O68   Zn14  S    
C64   C65   S    
C157  O71   A    
C158  O72   A    
C200  N9    S    
C147  O45   A    
C14   C37   S    
O6    Zn32  S    
C50   C194  S    
N60   H151  S    
O40   Zn32  S    
C207  N63   S    
C26   C218  S    
N2    H20   S    
C19   C51   S    
O56   Zn32  S    
C10   O98   A    
C57   C72   S    
O24   Zn10  S    
C159  O67   A    
C15   C40   S    
C112  C128  T    
C16   C39   S    
O73   Zn1   S    
C59   C203  S    
C1    C42   S    
O4    Zn20  S    
O20   Zn14  S    
N20   H71   S    
O106  H49   S    
N16   H47   S    
O85   Zn13  S    
C142  O38   A    
C135  O31   A    
N13   H41   S    
C78   H3    S    
C80   H1    S    
C104  C120  T    
O6    Zn26  S    
C29   C61   S    
C150  O50   A    
C1    O89   A    
N39   H110  S    
O4    Zn4   S    
C66   N47   S    
C204  N5    S    
C10   O18   A    
O120  H56   S    
C58   C87   S    
C156  O62   A    
C211  O109  D    
N49   H129  S    
C17   N17   S    
N11   H37   S    
C70   N43   S    
N2    H19   S    
C72   H9    S    
C64   C208  S    
O89   Zn17  S    
C62   C67   S    
C8    O96   A    
C37   C85   T    
C11   C36   S    
C74   N39   S    
N59   H150  S    
O47   Zn23  S    
C50   C95   S    
N7    H30   S    
C139  O83   A    
C165  C173  T    
N35   H101  S    
C98   C136  S    
C99   C133  S    
C146  O42   A    
N25   H81   S    
O81   Zn9   S    
O76   Zn4   S    
N41   H114  S    
C24   C216  S    
O2    Zn2   S    
O82   Zn10  S    
N62   H156  S    
N23   H77   S    
C198  C199  S    
C25   N25   S    
N34   H99   S    
C209  O106  S    
N33   H97   S    
C102  C118  T    
C75   N38   S    
C110  C140  S    
O38   Zn30  S    
N52   H135  S    
C212  O112  S    
C197  N53   S    
C220  O127  D    
O5    Zn25  S    
C108  C142  S    
O9    Zn7   S    
N45   H122  S    
N47   H126  S    
O92   Zn20  S    
C193  N49   S    
O48   Zn24  S    
C74   C75   S    
C214  O116  S    
C153  O57   A    
C148  O46   A    
O21   Zn11  S    
N38   H107  S    
C134  O30   A    
N14   H44   S    
N43   H117  S    
O78   Zn6   S    
N56   H143  S    
O104  Zn32  S    
N17   H65   S    
C43   C91   T    
C205  N4    S    
O45   Zn21  S    
N6    H28   S    
C67   H14   S    
O100  Zn28  S    
C28   N28   S    
C218  O124  S    
C160  O70   A    
N3    H21   S    
C103  C129  S    
O108  H50   S    
C16   O104  A    
O4    Zn22  S    
C147  C192  S    
O15   Zn1   S    
C53   C92   S    
C223  O133  D    
C105  C121  T    
O1    Zn7   S    
C20   C212  S    
C12   O100  A    
C28   C60   S    
C152  O54   A    
C109  C125  T    
C7    O15   A    
C45   C93   T    
O94   Zn22  S    
C111  C127  T    
C201  C204  S    
O17   Zn15  S    
C130  O26   A    
C97   C113  T    
N39   H109  S    
C20   N20   S    
N6    H27   S    
C132  O28   A    
C19   C211  S    
C205  C208  S    
N24   H79   S    
N8    H32   S    
O26   Zn18  S    
C136  O32   A    
O6    Zn10  S    
C15   O23   A    
C183  C191  T    
C105  C143  S    
C145  O41   A    
N19   H70   S    
C106  C144  S    
C68   H13   S    
O50   Zn26  S    
N1    H17   S    
C75   H6    S    
N20   H72   S    
C54   C198  S    
C57   C88   S    
C109  C139  S    
C23   N23   S    
O36   Zn28  S    
O65   Zn15  S    
N27   H86   S    
O8    Zn14  S    
O122  H57   S    
C20   C52   S    
C27   C59   S    
N5    H25   S    
C21   C53   S    
C31   C223  S    
O67   Zn13  S    
C61   C68   S    
O2    Zn8   S    
C217  O121  D    
C33   C81   T    
C36   C84   T    
C29   N29   S    
C142  O86   A    
O46   Zn22  S    
C195  N51   S    
C49   C96   S    
N64   H159  S    
C51   C94   S    
C80   N33   S    
O35   Zn27  S    
O98   Zn26  S    
C19   N19   S    
O60   Zn6   S    
C156  C164  S    
N61   H154  S    
C215  O117  D    
O7    Zn11  S    
C47   C95   T    
C200  N56   S    
C134  O78   A    
C30   C222  S    
O49   Zn25  S    
C197  N12   S    
C54   C75   S    
C14   O22   A    
