data_mof_unit_pretest_298.cif
_audit_creation_date              2013-03-05T16:03:41-0500
_audit_creation_method            fapswitch 2.2
_symmetry_space_group_name_H-M    P1
_symmetry_Int_Tables_number       1
_space_group_crystal_system       triclinic
_cell_length_a                    8.717949
_cell_length_b                    10.835694
_cell_length_c                    9.620447
_cell_angle_alpha                 89.955176
_cell_angle_beta                  97.232427
_cell_angle_gamma                 91.749513
_cell_volume                      901.140498856

loop_
_atom_site_label
_atom_site_type_symbol
_atom_site_description
_atom_site_fract_x
_atom_site_fract_y
_atom_site_fract_z
_atom_type_partial_charge
O1    O     O_R   0.499990 0.319660 0.618740 -0.569378
O2    O     O_R   0.500010 0.680340 0.381260 -0.569394
O3    O     O_R   0.499990 0.319630 0.381170 -0.560254
O4    O     O_R   0.500010 0.680370 0.618830 -0.560250
C1    C     C_R   0.500983 0.262402 0.500096 0.823522
C2    C     C_R   0.499017 0.737598 0.499904 0.823515
O5    O     O_R   0.274840 0.500010 0.591370 -0.550832
O6    O     O_R   0.725160 0.499990 0.408630 -0.550828
O7    O     O_R   0.274830 0.499980 0.353800 -0.531428
O8    O     O_R   0.725170 0.500020 0.646200 -0.531431
C3    C     C_R   0.204521 0.495195 0.465598 0.861494
C4    C     C_R   0.795478 0.504805 0.534402 0.861491
Cu1   Cu    Cu3+1 0.500000 0.500020 0.640660 1.098879
Cu2   Cu    Cu3+1 0.500000 0.499980 0.359340 1.098877
N1    N     N_R   0.500040 0.500030 0.852080 -0.315795
N2    N     N_R   0.499960 0.499970 0.147920 -0.315796
C5    C     C_2   0.040901 0.470982 0.455588 0.077885
C6    C     C_2   0.959099 0.529016 0.544413 0.077878
C7    C     C_R   0.496999 0.063824 0.373531 -0.091599
C8    C     C_R   0.503002 0.936176 0.626470 -0.091600
H1    H     H_    0.495744 0.111488 0.274579 0.207617
H2    H     H_    0.504257 0.888512 0.725421 0.207616
C9    C     C_R   0.493705 0.936121 0.373236 -0.103170
C10   C     C_R   0.506296 0.063879 0.626764 -0.103165
H3    H     H_    0.487248 0.888387 0.273865 0.206139
H4    H     H_    0.512753 0.111613 0.726135 0.206136
C11   C     C_R   0.498085 0.871602 0.499813 -0.042010
C12   C     C_R   0.501915 0.128398 0.500187 -0.042008
C13   C     C_R   0.389188 0.434513 0.061032 0.286774
C14   C     C_R   0.610812 0.565487 0.938968 0.286780
C15   C     C_R   0.389815 0.433899 0.913065 0.308897
C16   C     C_R   0.610182 0.566104 0.086934 0.308901
Br1   Br    Br    0.962705 0.325489 0.350497 -0.324717
Br2   Br    Br    0.037294 0.674508 0.649507 -0.324717
N3    N     N_R   0.267508 0.368325 0.117578 0.186971
O9    O     O_R   0.128495 0.410537 0.095890 -0.220182
O10   O     O_R   0.284849 0.252990 0.151301 -0.320248
N4    N     N_R   0.732496 0.631672 0.882424 0.186976
O11   O     O_R   0.871509 0.589465 0.904128 -0.220182
O12   O     O_R   0.715154 0.747002 0.848686 -0.320235
N5    N     N_R   0.275494 0.360080 0.828546 0.178009
O13   O     O_R   0.134384 0.397821 0.806011 -0.270202
O14   O     O_R   0.299606 0.243491 0.812347 -0.336364
N6    N     N_R   0.724491 0.639937 0.171452 0.178003
O15   O     O_R   0.865601 0.602190 0.194025 -0.270215
O16   O     O_R   0.700383 0.756538 0.187590 -0.336359

loop_
_geom_bond_atom_site_label_1
_geom_bond_atom_site_label_2
_geom_bond_distance
_ccdc_geom_bond_type
C14   C16   1.424225 A    
O7    Cu2   1.957026 S    
N1    C15   1.371259 A    
C8    C11   1.400891 A    
C9    C11   1.400594 A    
N2    C16   1.371258 A    
C1    C12   1.452296 S    
C6    Br2   1.932785 S    
N5    O13   1.300394 A    
C13   N3    1.426124 S    
C7    C9    1.383171 A    
N3    O9    1.300571 A    
O6    C4    1.286071 A    
O3    C1    1.300129 A    
Cu1   N1    2.033912 S    
C5    C6    1.347557 D    
C16   N6    1.429195 S    
C13   C15   1.424227 A    
Cu1   Cu2   2.706425 S    
O5    C3    1.286069 A    
C7    C12   1.400891 A    
N5    O14   1.299707 A    
O7    C3    1.303514 A    
O2    C2    1.300674 A    
O3    Cu2   1.965305 S    
O8    C4    1.303514 A    
O1    C1    1.300672 A    
C5    Br1   1.932785 S    
N4    O12   1.299414 A    
C10   H4    1.081692 S    
C9    H3    1.081692 S    
N4    O11   1.300562 A    
O2    Cu2   1.965832 S    
Cu2   N2    2.033910 S    
O1    Cu1   1.965830 S    
C8    H2    1.081682 S    
C10   C12   1.400595 A    
O5    Cu1   1.960507 S    
N6    O15   1.300438 A    
C14   N4    1.426125 S    
N1    C14   1.374860 A    
O4    C2    1.300129 A    
C4    C6    1.433673 S    
O4    Cu1   1.965306 S    
C8    C10   1.383172 A    
C3    C5    1.433675 S    
O6    Cu2   1.960505 S    
C15   N5    1.429182 S    
N3    O10   1.299428 A    
N2    C13   1.374859 A    
C2    C11   1.452296 S    
N6    O16   1.299736 A    
C7    H1    1.081682 S    
O8    Cu1   1.957024 S    
