data_mof_unit_pretest_992.cif
_audit_creation_date              2012-12-10T22:11:09-0500
_audit_creation_method            fapswitch 2.2
_symmetry_space_group_name_H-M    P1
_symmetry_Int_Tables_number       1
_space_group_crystal_system       triclinic
_cell_length_a                    12.109262
_cell_length_b                    12.338346
_cell_length_c                    22.918837
_cell_angle_alpha                 90.82122
_cell_angle_beta                  90.201837
_cell_angle_gamma                 91.948007
_cell_volume                      3421.9056533

loop_
_atom_site_label
_atom_site_type_symbol
_atom_type_description
_atom_site_fract_x
_atom_site_fract_y
_atom_site_fract_z
_atom_type_partial_charge
C1    C     C_R   0.656673 0.998844 0.579213 0.864039
C2    C     C_R   0.343328 0.001156 0.420785 0.864018
C3    C     C_R   0.904740 0.775855 0.147292 -0.238907
C4    C     C_R   0.095242 0.224183 0.852691 -0.238885
C5    C     C_R   0.091167 0.917902 0.156539 -0.034379
C6    C     C_R   0.908824 0.082115 0.843462 -0.034326
C7    C     C_R   0.086954 0.834461 0.113787 -0.078018
C8    C     C_R   0.913088 0.165502 0.886244 -0.077976
C9    C     C_R   0.907555 0.127696 0.173164 -0.190134
C10   C     C_R   0.092418 0.872343 0.826854 -0.190117
C11   C     C_R   0.905475 0.211331 0.134554 -0.246731
C12   C     C_R   0.094495 0.788709 0.865466 -0.246791
C13   C     C_R   0.171347 0.924289 0.290576 -0.167357
C14   C     C_R   0.828660 0.075726 0.709414 -0.167227
C15   C     C_R   0.250316 0.919680 0.334296 -0.213893
C16   C     C_R   0.749690 0.080329 0.665696 -0.213893
C17   C     C_R   0.836882 0.094642 0.299936 -0.243484
C18   C     C_R   0.163143 0.905383 0.700080 -0.243467
C19   C     C_R   0.756895 0.094245 0.342481 -0.213079
C20   C     C_R   0.243129 0.905773 0.657535 -0.213088
C21   C     C_3   0.001289 0.013501 0.246451 -0.075413
C22   C     C_3   0.998704 0.986515 0.753546 -0.075401
C23   C     C_R   0.654699 0.002129 0.420617 0.878098
C24   C     C_R   0.345301 0.997871 0.579383 0.878100
C25   C     C_R   0.099651 0.011802 0.288218 0.161805
C26   C     C_R   0.900349 0.988208 0.711777 0.161822
C27   C     C_R   0.258570 0.002147 0.376507 -0.012595
C28   C     C_R   0.741432 0.997855 0.623490 -0.012602
C29   C     C_R   0.900848 0.002306 0.288155 0.099402
C30   C     C_R   0.099151 0.997708 0.711845 0.099381
C31   C     C_R   0.738347 0.002640 0.375734 -0.065349
C32   C     C_R   0.261653 0.997362 0.624265 -0.065348
C33   C     C_R   0.996782 0.118647 0.212080 0.102412
C34   C     C_R   0.003212 0.881371 0.787922 0.102403
C35   C     C_R   0.992246 0.288080 0.133391 -0.080591
C36   C     C_R   0.007750 0.711930 0.866611 -0.080592
C37   C     C_R   0.002848 0.925019 0.197963 0.063933
C38   C     C_R   0.997136 0.075006 0.802030 0.063890
C39   C     C_R   0.995314 0.760421 0.111601 -0.091884
C40   C     C_R   0.004698 0.239574 0.888408 -0.091910
C41   C     C_R   0.993851 0.665780 0.073032 0.871039
C42   C     C_R   0.006151 0.334214 0.926974 0.871040
C43   C     C_R   0.997583 0.359185 0.083865 0.860009
C44   C     C_R   0.002416 0.640821 0.916136 0.859963
C45   C     C_R   0.107217 0.091806 0.332837 -0.179785
C46   C     C_R   0.892787 0.908202 0.667159 -0.179816
C47   C     C_R   0.186968 0.088167 0.375696 -0.197155
C48   C     C_R   0.813033 0.911835 0.624302 -0.197166
C49   C     C_R   0.880856 0.908250 0.323437 0.240625
C50   C     C_R   0.119125 0.091750 0.676548 0.240608
C51   C     C_R   0.799437 0.910523 0.366107 -0.211273
C52   C     C_R   0.200541 0.089468 0.633877 -0.211246
C53   C     C_R   0.077573 0.204081 0.215468 -0.205020
C54   C     C_R   0.922445 0.795916 0.784522 -0.205071
C55   C     C_R   0.073239 0.291889 0.177789 0.001869
C56   C     C_R   0.926772 0.708108 0.822204 0.001783
C57   C     C_R   0.907118 0.858231 0.188416 -0.203572
C58   C     C_R   0.092860 0.141807 0.811569 -0.203572
H1    H     H_    0.191300 0.151676 0.408861 0.153819
H2    H     H_    0.808701 0.848323 0.591138 0.153824
H3    H     H_    0.146358 0.202344 0.245268 0.147397
H4    H     H_    0.853672 0.797644 0.754714 0.147403
H5    H     H_    0.832326 0.867650 0.213179 0.158154
H6    H     H_    0.167644 0.132406 0.786796 0.158172
H7    H     H_    0.840967 0.066922 0.171251 0.145995
H8    H     H_    0.158988 0.933134 0.828779 0.146028
H9    H     H_    0.165618 0.857143 0.259920 0.119629
H10   H     H_    0.834405 0.142884 0.740060 0.119644
H11   H     H_    0.850723 0.171527 0.278900 0.165565
H12   H     H_    0.149325 0.828509 0.721132 0.165582
H13   H     H_    0.785237 0.839823 0.393038 0.164986
H14   H     H_    0.214722 0.160153 0.606932 0.164977
H15   H     H_    0.831822 0.722652 0.144184 0.162974
H16   H     H_    0.168145 0.277411 0.855784 0.162971
H17   H     H_    0.838113 0.213278 0.103705 0.180822
H18   H     H_    0.161830 0.786791 0.896332 0.180711
H19   H     H_    0.305268 0.852207 0.334869 0.147458
H20   H     H_    0.694744 0.147807 0.665119 0.147474
H21   H     H_    0.710481 0.166723 0.349846 0.163294
H22   H     H_    0.289565 0.833305 0.650182 0.163286
H23   H     H_    0.050344 0.157611 0.334550 0.142766
H24   H     H_    0.949665 0.842401 0.665446 0.142778
O1    O     O_R   0.621380 0.090460 0.561410 -0.623991
O2    O     O_R   0.378620 0.909540 0.438590 -0.623982
O3    O     O_R   0.617150 0.909540 0.438590 -0.633768
O4    O     O_R   0.382850 0.090460 0.561410 -0.633764
O5    O     O_R   0.619720 0.093230 0.440890 -0.623727
O6    O     O_R   0.380280 0.906770 0.559110 -0.623719
O7    O     O_R   0.618800 0.906770 0.559110 -0.629073
O8    O     O_R   0.381200 0.093230 0.440890 -0.629072
O9    O     O_R   0.087590 0.627480 0.058790 -0.612365
O10   O     O_R   0.912410 0.372520 0.941210 -0.612434
O11   O     O_R   0.905660 0.383870 0.059980 -0.623573
O12   O     O_R   0.094340 0.616130 0.940020 -0.623550
O13   O     O_R   0.092570 0.390420 0.063230 -0.621700
O14   O     O_R   0.907430 0.609580 0.936770 -0.621679
O15   O     O_R   0.900680 0.620930 0.055550 -0.634381
O16   O     O_R   0.099320 0.379070 0.944450 -0.634395
Zn1   Zn    Zn3+2 0.501730 0.123520 0.501540 0.940399
Zn2   Zn    Zn3+2 0.498270 0.876480 0.498460 0.940402
Zn3   Zn    Zn3+2 0.125690 0.504390 0.002180 0.946464
Zn4   Zn    Zn3+2 0.874310 0.495610 0.997820 0.946395
C59   C     C_3   0.943144 0.804081 0.320686 -0.938800
H25   H     H_    0.883393 0.733788 0.318186 0.231972
H26   H     H_    0.997461 0.795123 0.283020 0.250386
H27   H     H_    0.993668 0.797120 0.360906 0.253534
C60   C     C_3   0.056817 0.195908 0.679283 -0.938823
H28   H     H_    0.006242 0.202808 0.639076 0.253556
H29   H     H_    0.002551 0.204904 0.716967 0.250391
H30   H     H_    0.116554 0.266217 0.681738 0.231972
C61   C     C_R   0.181996 0.002201 0.150976 0.122859
C62   C     C_R   0.287900 0.986038 0.174148 -0.144906
C63   C     C_R   0.376802 0.056133 0.160311 -0.132165
C64   C     C_R   0.362398 0.140134 0.121150 -0.151473
C65   C     C_R   0.259217 0.153766 0.095503 -0.131005
C66   C     C_R   0.170008 0.084478 0.109747 -0.106075
H31   H     H_    0.303980 0.916071 0.200193 0.113581
H32   H     H_    0.457732 0.043297 0.178637 0.126239
H33   H     H_    0.431487 0.193774 0.110093 0.120664
H34   H     H_    0.248565 0.217245 0.064086 0.152026
H35   H     H_    0.091844 0.093051 0.087505 0.129360
C67   C     C_R   0.817904 0.997894 0.848973 0.122771
C68   C     C_R   0.829780 0.915499 0.890143 -0.105923
C69   C     C_R   0.740494 0.846254 0.904323 -0.131154
C70   C     C_R   0.637345 0.860055 0.878673 -0.151532
C71   C     C_R   0.623045 0.944193 0.839586 -0.131987
C72   C     C_R   0.712024 0.014242 0.825815 -0.144935
H36   H     H_    0.907918 0.906788 0.912388 0.129428
H37   H     H_    0.751066 0.782668 0.935686 0.152006
H38   H     H_    0.568201 0.806441 0.889673 0.120662
H39   H     H_    0.542139 0.957165 0.821265 0.126229
H40   H     H_    0.696030 0.084307 0.799827 0.113484
C73   C     C_R   0.148668 0.388382 0.187611 0.123183
C74   C     C_R   0.105716 0.493054 0.189286 -0.105227
C75   C     C_R   0.174816 0.583849 0.201055 -0.128269
C76   C     C_R   0.287387 0.571342 0.211210 -0.134615
C77   C     C_R   0.330886 0.467914 0.210051 -0.139001
C78   C     C_R   0.261912 0.376751 0.198788 -0.159943
H41   H     H_    0.018347 0.504343 0.182400 0.100041
H42   H     H_    0.140960 0.663881 0.202661 0.125473
H43   H     H_    0.340763 0.641754 0.220321 0.113486
H44   H     H_    0.418028 0.458247 0.218323 0.126880
H45   H     H_    0.297012 0.297409 0.199010 0.142945
C79   C     C_R   0.851297 0.611635 0.812400 0.123118
C80   C     C_R   0.738067 0.623314 0.801203 -0.160026
C81   C     C_R   0.669032 0.532176 0.789994 -0.138989
C82   C     C_R   0.712452 0.428714 0.788910 -0.134658
C83   C     C_R   0.825010 0.416155 0.799075 -0.128230
C84   C     C_R   0.894175 0.506929 0.810788 -0.105032
H46   H     H_    0.703019 0.702676 0.800929 0.142967
H47   H     H_    0.581902 0.541886 0.781707 0.126896
H48   H     H_    0.659027 0.358317 0.779847 0.113508
H49   H     H_    0.858804 0.336095 0.797523 0.125466
H50   H     H_    0.981531 0.495592 0.817689 0.100003
C85   C     C_R   0.175424 0.832130 0.068881 0.169939
C86   C     C_R   0.164221 0.891049 0.017364 -0.148941
C87   C     C_R   0.254512 0.906117 0.980152 -0.151497
C88   C     C_R   0.354700 0.858372 0.992669 -0.112470
C89   C     C_R   0.365401 0.796940 0.043002 -0.147973
C90   C     C_R   0.276496 0.784755 0.081367 -0.091345
H51   H     H_    0.087423 0.929665 0.007600 0.107832
H52   H     H_    0.246765 0.954859 0.941547 0.127055
H53   H     H_    0.424233 0.869705 0.963614 0.123848
H54   H     H_    0.443336 0.760819 0.052956 0.119500
H55   H     H_    0.287143 0.741133 0.121479 0.111297
C91   C     C_R   0.824756 0.167707 0.931229 0.169791
C92   C     C_R   0.723630 0.215093 0.918877 -0.091144
C93   C     C_R   0.634856 0.202778 0.957317 -0.147861
C94   C     C_R   0.645739 0.141204 0.007587 -0.112602
C95   C     C_R   0.745980 0.093444 0.019966 -0.151639
C96   C     C_R   0.836144 0.108646 0.982685 -0.149140
H56   H     H_    0.712843 0.258835 0.878813 0.111288
H57   H     H_    0.556880 0.238912 0.947469 0.119460
H58   H     H_    0.576309 0.129778 0.036700 0.123854
H59   H     H_    0.753875 0.044603 0.058525 0.127218
H60   H     H_    0.912986 0.070023 0.992345 0.107886

loop_
_geom_bond_atom_site_label_1
_geom_bond_atom_site_label_2
_ccdc_geom_bond_type
C50   C60   S    
C16   C28   A    
C77   H44   S    
C17   H11   S    
C71   C72   A    
O14   Zn4   S    
C17   C29   A    
C94   C95   A    
C2    O2    A    
C61   C62   A    
C19   C31   A    
C64   C65   A    
C68   C69   A    
C39   C41   S    
C29   C49   A    
O6    Zn2   S    
C87   C88   A    
C10   H8    S    
C52   H14   S    
C7    C39   A    
C86   C87   A    
C81   C82   A    
C5    C37   A    
C78   H45   S    
C42   O16   A    
C80   C81   A    
C62   H31   S    
C21   C33   S    
C95   C96   A    
C65   C66   A    
C22   C38   S    
C67   C72   A    
C2    O8    A    
C72   H40   S    
C32   C52   A    
C59   H25   S    
C17   C19   A    
C46   H24   S    
C53   H3    S    
C70   H38   S    
C82   C83   A    
O12   Zn3   S    
C49   C51   A    
C1    C28   S    
C50   C52   A    
C60   H28   S    
C6    C38   A    
C57   H5    S    
C61   C66   A    
C18   C30   A    
C14   C16   A    
C12   C36   A    
C35   C43   S    
C18   C20   A    
O15   Zn4   S    
O10   Zn4   S    
C45   C47   A    
C30   C50   A    
C77   C78   A    
C3    C39   A    
C91   C96   A    
C23   O5    A    
C9    C33   A    
C60   H29   S    
C13   C25   A    
C93   H57   S    
C51   H13   S    
O9    Zn3   S    
C62   C63   A    
C20   C32   A    
C48   H2    S    
C46   C48   A    
C95   H59   S    
C53   C55   A    
C33   C53   A    
C75   H42   S    
C22   C34   S    
C54   C56   A    
C66   H35   S    
C20   H22   S    
O7    Zn2   S    
C35   C55   A    
O2    Zn2   S    
C4    C40   A    
C75   C76   A    
C83   C84   A    
C10   C34   A    
C92   C93   A    
C5    C7    A    
C76   C77   A    
C6    C8    A    
C5    C61   S    
C58   H6    S    
C55   C73   S    
C21   C29   S    
C63   H32   S    
C15   C27   A    
C23   C31   S    
C88   C89   A    
C84   H50   S    
C24   C32   S    
C76   H43   S    
C36   C56   A    
C73   C74   A    
C24   O6    A    
C43   O13   A    
C89   C90   A    
C94   H58   S    
C7    C85   S    
C59   H26   S    
C38   C58   A    
C90   H55   S    
C14   C26   A    
C19   H21   S    
O4    Zn1   S    
C9    C11   A    
C2    C27   S    
C10   C12   A    
C88   H53   S    
C3    C57   A    
C93   C94   A    
C41   O9    A    
C86   H51   S    
C34   C54   A    
C13   C15   A    
C23   O3    A    
C91   C92   A    
C60   H30   S    
C41   O15   A    
C36   C44   S    
C83   H49   S    
C6    C67   S    
C25   C45   A    
O8    Zn1   S    
C74   H41   S    
C16   H20   S    
C63   C64   A    
C13   H9    S    
C27   C47   A    
C21   C25   S    
C28   C48   A    
C1    O7    A    
C44   O14   A    
C22   C30   S    
C79   C84   A    
C85   C90   A    
C4    H16   S    
C45   H23   S    
C80   H46   S    
C31   C51   A    
C79   C80   A    
O11   Zn4   S    
C49   C59   S    
C92   H56   S    
C1    O1    A    
O16   Zn3   S    
C54   H4    S    
C96   H60   S    
C74   C75   A    
C18   H12   S    
C12   H18   S    
C82   H48   S    
C15   H19   S    
O3    Zn2   S    
C11   H17   S    
C68   H36   S    
C70   C71   A    
C64   H33   S    
C71   H39   S    
C8    C91   S    
C11   C35   A    
C43   O11   A    
C69   H37   S    
C59   H27   S    
C42   O10   A    
C14   H10   S    
C3    H15   S    
C9    H7    S    
C44   O12   A    
C26   C46   A    
C47   H1    S    
C81   H47   S    
C56   C79   S    
O5    Zn1   S    
C73   C78   A    
C21   C37   S    
C65   H34   S    
C22   C26   S    
C4    C58   A    
C85   C86   A    
C40   C42   S    
C89   H54   S    
O1    Zn1   S    
C8    C40   A    
C67   C68   A    
C24   O4    A    
C87   H52   S    
C37   C57   A    
O13   Zn3   S    
C69   C70   A    
