data_mof_unit_pretest_690.cif
_audit_creation_date              2012-12-11T15:10:53-0500
_audit_creation_method            fapswitch 2.2
_symmetry_space_group_name_H-M    P1
_symmetry_Int_Tables_number       1
_space_group_crystal_system       triclinic
_cell_length_a                    21.303541
_cell_length_b                    7.2303
_cell_length_c                    18.249156
_cell_angle_alpha                 90.001488
_cell_angle_beta                  92.917622
_cell_angle_gamma                 90.000266
_cell_volume                      2807.2919331

loop_
_atom_site_label
_atom_site_type_symbol
_atom_type_description
_atom_site_fract_x
_atom_site_fract_y
_atom_site_fract_z
_atom_type_partial_charge
O1    O     O_R   0.448880 0.506250 0.415280 -0.527014
O2    O     O_R   0.551120 0.006250 0.584720 -0.526986
O3    O     O_R   0.434830 0.174000 0.557310 -0.528134
O4    O     O_R   0.565170 0.674000 0.442690 -0.528158
C1    C     C_R   0.417043 0.344580 0.579742 0.755688
C2    C     C_R   0.582958 0.844578 0.420259 0.755674
O5    O     O_R   0.441680 0.176440 0.414130 -0.541970
O6    O     O_R   0.558320 0.676440 0.585870 -0.541995
O7    O     O_R   0.558020 0.007570 0.440520 -0.521646
O8    O     O_R   0.441980 0.507570 0.559480 -0.521681
C3    C     C_R   0.426836 0.345604 0.389598 0.798297
C4    C     C_R   0.573164 0.845607 0.610402 0.798288
O9    O     O_3   0.538160 0.339670 0.508820 -0.383940
O10   O     O_3   0.461840 0.839670 0.491180 -0.383922
V1    V     V_3+5 0.492920 0.064260 0.498360 1.388861
V2    V     V_3+5 0.507080 0.564260 0.501640 1.388754
C5    C     C_R   0.876718 0.993506 0.690926 -0.116552
C6    C     C_R   0.123279 0.493449 0.309076 -0.116766
H1    H     H_    0.961262 0.036295 0.756295 0.123757
H2    H     H_    0.038736 0.536264 0.243709 0.123742
H3    H     H_    0.899922 0.030377 0.641532 0.168716
H4    H     H_    0.100076 0.530297 0.358474 0.168660
C7    C     C_R   0.886168 0.941675 0.821498 -0.109771
C8    C     C_R   0.113833 0.441685 0.178500 -0.109758
C9    C     C_R   0.583135 0.828849 0.743750 -0.276904
C10   C     C_R   0.416867 0.328921 0.256249 -0.276862
C11   C     C_R   0.615430 0.846292 0.811896 0.393184
C12   C     C_R   0.384573 0.346405 0.188104 0.393159
C13   C     C_R   0.679855 0.879888 0.815138 -0.048213
C14   C     C_R   0.320149 0.379987 0.184863 -0.048193
C15   C     C_R   0.714795 0.889112 0.751254 -0.049625
C16   C     C_R   0.285206 0.389128 0.248746 -0.049629
C17   C     C_R   0.680062 0.892631 0.681608 -0.104977
C18   C     C_R   0.319935 0.392593 0.318394 -0.105124
C19   C     C_R   0.782320 0.909552 0.754917 0.006273
C20   C     C_R   0.217680 0.409546 0.245081 0.006334
C21   C     C_R   0.812305 0.951134 0.689003 -0.072298
C22   C     C_R   0.187691 0.451059 0.310999 -0.072460
C23   C     C_R   0.778063 0.953189 0.621268 0.361488
C24   C     C_R   0.221931 0.453043 0.378737 0.361482
C25   C     C_R   0.712298 0.937834 0.617976 0.311312
C26   C     C_R   0.287693 0.437713 0.382032 0.311602
C27   C     C_R   0.821750 0.886957 0.820853 0.322044
C28   C     C_R   0.178254 0.386991 0.179140 0.322047
C29   C     C_R   0.912237 0.996179 0.756543 -0.224541
C30   C     C_R   0.087762 0.496155 0.243459 -0.224473
C31   C     C_R   0.613741 0.855907 0.678726 -0.090128
C32   C     C_R   0.386258 0.355902 0.321275 -0.090131
H5    H     H_    0.533026 0.801275 0.741348 0.103046
H6    H     H_    0.466978 0.301386 0.258650 0.103045
H7    H     H_    0.700360 0.908426 0.868990 0.190174
H8    H     H_    0.299645 0.408565 0.131015 0.190169
C33   C     C_1   0.864684 0.938848 0.132311 -0.195384
C34   C     C_1   0.135316 0.438844 0.867690 -0.195379
C35   C     C_1   0.821934 0.924824 0.176212 0.009261
C36   C     C_1   0.178066 0.424820 0.823788 0.009269
C37   C     C_1   0.771473 0.905773 0.228476 0.006492
C38   C     C_1   0.228528 0.405772 0.771525 0.006507
C39   C     C_1   0.728936 0.889193 0.272522 0.004619
C40   C     C_1   0.271065 0.389195 0.727478 0.004666
C41   C     C_1   0.678336 0.870101 0.324587 0.001978
C42   C     C_1   0.321665 0.370105 0.675414 0.002116
C43   C     C_1   0.635373 0.856013 0.368186 -0.188099
C44   C     C_1   0.364628 0.356017 0.631815 -0.187963
O11   O     O_R   0.058070 0.289240 0.940580 -0.522454
O12   O     O_R   0.941930 0.789240 0.059420 -0.522454
O13   O     O_R   0.058330 0.616740 0.085880 -0.529223
O14   O     O_R   0.941670 0.116740 0.914120 -0.529216
C45   C     C_R   0.072280 0.448469 0.111146 0.672800
C46   C     C_R   0.927720 0.948465 0.888853 0.672815
O15   O     O_R   0.065180 0.619040 0.942700 -0.520820
O16   O     O_R   0.934820 0.119040 0.057300 -0.520822
O17   O     O_R   0.948870 0.787780 0.915270 -0.532794
O18   O     O_R   0.051130 0.287780 0.084730 -0.532789
C47   C     C_R   0.083163 0.450283 0.920144 0.699365
C48   C     C_R   0.916837 0.950285 0.079856 0.699362
O19   O     O_3   0.961870 0.453310 0.991210 -0.363882
O20   O     O_3   0.038130 0.953310 0.008790 -0.363881
V3    V     V_3+5 0.007070 0.728770 0.001630 1.437094
V4    V     V_3+5 0.992930 0.228770 0.998370 1.437098
O21   O     O_3   0.808681 0.984815 0.557274 -0.553116
C49   C     C_3   0.816959 0.813755 0.521895 -0.216468
H9    H     H_    0.771042 0.750649 0.503965 0.160214
H10   H     H_    0.844894 0.715896 0.557683 0.124190
H11   H     H_    0.843481 0.838014 0.472024 0.160462
O22   O     O_3   0.191322 0.484538 0.442747 -0.553052
C50   C     C_3   0.182770 0.313335 0.477875 -0.216441
H12   H     H_    0.228577 0.249419 0.495701 0.159829
H13   H     H_    0.154671 0.216224 0.441940 0.124272
H14   H     H_    0.156300 0.337524 0.527795 0.160501
O23   O     O_3   0.798143 0.799388 0.880942 -0.659364
H15   H     H_    0.829612 0.796419 0.922591 0.282275
O24   O     O_3   0.201866 0.299480 0.119039 -0.659368
H16   H     H_    0.170399 0.296521 0.077388 0.282262
O25   O     O_3   0.585155 0.833820 0.876805 -0.631862
H17   H     H_    0.539794 0.810627 0.865521 0.298075
O26   O     O_3   0.414852 0.333998 0.123197 -0.631891
H18   H     H_    0.460192 0.310568 0.134475 0.298109
O27   O     O_3   0.680038 0.972720 0.551728 -0.568367
C51   C     C_3   0.678107 0.166389 0.540567 -0.133899
H19   H     H_    0.725741 0.228136 0.538350 0.143085
H20   H     H_    0.651834 0.236438 0.583851 0.128557
H21   H     H_    0.653690 0.195467 0.486812 0.160126
O28   O     O_3   0.319944 0.472539 0.448290 -0.568242
C52   C     C_3   0.321870 0.666197 0.459485 -0.133745
H22   H     H_    0.274235 0.727953 0.461683 0.143042
H23   H     H_    0.348164 0.736285 0.416229 0.128519
H24   H     H_    0.346261 0.695222 0.513259 0.160066

loop_
_geom_bond_atom_site_label_1
_geom_bond_atom_site_label_2
_ccdc_geom_bond_type
C12   O26   S    
O14   V4    S    
C14   C16   A    
C50   H12   S    
O24   H16   S    
C7    C29   A    
C11   C13   A    
C11   O25   S    
O25   H17   S    
O1    C3    A    
O16   C48   A    
O2    C4    A    
C2    O7    A    
O15   V3    S    
O21   C49   S    
C23   C25   A    
O5    C3    A    
O12   V3    S    
C52   H23   S    
C16   C20   A    
C19   C21   A    
C5    C29   A    
C10   H6    S    
C37   C39   T    
C38   C40   T    
C7    C27   A    
C40   C42   S    
C24   O22   S    
C41   C43   T    
C42   C44   T    
C28   O24   S    
C50   H14   S    
C18   C26   A    
C25   O27   S    
C19   C27   A    
C9    C31   A    
C10   C32   A    
O5    V1    S    
O6    V2    S    
O11   V4    S    
O18   V4    S    
C13   C15   A    
C7    C46   S    
C3    C32   S    
C4    C31   S    
C6    C30   A    
C51   H20   S    
O28   C52   S    
C8    C45   S    
O26   H18   S    
C9    H5    S    
C33   C35   T    
C21   C23   A    
C52   H24   S    
C34   C36   T    
C39   C41   S    
O13   V3    S    
C23   O21   S    
O4    C2    A    
O23   H15   S    
O22   C50   S    
C51   H21   S    
C5    H3    S    
C1    C44   S    
O13   C45   A    
C16   C18   A    
C2    C43   S    
O4    V2    S    
O27   C51   S    
O6    C4    A    
O12   C48   A    
C46   O17   A    
C15   C17   A    
O17   V3    S    
C45   O18   A    
O1    V2    S    
C5    C21   A    
O2    V1    S    
C49   H10   S    
C35   C37   S    
C17   C31   A    
C15   C19   A    
C20   C28   A    
C33   C48   S    
C18   C32   A    
C20   C22   A    
O3    V1    S    
C13   H7    S    
O19   V4    S    
C14   H8    S    
C6    H4    S    
O15   C47   A    
O3    C1    A    
C26   O28   S    
H1    C29   S    
C9    C11   A    
C49   H11   S    
C52   H22   S    
C10   C12   A    
O11   C47   A    
C8    C30   A    
C50   H13   S    
C6    C22   A    
C17   C25   A    
C12   C14   A    
O16   V4    S    
O8    V2    S    
C22   C24   A    
O20   V3    S    
C8    C28   A    
C24   C26   A    
C51   H19   S    
C36   C38   S    
O7    V1    S    
C27   O23   S    
C34   C47   S    
C1    O8    A    
O14   C46   A    
C49   H9    S    
O9    V2    S    
O10   V1    S    
H2    C30   S    
