data_mof_unit_pretest_1965.cif
_audit_creation_date              2012-12-10T18:24:44-0500
_audit_creation_method            fapswitch 2.2
_symmetry_space_group_name_H-M    P1
_symmetry_Int_Tables_number       1
_space_group_crystal_system       triclinic
_cell_length_a                    16.047762
_cell_length_b                    16.050991
_cell_length_c                    19.536518
_cell_angle_alpha                 95.446822
_cell_angle_beta                  90.731056
_cell_angle_gamma                 84.094338
_cell_volume                      4982.93264567

loop_
_atom_site_label
_atom_site_type_symbol
_atom_type_description
_atom_site_fract_x
_atom_site_fract_y
_atom_site_fract_z
_atom_type_partial_charge
C1    C     C_R   0.275793 0.510851 0.490958 0.519645
C2    C     C_2   0.481484 0.528624 0.982745 -0.078999
C3    C     C_2   0.535102 0.479472 0.018381 -0.084541
C4    C     C_R   0.724079 0.489212 0.509028 0.515373
C5    C     C_R   0.512621 0.486106 0.236035 0.002269
C6    C     C_1   0.186263 0.515708 0.486900 0.044915
C7    C     C_2   0.021057 0.524864 0.478961 0.253097
C8    C     C_2   0.978867 0.479156 0.517946 -0.085448
C9    C     C_1   0.888849 0.482101 0.515287 0.043571
C10   C     C_1   0.110994 0.519867 0.483321 0.024611
C11   C     C_1   0.813594 0.485074 0.512638 0.077002
C12   C     C_R   0.486712 0.528661 0.907701 -0.000179
C13   C     C_1   0.515947 0.185005 0.487231 0.071187
C14   C     C_2   0.522459 0.019147 0.481735 -0.084606
C15   C     C_2   0.473076 0.981139 0.521173 0.253641
C16   C     C_R   0.511734 0.274896 0.490807 0.507590
C17   C     C_1   0.478649 0.890718 0.516693 0.017898
C18   C     C_1   0.519138 0.109467 0.484530 0.039112
C19   C     C_1   0.483149 0.815063 0.513102 0.036273
C20   C     C_R   0.488161 0.725109 0.509140 0.518629
C21   C     C_R   0.508891 0.490657 0.311345 0.538016
C22   C     C_R   0.491263 0.511158 0.688604 0.541683
C23   C     C_R   0.413111 0.546469 0.870335 -0.097857
C24   C     C_R   0.491241 0.519033 0.763842 0.048796
C25   C     C_R   0.566160 0.505082 0.801565 0.241314
C26   C     C_R   0.563411 0.510379 0.873018 -0.061474
C27   C     C_R   0.415314 0.541706 0.798845 -0.144628
C28   C     C_R   0.451054 0.460533 0.122270 0.279139
C29   C     C_R   0.443760 0.465330 0.194088 0.260296
C30   C     C_R   0.587284 0.501935 0.205524 -0.161785
C31   C     C_R   0.594043 0.497718 0.134510 -0.154338
C32   C     C_R   0.526042 0.478696 0.092765 -0.001500
Cl1   Cl    Cl    0.665447 0.484782 0.762247 -0.531582
Cl2   Cl    Cl    0.969878 0.591847 0.421614 -0.502568
Cl3   Cl    Cl    0.400454 0.038496 0.579290 -0.509069
Cl4   Cl    Cl    0.346585 0.449199 0.229939 -0.434521
Cl5   Cl    Cl    0.367395 0.428165 0.069717 -0.478116
H1    H     H_    0.353559 0.561887 0.896424 0.155715
H2    H     H_    0.652100 0.510884 0.112005 0.151470
H3    H     H_    0.012338 0.438456 0.552765 0.106959
H4    H     H_    0.566576 0.981921 0.446441 0.104201
H5    H     H_    0.640894 0.517202 0.236762 0.166791
H6    H     H_    0.588016 0.441107 0.993829 0.137829
H7    H     H_    0.357339 0.553755 0.770776 0.149584
H8    H     H_    0.429254 0.566366 0.009163 0.171928
H9    H     H_    0.621642 0.501012 0.901112 0.148734
O1    O     O_3   0.500000 0.500000 0.500000 -0.472415
O2    O     O_R   0.462330 0.445560 0.340470 -0.481381
O3    O     O_R   0.440930 0.559110 0.655640 -0.549646
O4    O     O_R   0.554010 0.538050 0.348260 -0.547150
O5    O     O_R   0.542730 0.457290 0.655630 -0.476706
O6    O     O_R   0.555880 0.314540 0.535300 -0.528171
O7    O     O_R   0.439840 0.689760 0.546310 -0.518971
O8    O     O_R   0.320170 0.458170 0.449830 -0.505264
O9    O     O_R   0.684110 0.537530 0.468570 -0.524095
O10   O     O_R   0.310830 0.559620 0.535340 -0.535124
O11   O     O_R   0.684890 0.444680 0.546270 -0.514720
O12   O     O_R   0.463420 0.314900 0.449800 -0.528122
O13   O     O_R   0.540870 0.680800 0.468590 -0.530511
Zn1   Zn    Zn3+2 0.569660 0.430340 0.558290 1.014708
Zn2   Zn    Zn3+2 0.437560 0.430860 0.436130 1.017818
Zn3   Zn    Zn3+2 0.568560 0.563000 0.447270 0.980683
Zn4   Zn    Zn3+2 0.424220 0.575810 0.558310 0.983012

loop_
_geom_bond_atom_site_label_1
_geom_bond_atom_site_label_2
_ccdc_geom_bond_type
C4    O11   A    
C6    C10   T    
C7    C10   S    
C1    O8    A    
O1    Zn2   S    
O3    Zn4   S    
O8    Zn2   S    
C23   C27   A    
C23   H1    S    
O7    Zn4   S    
C14   C18   S    
C20   O7    A    
C31   C32   A    
C12   C23   A    
C24   C27   A    
C21   O2    A    
C2    C12   S    
O12   Zn2   S    
C2    C3    D    
O1    Zn1   S    
O10   Zn4   S    
C7    C8    D    
C4    O9    A    
C16   O12   A    
C4    C11   S    
C9    C11   T    
C29   Cl4   S    
C3    H6    S    
O2    Zn2   S    
C3    C32   S    
C28   Cl5   S    
O1    Zn3   S    
C22   O3    A    
C13   C18   T    
C15   Cl3   S    
C28   C29   A    
C17   C19   T    
C1    O10   A    
C31   H2    S    
C5    C29   A    
C14   H4    S    
C2    H8    S    
O1    Zn4   S    
C30   C31   A    
O4    Zn3   S    
C7    Cl2   S    
C22   C24   S    
C22   O5    A    
C26   H9    S    
C19   C20   S    
C1    C6    S    
O13   Zn3   S    
O9    Zn3   S    
C28   C32   A    
C5    C21   S    
C24   C25   A    
O6    Zn1   S    
C5    C30   A    
C13   C16   S    
C12   C26   A    
C15   C17   S    
C14   C15   D    
C21   O4    A    
O11   Zn1   S    
O5    Zn1   S    
C8    H3    S    
C25   C26   A    
C27   H7    S    
C30   H5    S    
C16   O6    A    
C25   Cl1   S    
C8    C9    S    
C20   O13   A    
