data_mof_unit_pretest_99.cif
_audit_creation_date              2013-03-05T16:48:30-0500
_audit_creation_method            fapswitch 2.2
_symmetry_space_group_name_H-M    P1
_symmetry_Int_Tables_number       1
_space_group_crystal_system       triclinic
_cell_length_a                    10.842095
_cell_length_b                    14.675627
_cell_length_c                    14.692119
_cell_angle_alpha                 65.442079
_cell_angle_beta                  102.892732
_cell_angle_gamma                 102.25844
_cell_volume                      2053.71787552

loop_
_atom_site_label
_atom_site_type_symbol
_atom_site_description
_atom_site_fract_x
_atom_site_fract_y
_atom_site_fract_z
_atom_type_partial_charge
O1    O     O_R   0.455540 0.022090 0.338120 -0.591108
O2    O     O_R   0.544460 0.977910 0.661880 -0.591108
O3    O     O_R   0.512510 0.160150 0.379180 -0.584772
O4    O     O_R   0.487490 0.839850 0.620820 -0.584772
C1    C     C_R   0.478713 0.119492 0.312417 0.790488
C2    C     C_R   0.521287 0.880508 0.687583 0.790488
O5    O     O_R   0.291160 0.930970 0.479480 -0.583668
O6    O     O_R   0.708840 0.069030 0.520520 -0.583668
O7    O     O_R   0.348130 0.069020 0.520540 -0.577970
O8    O     O_R   0.651870 0.930980 0.479460 -0.577970
C3    C     C_R   0.262952 0.000191 0.501681 0.794180
C4    C     C_R   0.737048 0.999809 0.498319 0.794181
Cu1   Cu    Cu3+1 0.466270 0.918260 0.475690 0.948088
Cu2   Cu    Cu3+1 0.533730 0.081740 0.524310 0.948088
H1    H     H_    0.394590 0.231194 0.791399 0.160592
H2    H     H_    0.605410 0.768805 0.208601 0.160592
C5    C     C_R   0.337687 0.096376 0.762390 -0.208965
C6    C     C_R   0.662313 0.903624 0.237610 -0.208965
H3    H     H_    0.397838 0.052917 0.829425 0.141520
H4    H     H_    0.602163 0.947083 0.170575 0.141520
C7    C     C_R   0.259260 0.049802 0.700689 -0.128714
C8    C     C_R   0.740740 0.950197 0.299311 -0.128714
H5    H     H_    0.258806 0.969770 0.721233 0.129503
H6    H     H_    0.741194 0.030230 0.278767 0.129503
C9    C     C_R   0.181315 0.105540 0.613280 0.080428
C10   C     C_R   0.818685 0.894460 0.386720 0.080428
C11   C     C_R   0.181521 0.210226 0.588248 0.052793
C12   C     C_R   0.818478 0.789774 0.411753 0.052793
C13   C     C_R   0.255768 0.255534 0.655267 0.375873
C14   C     C_R   0.744232 0.744465 0.344733 0.375872
C15   C     C_R   0.335672 0.197981 0.740252 -0.224261
C16   C     C_R   0.664328 0.802018 0.259748 -0.224260
C17   C     C_R   0.961835 0.047966 0.551150 -0.225095
C18   C     C_R   0.038165 0.952034 0.448850 -0.225095
H7    H     H_    0.932629 0.083970 0.592685 0.167058
H8    H     H_    0.067371 0.916030 0.407315 0.167058
C19   C     C_R   0.870274 0.998532 0.497311 -0.096714
C20   C     C_R   0.129725 0.001468 0.502689 -0.096714
C21   C     C_R   0.908624 0.948923 0.445949 0.023642
C22   C     C_R   0.091376 0.051077 0.554051 0.023642
C23   C     C_R   0.472451 0.186801 0.205211 -0.051960
C24   C     C_R   0.527549 0.813199 0.794789 -0.051960
C25   C     C_R   0.482511 0.217656 0.032166 -0.190887
C26   C     C_R   0.517489 0.782344 0.967833 -0.190887
C27   C     C_R   0.472328 0.150290 0.131170 -0.200979
C28   C     C_R   0.527672 0.849710 0.868830 -0.200979
C29   C     C_R   0.475462 0.290404 0.178369 -0.234605
C30   C     C_R   0.524539 0.709596 0.821631 -0.234605
C31   C     C_R   0.484466 0.360235 0.078780 0.091594
C32   C     C_R   0.515534 0.639765 0.921220 0.091594
C33   C     C_R   0.491273 0.322094 0.005991 0.148687
C34   C     C_R   0.508727 0.677906 0.994008 0.148687
C35   C     C_R   0.491040 0.466549 0.050394 0.050734
C36   C     C_R   0.508960 0.533451 0.949606 0.050734
C37   C     C_R   0.520085 0.491809 0.880796 -0.175153
C38   C     C_R   0.479914 0.508191 0.119204 -0.175153
C39   C     C_R   0.509920 0.388361 0.908431 -0.182948
C40   C     C_R   0.490079 0.611638 0.091568 -0.182948
H9    H     H_    0.519475 0.360133 0.853267 0.164668
H10   H     H_    0.480524 0.639867 0.146733 0.164668
H11   H     H_    0.525326 0.685527 0.762038 0.147256
H12   H     H_    0.474675 0.314472 0.237962 0.147256
H13   H     H_    0.531176 0.929750 0.849538 0.146142
H14   H     H_    0.468824 0.070250 0.150462 0.146142
H15   H     H_    0.486478 0.188206 0.976520 0.123375
H16   H     H_    0.513521 0.811794 0.023480 0.123375
H17   H     H_    0.538151 0.536613 0.804581 0.151108
H18   H     H_    0.461848 0.463386 0.195419 0.151108
N1    N     N_R   0.584450 0.204570 0.560790 -0.177814
N2    N     N_R   0.415550 0.795430 0.439210 -0.177814
C41   C     C_R   0.707739 0.282082 0.671882 -0.292591
C42   C     C_R   0.292261 0.717918 0.328118 -0.292591
C43   C     C_R   0.677220 0.201597 0.640617 0.084067
C44   C     C_R   0.322781 0.798403 0.359383 0.084066
C45   C     C_R   0.519505 0.285622 0.508681 0.029683
C46   C     C_R   0.480494 0.714378 0.491319 0.029683
C47   C     C_R   0.547506 0.371053 0.535498 -0.005010
C48   C     C_R   0.452493 0.628947 0.464503 -0.005010
C49   C     C_R   0.642784 0.366678 0.620113 0.178465
C50   C     C_R   0.357216 0.633322 0.379887 0.178464
C51   C     C_R   0.484071 0.459241 0.482757 0.150413
C52   C     C_R   0.515928 0.540759 0.517243 0.150413
C53   C     C_R   0.609116 0.530873 0.603760 -0.202185
C54   C     C_R   0.390884 0.469127 0.396240 -0.202185
C55   C     C_R   0.671778 0.446027 0.653309 -0.171292
C56   C     C_R   0.328221 0.553973 0.346692 -0.171293
H19   H     H_    0.743375 0.442276 0.718946 0.140591
H20   H     H_    0.256625 0.557724 0.281055 0.140591
H21   H     H_    0.554972 0.719646 0.551699 0.119122
H22   H     H_    0.445028 0.280354 0.448301 0.119122
H23   H     H_    0.273828 0.864315 0.318874 0.123653
H24   H     H_    0.726173 0.135685 0.681125 0.123653
H25   H     H_    0.781022 0.277900 0.736615 0.146258
H26   H     H_    0.218978 0.722100 0.263385 0.146257
H27   H     H_    0.636149 0.587610 0.635668 0.112885
H28   H     H_    0.363850 0.412390 0.364333 0.112885
C57   C     C_3   0.106723 0.273306 0.489793 -0.770468
H29   H     H_    0.087048 0.238786 0.432793 0.217228
H30   H     H_    0.014535 0.282492 0.503834 0.265002
H31   H     H_    0.161953 0.348662 0.455102 0.251862
C58   C     C_3   0.893276 0.726693 0.510208 -0.770466
H32   H     H_    0.912952 0.761214 0.567207 0.217228
H33   H     H_    0.838045 0.651338 0.544899 0.251861
H34   H     H_    0.985464 0.717507 0.496167 0.265002
N3    N     N_R   0.249402 0.358239 0.639924 0.114551
O9    O     O_R   0.342525 0.407272 0.681509 -0.403708
O10   O     O_R   0.143453 0.397254 0.599339 -0.340642
N4    N     N_R   0.750597 0.641760 0.360077 0.114550
O11   O     O_R   0.657474 0.592728 0.318491 -0.403708
O12   O     O_R   0.856545 0.602744 0.400664 -0.340642

loop_
_geom_bond_atom_site_label_1
_geom_bond_atom_site_label_2
_geom_bond_distance
_ccdc_geom_bond_type
C14   C16   1.405113 A    
C58   H32   1.109283 S    
C11   C13   1.422287 A    
C26   H16   1.083673 S    
C51   C54   1.411891 A    
C29   H12   1.073827 S    
C41   C49   1.401115 A    
C51   C52   1.434395 A    
C29   C31   1.405527 A    
C35   C36   1.425948 A    
O5    C3    1.297613 A    
N3    O10   1.301061 A    
C32   C36   1.427760 A    
O1    C1    1.300060 A    
C46   C48   1.419465 A    
C9    C22   1.488453 S    
C24   C28   1.397853 A    
C48   C50   1.416142 A    
C10   C21   1.488454 S    
C39   H9    1.083528 S    
Cu1   N2    2.022294 S    
C40   H10   1.083528 S    
O4    Cu1   1.943610 S    
N4    O11   1.300817 A    
C54   H28   1.076335 S    
C4    C19   1.451995 S    
H2    C16   1.080900 S    
C50   C56   1.393182 A    
C45   H22   1.075089 S    
C17   H7    1.084974 S    
C2    C24   1.465851 S    
C12   C58   1.513043 S    
C38   C40   1.385043 A    
C31   C33   1.418702 A    
N2    C44   1.356014 A    
C32   C34   1.418702 A    
N1    C43   1.356013 A    
C33   C39   1.388637 A    
C18   H8    1.084974 S    
C25   H15   1.083674 S    
C46   H21   1.075091 S    
O7    C3    1.293164 A    
C42   H26   1.083765 S    
C26   C34   1.403786 A    
C30   C32   1.405527 A    
C58   H33   1.108072 S    
C18   C20   1.399373 A    
Cu1   Cu2   2.692121 S    
C13   N3    1.442993 S    
O2    C2    1.300058 A    
O8    C4    1.293164 A    
C57   H30   1.109999 S    
C26   C28   1.391170 A    
C57   H29   1.109280 S    
C47   C49   1.416141 A    
C17   C22   1.387150 A    
C56   H20   1.084219 S    
C1    C23   1.465851 S    
C18   C21   1.387150 A    
C42   C44   1.390272 A    
C41   C43   1.390273 A    
C38   H18   1.075057 S    
C17   C19   1.399372 A    
C42   C50   1.401116 A    
C44   H23   1.081715 S    
C3    C20   1.451995 S    
O7    Cu2   1.971441 S    
C25   C27   1.391170 A    
C48   C52   1.433528 A    
C47   C51   1.433528 A    
O6    C4    1.297613 A    
C53   H27   1.076334 S    
C23   C29   1.398065 A    
C24   C30   1.398065 A    
C45   C47   1.419466 A    
O3    Cu2   1.943610 S    
C34   C40   1.388637 A    
O4    C2    1.298351 A    
C53   C55   1.388171 A    
C58   H34   1.110000 S    
C37   C39   1.385043 A    
N2    C46   1.361970 A    
C5    C15   1.391845 A    
Cu2   N1    2.022294 S    
C8    H6    1.083593 S    
C6    C16   1.391845 A    
C49   C55   1.393182 A    
C57   H31   1.108072 S    
C35   C38   1.417516 A    
C7    C9    1.403045 A    
C36   C37   1.417517 A    
C11   C57   1.513043 S    
O6    Cu2   1.961789 S    
C14   N4    1.442993 S    
C6    C8    1.391483 A    
C43   H24   1.081716 S    
C54   C56   1.388172 A    
O3    C1    1.298351 A    
O8    Cu1   1.971441 S    
C37   H17   1.075059 S    
H1    C15   1.080900 S    
C41   H25   1.083765 S    
C9    C11   1.422960 A    
N3    O9    1.300814 A    
C27   H14   1.081978 S    
C10   C12   1.422960 A    
C28   H13   1.081978 S    
C7    H5    1.083591 S    
C19   C21   1.413363 A    
C20   C22   1.413363 A    
C25   C33   1.403786 A    
C30   H11   1.073827 S    
C31   C35   1.427760 A    
C12   C14   1.422288 A    
C5    H3    1.081643 S    
N4    O12   1.301064 A    
N1    C45   1.361971 A    
C6    H4    1.081642 S    
O2    Cu2   1.957279 S    
C5    C7    1.391483 A    
C55   H19   1.084220 S    
O5    Cu1   1.961788 S    
O1    Cu1   1.957279 S    
C13   C15   1.405113 A    
C52   C53   1.411891 A    
C8    C10   1.403045 A    
C23   C27   1.397853 A    
