data_mof_unit_pretest_620.cif
_audit_creation_date              2012-12-11T14:50:29-0500
_audit_creation_method            fapswitch 2.2
_symmetry_space_group_name_H-M    P1
_symmetry_Int_Tables_number       1
_space_group_crystal_system       triclinic
_cell_length_a                    11.018159
_cell_length_b                    11.022401
_cell_length_c                    18.907195
_cell_angle_alpha                 90.079037
_cell_angle_beta                  89.688102
_cell_angle_gamma                 59.953928
_cell_volume                      1987.60394101

loop_
_atom_site_label
_atom_site_type_symbol
_atom_type_description
_atom_site_fract_x
_atom_site_fract_y
_atom_site_fract_z
_atom_type_partial_charge
Br1   Br    Br    0.990420 0.411210 0.806440 -0.257953
Br2   Br    Br    0.937311 0.168707 0.663894 -0.374007
Br3   Br    Br    0.449116 0.088129 0.664587 -0.350524
Br4   Br    Br    0.101116 0.979522 0.823265 -0.305091
Br5   Br    Br    0.414358 0.911431 0.825695 -0.316653
Br6   Br    Br    0.535025 0.998017 0.357525 -0.328702
Br7   Br    Br    0.966524 0.944969 0.366092 -0.420026
Br8   Br    Br    0.906877 0.724172 0.764716 -0.553863
Br9   Br    Br    0.504196 0.580317 0.883907 -0.423548
C1    C     C_R   0.281482 0.626623 0.615488 0.538671
C2    C     C_R   0.582808 0.130033 0.781412 -0.069780
C3    C     C_R   0.581574 0.130527 0.708828 0.141638
C4    C     C_R   0.628621 0.587440 0.609043 0.524507
C5    C     C_R   0.674260 0.160302 0.671707 0.030653
C6    C     C_R   0.247861 0.531878 0.731143 0.244876
C7    C     C_R   0.237951 0.543511 0.805043 0.263020
C8    C     C_R   0.187148 0.676023 0.836317 0.057149
C9    C     C_R   0.175668 0.788075 0.794122 0.180459
C10   C     C_R   0.209187 0.767371 0.723540 -0.128525
C11   C     C_R   0.240191 0.642261 0.690278 -0.050965
C12   C     C_3   0.644962 0.550249 0.812865 0.025408
C13   C     C_R   0.763292 0.583333 0.287351 -0.071486
C14   C     C_R   0.784900 0.594725 0.217406 0.197380
C15   C     C_R   0.668834 0.665716 0.170911 0.070996
C16   C     C_R   0.630196 0.224941 0.601705 0.568289
C17   C     C_R   0.532405 0.711538 0.196877 0.254170
C18   C     C_R   0.513515 0.691680 0.268450 -0.080520
C19   C     C_R   0.629877 0.627646 0.313420 -0.042358
C20   C     C_R   0.593966 0.100163 0.296230 0.176676
C21   C     C_R   0.583355 0.093550 0.223577 0.205531
C22   C     C_R   0.650409 0.145943 0.178536 0.029237
C23   C     C_3   0.697053 0.657943 0.815425 0.051222
C24   C     C_R   0.713506 0.218023 0.207063 0.188056
C25   C     C_R   0.709658 0.237297 0.279245 -0.128787
C26   C     C_R   0.649577 0.179413 0.323694 -0.019869
C27   C     C_R   0.069475 0.786786 0.304855 0.151227
C28   C     C_R   0.225767 0.646995 0.400724 0.573696
C29   C     C_R   0.041230 0.800276 0.233471 -0.106559
C30   C     C_R   0.121035 0.687757 0.187074 0.060640
C31   C     C_R   0.225173 0.558625 0.212150 0.264489
C32   C     C_R   0.250970 0.543923 0.284045 -0.120197
C33   C     C_R   0.175148 0.658733 0.330002 -0.005939
C34   C     C_3   0.651092 0.614520 0.684027 -0.084453
C35   C     C_R   0.701532 0.100189 0.895183 0.585967
C36   C     C_R   0.724071 0.685966 0.888781 0.615514
C37   C     C_R   0.118979 0.707609 0.906118 0.632757
C38   C     C_R   0.675284 0.102376 0.105170 0.610407
C39   C     C_R   0.697891 0.689538 0.098145 0.609804
C40   C     C_R   0.617984 0.592698 0.386025 0.531270
C41   C     C_R   0.088330 0.712162 0.113440 0.609946
C42   C     C_R   0.617543 0.229957 0.395275 0.587454
C43   C     C_3   0.591305 0.797972 0.778031 0.031275
C44   C     C_3   0.570266 0.771095 0.700844 -0.196012
C45   C     C_3   0.809314 0.562213 0.695719 -0.162272
C46   C     C_3   0.837898 0.592189 0.770830 0.209041
C47   C     C_3   0.600152 0.541000 0.736531 -0.254075
C48   C     C_R   0.782376 0.165919 0.709549 0.116768
C49   C     C_R   0.779488 0.167709 0.783692 -0.103582
C50   C     C_R   0.684517 0.142982 0.820224 -0.015611
Cl1   Cl    Cl    0.228955 0.399422 0.691405 -0.388006
Cl2   Cl    Cl    0.286982 0.393670 0.857519 -0.418138
Cl3   Cl    Cl    0.964490 0.503904 0.194153 -0.471836
Cl4   Cl    Cl    0.385938 0.784236 0.140777 -0.442682
Cl5   Cl    Cl    0.476642 0.027467 0.192484 -0.408671
Cl6   Cl    Cl    0.789364 0.294287 0.153987 -0.471309
Cl7   Cl    Cl    0.327444 0.417587 0.154745 -0.457249
Cr1   Cr    Cr6+3 0.392930 0.397900 0.502230 1.146423
Cr2   Cr    Cr6+3 0.398240 0.708600 0.501260 1.126831
Cr3   Cr    Cr6+3 0.708800 0.393470 0.496460 1.114071
Cr4   Cr    Cr6+3 0.937620 0.938540 0.007640 1.183912
Cr5   Cr    Cr6+3 0.625150 0.937450 0.994520 1.210676
Cr6   Cr    Cr6+3 0.937990 0.625080 0.001190 1.225231
H1    H     H_    0.634184 0.869242 0.778167 0.161475
H2    H     H_    0.456786 0.816461 0.689339 0.205153
H3    H     H_    0.958273 0.899721 0.213880 0.155188
H4    H     H_    0.335851 0.445445 0.303402 0.159615
H5    H     H_    0.615138 0.819026 0.665509 0.186735
H6    H     H_    0.846968 0.610915 0.656166 0.201312
H7    H     H_    0.732085 0.445210 0.827151 0.171167
H8    H     H_    0.485127 0.591491 0.734500 0.138658
H9    H     H_    0.642181 0.430883 0.720888 0.119697
H10   H     H_    0.869887 0.448228 0.684711 0.229463
H11   H     H_    0.849154 0.190613 0.812849 0.206272
H12   H     H_    0.505015 0.112886 0.807095 0.243082
H13   H     H_    0.204189 0.853861 0.694006 0.223173
H14   H     H_    0.854568 0.533009 0.321106 0.205338
H15   H     H_    0.409586 0.722974 0.288484 0.159802
H16   H     H_    0.750215 0.301335 0.300340 0.185436
O1    O     O_R   0.507430 0.255570 0.581420 -0.438810
O2    O     O_R   0.837200 0.593290 0.915250 -0.456031
O3    O     O_R   0.065330 0.635370 0.931590 -0.436765
O4    O     O_R   0.280190 0.527390 0.578910 -0.425699
O5    O     O_R   0.068300 0.828790 0.091860 -0.474860
O6    O     O_R   0.798730 0.057480 0.079370 -0.481574
O7    O     O_R   0.584680 0.080480 0.076790 -0.419570
O8    O     O_R   0.626790 0.809640 0.067050 -0.444187
O9    O     O_R   0.816010 0.596460 0.076500 -0.436837
O10   O     O_R   0.045680 0.638310 0.081070 -0.438287
O11   O     O_3   0.833590 0.833690 0.001120 -0.363610
O12   O     O_R   0.524460 0.695920 0.424060 -0.442947
O13   O     O_R   0.260310 0.739740 0.584580 -0.496188
O14   O     O_R   0.532250 0.695150 0.573830 -0.489021
O15   O     O_R   0.744930 0.503430 0.576380 -0.474597
O16   O     O_R   0.699250 0.276390 0.571950 -0.482156
O17   O     O_R   0.499020 0.256400 0.419850 -0.470826
O18   O     O_R   0.272400 0.528160 0.429140 -0.505756
O19   O     O_R   0.251910 0.740570 0.423020 -0.462073
O20   O     O_R   0.736530 0.504260 0.414810 -0.498152
O21   O     O_R   0.691460 0.277160 0.422180 -0.500081
O22   O     O_3   0.499990 0.499990 0.499980 -0.366987
O23   O     O_R   0.089490 0.825610 0.930610 -0.449797
O24   O     O_R   0.818370 0.054540 0.929880 -0.470028
O25   O     O_R   0.605870 0.077310 0.915530 -0.482206
O26   O     O_R   0.646440 0.806700 0.917570 -0.460612

loop_
_geom_bond_atom_site_label_1
_geom_bond_atom_site_label_2
_ccdc_geom_bond_type
C21   Cl5   S    
C32   C33   A    
C27   C33   A    
C44   H2    S    
C45   H10   S    
Br2   C48   S    
C24   Cl6   S    
C47   H9    S    
Cr6   O10   S    
C43   C44   S    
C39   O9    A    
C17   C18   A    
Cr4   O6    S    
C15   C17   A    
C25   C26   A    
C21   C22   A    
Cr5   O7    S    
C35   C50   S    
C6    C7    A    
C16   O16   A    
Cr1   O1    S    
Cr5   O25   S    
C9    C10   A    
Br7   C27   S    
C28   C33   S    
C23   C43   S    
Br3   C3    S    
Cr1   O22   S    
Cr3   O21   S    
C36   O26   A    
C34   C44   S    
C14   Cl3   S    
C10   C11   A    
C1    C11   S    
C7    C8    A    
C14   C15   A    
C22   C24   A    
Br5   C43   S    
Cr2   O19   S    
C4    O15   A    
C23   C46   S    
Cr6   O9    S    
Br4   C9    S    
C1    O4    A    
C42   O21   A    
C13   C19   A    
C37   O23   A    
C2    C50   A    
Br8   C46   S    
Cr3   O20   S    
C24   C25   A    
C40   O20   A    
C29   H3    S    
Cr3   O15   S    
C6    C11   A    
C12   C23   S    
C41   O10   A    
C15   C39   S    
Cr4   O5    S    
C8    C37   S    
C43   H1    S    
C30   C31   A    
Cr6   O3    S    
Cr1   O17   S    
Cr2   O22   S    
Cr5   O8    S    
C49   C50   A    
Cr5   O11   S    
Cr5   O26   S    
C19   C40   S    
C44   H5    S    
C17   Cl4   S    
Cr2   O12   S    
C20   C21   A    
Cr6   O2    S    
Cr3   O22   S    
C34   C45   S    
C42   O17   A    
C12   H7    S    
C8    C9    A    
C41   O5    A    
C23   C36   S    
C25   H16   S    
Cr2   O13   S    
C18   H15   S    
C36   O2    A    
Cr4   O24   S    
C35   O24   A    
C31   C32   A    
C3    C5    A    
C35   O25   A    
C26   C42   S    
C7    Cl2   S    
C4    C34   S    
Cr4   O11   S    
Cr3   O16   S    
C5    C48   A    
C45   C46   S    
C39   O8    A    
C1    O13   A    
Cr2   O14   S    
C10   H13   S    
Br6   C20   S    
C12   C47   S    
C2    C3    A    
Cr1   O18   S    
C28   O19   A    
C37   O3    A    
C2    H12   S    
C20   C26   A    
C16   O1    A    
C47   H8    S    
C27   C29   A    
Br1   C46   S    
C28   O18   A    
C49   H11   S    
C40   O12   A    
Br9   C12   S    
C48   C49   A    
C29   C30   A    
Cr1   O4    S    
C31   Cl7   S    
C38   O6    A    
C13   H14   S    
C5    C16   S    
Cr4   O23   S    
C34   C47   S    
C30   C41   S    
C18   C19   A    
C38   O7    A    
C13   C14   A    
C22   C38   S    
C45   H6    S    
C4    O14   A    
C6    Cl1   S    
C32   H4    S    
Cr6   O11   S    
